### 
### Created by X-TOOL on Mon Sep 10 21:12:54 2018
### 

@<TRIPOS>MOLECULE
2cer_ligand
   42    44     1     0     0
SMALL
GAST_HUCK


@<TRIPOS>ATOM
      1 O6         61.9980  -69.5540    8.8200 O.3       1 PGI        -0.3919
      2 C6         62.3810  -70.9020    9.0160 C.3       1 PGI         0.0768
      3 C5         63.6920  -71.1720    8.3120 C.3       1 PGI         0.1168
      4 C4         64.9100  -70.6240    9.0650 C.3       1 PGI         0.1178
      5 O4         64.9150  -71.0990   10.4180 O.3       1 PGI        -0.3858
      6 C3         66.2050  -71.0060    8.2880 C.3       1 PGI         0.1252
      7 O3         67.4380  -70.6500    8.9610 O.3       1 PGI        -0.3839
      8 C2         66.2060  -70.3660    6.9050 C.3       1 PGI         0.1578
      9 O2         67.0040  -71.1800    6.0520 O.3       1 PGI        -0.3700
     10 N1         63.6890  -70.5460    6.9690 N.pl3     1 PGI        -0.2495
     11 C8         62.6400  -70.2110    6.2020 C.2       1 PGI         0.0236
     12 C7         63.1330  -69.6510    5.0360 C.2       1 PGI        -0.0178
     13 N2         64.4810  -69.6560    5.1740 N.2       1 PGI        -0.3315
     14 C1         64.8200  -70.1970    6.3540 C.2       1 PGI         0.1427
     15 C9         62.3150  -69.0980    3.8420 C.3       1 PGI        -0.0191
     16 C10        62.5130  -67.5770    3.7060 C.3       1 PGI        -0.0133
     17 C14        62.0240  -66.9120    2.4140 C.ar      1 PGI        -0.0416
     18 C13        62.0150  -65.5100    2.3620 C.ar      1 PGI        -0.0602
     19 C12        61.5800  -64.8320    1.2190 C.ar      1 PGI        -0.0686
     20 C15        61.5910  -67.6450    1.2920 C.ar      1 PGI        -0.0602
     21 C16        61.1580  -66.9780    0.1470 C.ar      1 PGI        -0.0686
     22 C11        61.1520  -65.5770    0.1120 C.ar      1 PGI        -0.0687
     23 H1         62.6681  -68.9809    9.1737 H         1 PGI         0.2095
     24 H2         61.6043  -71.5650    8.6073 H         1 PGI         0.0589
     25 H3         62.4986  -71.0950   10.0925 H         1 PGI         0.0589
     26 H4         63.8046  -72.2610    8.2055 H         1 PGI         0.0699
     27 H5         64.8398  -69.5266    9.0931 H         1 PGI         0.0654
     28 H6         64.1234  -70.8104   10.8566 H         1 PGI         0.2100
     29 H7         66.1986  -72.0989    8.1639 H         1 PGI         0.0675
     30 H8         67.4785  -71.0929    9.8005 H         1 PGI         0.2103
     31 H9         66.6658  -69.3694    6.9786 H         1 PGI         0.0858
     32 H10        66.6331  -72.0536    6.0120 H         1 PGI         0.2138
     33 H11        61.5898  -70.3540    6.4519 H         1 PGI         0.0663
     34 H12        61.2482  -69.3102    4.0057 H         1 PGI         0.0392
     35 H13        62.6489  -69.5899    2.9165 H         1 PGI         0.0392
     36 H14        63.5910  -67.3761    3.7923 H         1 PGI         0.0442
     37 H15        61.9829  -67.0996    4.5433 H         1 PGI         0.0442
     38 H16        62.3510  -64.9427    3.2225 H         1 PGI         0.0557
     39 H17        61.5740  -63.7484    1.1898 H         1 PGI         0.0599
     40 H18        61.5944  -68.7287    1.3188 H         1 PGI         0.0557
     41 H19        60.8259  -67.5431   -0.7164 H         1 PGI         0.0599
     42 H20        60.8127  -65.0643   -0.7808 H         1 PGI         0.0559
@<TRIPOS>BOND
     1    1    2 1  
     2    2    3 1  
     3    3    4 1  
     4    3   10 1  
     5    4    5 1  
     6    4    6 1  
     7    6    7 1  
     8    6    8 1  
     9    8    9 1  
    10    8   14 1  
    11   10   11 1  
    12   10   14 1  
    13   11   12 2  
    14   12   13 1  
    15   12   15 1  
    16   13   14 2  
    17   15   16 1  
    18   16   17 1  
    19   17   18 ar 
    20   17   20 ar 
    21   18   19 ar 
    22   19   22 ar 
    23   20   21 ar 
    24   21   22 ar 
    25    1   23 1  
    26    2   24 1  
    27    2   25 1  
    28    3   26 1  
    29    4   27 1  
    30    5   28 1  
    31    6   29 1  
    32    7   30 1  
    33    8   31 1  
    34    9   32 1  
    35   11   33 1  
    36   15   34 1  
    37   15   35 1  
    38   16   36 1  
    39   16   37 1  
    40   18   38 1  
    41   19   39 1  
    42   20   40 1  
    43   21   41 1  
    44   22   42 1  
@<TRIPOS>SUBSTRUCTURE
     1 PGI         1

