### 
### Created by X-TOOL on Mon Sep 10 21:12:54 2018
### 

@<TRIPOS>MOLECULE
2ces_ligand
   26    27     1     0     0
SMALL
GAST_HUCK


@<TRIPOS>ATOM
      1 C1         -0.9700   10.9490   10.6440 C.2       1 GIM         0.1465
      2 C2          0.0720   11.7060    9.8090 C.3       1 GIM         0.1586
      3 N10        -2.0430   10.3460   10.0900 N.pl3     1 GIM        -0.2404
      4 C3         -0.3360   11.8420    8.3180 C.3       1 GIM         0.1253
      5 C4         -1.1040   10.5820    7.7780 C.3       1 GIM         0.1183
      6 C5         -2.3680   10.4650    8.6550 C.3       1 GIM         0.1196
      7 C6         -3.5330    9.5700    8.2970 C.3       1 GIM         0.0773
      8 C7         -1.9560    9.9340   12.2890 C.2       1 GIM        -0.0364
      9 C8         -2.6270    9.6300   11.0880 C.2       1 GIM         0.0285
     10 N1         -0.9020   10.7300   11.9630 N.2       1 GIM        -0.3367
     11 O3          0.8770   12.1430    7.5950 O.3       1 GIM        -0.3839
     12 O2          0.6100   12.8660   10.4180 O.3       1 GIM        -0.3699
     13 O4         -1.4750   10.7830    6.4060 O.3       1 GIM        -0.3858
     14 O6         -2.9360    8.2870    8.5940 O.3       1 GIM        -0.3918
     15 H1          0.9311   11.0197    9.7795 H         1 GIM         0.0858
     16 H2         -1.0176   12.6998    8.2198 H         1 GIM         0.0675
     17 H3         -0.4825    9.6789    7.8679 H         1 GIM         0.0654
     18 H4         -2.8066   11.4690    8.5574 H         1 GIM         0.0704
     19 H5         -3.8106    9.6595    7.2364 H         1 GIM         0.0589
     20 H6         -4.4140    9.7696    8.9247 H         1 GIM         0.0589
     21 H7         -2.2290    9.5962   13.2877 H         1 GIM         0.0408
     22 H8         -3.4650    8.9432   10.9782 H         1 GIM         0.0796
     23 H9          1.2871   12.9120    7.9731 H         1 GIM         0.2103
     24 H10        -0.0308   13.5665   10.3837 H         1 GIM         0.2138
     25 H11        -1.9952   10.0459    6.1085 H         1 GIM         0.2100
     26 H12        -2.1658    8.1642    8.0517 H         1 GIM         0.2095
@<TRIPOS>BOND
     1    1    2 1  
     2    1    3 1  
     3    1   10 2  
     4    2    4 1  
     5    2   12 1  
     6    3    6 1  
     7    3    9 1  
     8    4    5 1  
     9    4   11 1  
    10    5    6 1  
    11    5   13 1  
    12    6    7 1  
    13    7   14 1  
    14    9    8 2  
    15    8   10 1  
    16    2   15 1  
    17    4   16 1  
    18    5   17 1  
    19    6   18 1  
    20    7   19 1  
    21    7   20 1  
    22    8   21 1  
    23    9   22 1  
    24   11   23 1  
    25   12   24 1  
    26   13   25 1  
    27   14   26 1  
@<TRIPOS>SUBSTRUCTURE
     1 GIM         1

