### 
### Created by X-TOOL on Mon Sep 10 21:12:54 2018
### 

@<TRIPOS>MOLECULE
2cet_ligand
   42    44     1     0     0
SMALL
GAST_HUCK


@<TRIPOS>ATOM
      1 O6         -2.7750    8.0450    8.4800 O.3       1 PGI        -0.3919
      2 C6         -3.2670    9.3630    8.2000 C.3       1 PGI         0.0768
      3 C5         -2.3130   10.4730    8.6290 C.3       1 PGI         0.1168
      4 C4         -1.1030   10.6420    7.6940 C.3       1 PGI         0.1178
      5 O4         -1.5160   10.8410    6.3370 O.3       1 PGI        -0.3858
      6 C3         -0.2660   11.8380    8.1920 C.3       1 PGI         0.1252
      7 O3          0.8140   12.2110    7.3370 O.3       1 PGI        -0.3839
      8 C2          0.3640   11.5580    9.5490 C.3       1 PGI         0.1578
      9 O2          0.7430   12.7850   10.1550 O.3       1 PGI        -0.3700
     10 N1         -1.7290   10.2150    9.9710 N.pl3     1 PGI        -0.2495
     11 C8         -2.2130    9.4230   10.9420 C.2       1 PGI         0.0236
     12 C7         -1.2870    9.4600   11.9730 C.2       1 PGI        -0.0178
     13 N2         -0.2800   10.2540   11.5880 N.2       1 PGI        -0.3315
     14 C1         -0.5520   10.7170   10.3680 C.2       1 PGI         0.1427
     15 C9         -1.3760    8.7660   13.3130 C.3       1 PGI        -0.0191
     16 C10        -0.0900    7.9790   13.5770 C.3       1 PGI        -0.0133
     17 C14         0.2210    6.8550   12.5880 C.ar      1 PGI        -0.0416
     18 C13         1.1890    7.0310   11.5850 C.ar      1 PGI        -0.0602
     19 C12         1.5000    6.0000   10.6790 C.ar      1 PGI        -0.0686
     20 C15        -0.4210    5.6130   12.6800 C.ar      1 PGI        -0.0602
     21 C16        -0.1050    4.5860   11.7730 C.ar      1 PGI        -0.0686
     22 C11         0.8590    4.7600   10.7710 C.ar      1 PGI        -0.0687
     23 H1         -1.9552    7.9098    8.0194 H         1 PGI         0.2095
     24 H2         -4.2204    9.4988    8.7315 H         1 PGI         0.0589
     25 H3         -3.4358    9.4486    7.1164 H         1 PGI         0.0589
     26 H4         -2.8828   11.4136    8.6529 H         1 PGI         0.0699
     27 H5         -0.4881    9.7311    7.7398 H         1 PGI         0.0654
     28 H6         -2.0195   10.0894    6.0470 H         1 PGI         0.2100
     29 H7         -0.9478   12.6963    8.2838 H         1 PGI         0.0675
     30 H8          0.4724   12.4518    6.4839 H         1 PGI         0.2103
     31 H9          1.2832   10.9755    9.3882 H         1 PGI         0.0858
     32 H10        -0.0256   13.3317   10.2681 H         1 PGI         0.2138
     33 H11        -3.1469    8.8632   10.9231 H         1 PGI         0.0663
     34 H12        -2.2323    8.0756   13.3103 H         1 PGI         0.0392
     35 H13        -1.5131    9.5172   14.1047 H         1 PGI         0.0392
     36 H14        -0.1675    7.5335   14.5797 H         1 PGI         0.0442
     37 H15         0.7499    8.6889   13.5551 H         1 PGI         0.0442
     38 H16         1.7068    7.9802   11.5074 H         1 PGI         0.0557
     39 H17         2.2406    6.1677    9.9054 H         1 PGI         0.0599
     40 H18        -1.1628    5.4435   13.4520 H         1 PGI         0.0557
     41 H19        -0.6203    3.6355   11.8509 H         1 PGI         0.0599
     42 H20         1.1014    3.9557   10.0859 H         1 PGI         0.0559
@<TRIPOS>BOND
     1    1    2 1  
     2    2    3 1  
     3    3    4 1  
     4    3   10 1  
     5    4    5 1  
     6    4    6 1  
     7    6    7 1  
     8    6    8 1  
     9    8    9 1  
    10    8   14 1  
    11   10   11 1  
    12   10   14 1  
    13   11   12 2  
    14   12   13 1  
    15   12   15 1  
    16   13   14 2  
    17   15   16 1  
    18   16   17 1  
    19   17   18 ar 
    20   17   20 ar 
    21   18   19 ar 
    22   19   22 ar 
    23   20   21 ar 
    24   21   22 ar 
    25    1   23 1  
    26    2   24 1  
    27    2   25 1  
    28    3   26 1  
    29    4   27 1  
    30    5   28 1  
    31    6   29 1  
    32    7   30 1  
    33    8   31 1  
    34    9   32 1  
    35   11   33 1  
    36   15   34 1  
    37   15   35 1  
    38   16   36 1  
    39   16   37 1  
    40   18   38 1  
    41   19   39 1  
    42   20   40 1  
    43   21   41 1  
    44   22   42 1  
@<TRIPOS>SUBSTRUCTURE
     1 PGI         1

