### 
### Created by X-TOOL on Mon Sep 10 21:12:54 2018
### 

@<TRIPOS>MOLECULE
2cex_ligand
   36    36     1     0     0
SMALL
GAST_HUCK


@<TRIPOS>ATOM
      1 C1         60.0290    5.2250   31.6300 C.2       1 DAN         0.0809
      2 C2         59.9210    5.5850   30.2390 C.2       1 DAN         0.1088
      3 C3         60.4480    6.7200   29.7340 C.2       1 DAN        -0.0276
      4 C4         60.1720    7.0940   28.3010 C.3       1 DAN         0.1003
      5 C5         58.7190    6.6320   27.9480 C.3       1 DAN         0.1064
      6 C6         58.5400    5.1230   28.2350 C.3       1 DAN         0.1321
      7 C7         57.0920    4.5900   28.1780 C.3       1 DAN         0.1154
      8 C8         57.0160    3.1590   28.7470 C.3       1 DAN         0.1068
      9 C9         55.6390    2.5340   28.4890 C.3       1 DAN         0.0727
     10 C10        57.4830    7.8430   26.1120 C.2       1 DAN         0.1734
     11 C11        57.4020    7.9760   24.6210 C.3       1 DAN         0.0257
     12 N5         58.3270    6.8870   26.5570 N.am      1 DAN        -0.2770
     13 O1A        60.6640    4.2890   32.0610 O.co2     1 DAN        -0.5623
     14 O1B        59.3500    5.8820   32.4270 O.co2     1 DAN        -0.5623
     15 O4         60.3220    8.5310   28.2080 O.3       1 DAN        -0.3807
     16 O6         59.0830    4.6810   29.4900 O.3       1 DAN        -0.3189
     17 O7         56.1010    5.4730   28.7950 O.3       1 DAN        -0.3861
     18 O8         58.0180    2.3020   28.1700 O.3       1 DAN        -0.3869
     19 O9         55.0310    3.0030   27.2750 O.3       1 DAN        -0.3924
     20 O10        56.8380    8.5810   26.8440 O.2       1 DAN        -0.3974
     21 H1         61.0686    7.3613   30.3581 H         1 DAN         0.0480
     22 H2         60.8884    6.6005   27.6278 H         1 DAN         0.0740
     23 H3         58.0313    7.1933   28.5976 H         1 DAN         0.0632
     24 H4         59.1008    4.6089   27.4405 H         1 DAN         0.0697
     25 H5         56.8255    4.5259   27.1127 H         1 DAN         0.0650
     26 H6         57.1825    3.2134   29.8330 H         1 DAN         0.0643
     27 H7         54.9772    2.7826   29.3317 H         1 DAN         0.0584
     28 H8         55.7557    1.4421   28.4240 H         1 DAN         0.0584
     29 H9         56.6928    8.7760   24.3623 H         1 DAN         0.0467
     30 H10        57.0576    7.0261   24.1863 H         1 DAN         0.0467
     31 H11        58.3961    8.2236   24.2204 H         1 DAN         0.0467
     32 H12        58.7281    6.2883   25.8637 H         1 DAN         0.1858
     33 H13        61.2145    8.7701   28.4290 H         1 DAN         0.2127
     34 H14        56.2554    5.5150   29.7314 H         1 DAN         0.2100
     35 H15        57.8658    2.2232   27.2356 H         1 DAN         0.2100
     36 H16        54.9176    3.9450   27.3223 H         1 DAN         0.2095
@<TRIPOS>BOND
     1    2    1 1  
     2    1   13 ar 
     3    1   14 ar 
     4    3    2 2  
     5   16    2 1  
     6    4    3 1  
     7    5    4 1  
     8    4   15 1  
     9    5    6 1  
    10   12    5 1  
    11    6    7 1  
    12    6   16 1  
    13    7    8 1  
    14    7   17 1  
    15    8    9 1  
    16    8   18 1  
    17    9   19 1  
    18   10   11 1  
    19   10   12 am 
    20   10   20 2  
    21    3   21 1  
    22    4   22 1  
    23    5   23 1  
    24    6   24 1  
    25    7   25 1  
    26    8   26 1  
    27    9   27 1  
    28    9   28 1  
    29   11   29 1  
    30   11   30 1  
    31   11   31 1  
    32   12   32 1  
    33   15   33 1  
    34   17   34 1  
    35   18   35 1  
    36   19   36 1  
@<TRIPOS>SUBSTRUCTURE
     1 DAN         1

