### 
### Created by X-TOOL on Mon Sep 10 21:12:54 2018
### 

@<TRIPOS>MOLECULE
2cf8_ligand
   65    69     1     0     0
SMALL
GAST_HUCK


@<TRIPOS>ATOM
      1 N1         11.2130   -9.7810   24.4970 N.pl3     1 ESH        -0.2729
      2 C3         11.4690  -10.9100   23.8580 C.cat     1 ESH         0.2318
      3 N2         10.6980  -11.9810   24.1280 N.pl3     1 ESH        -0.2729
      4 C4         12.5830  -11.0070   22.8770 C.ar      1 ESH         0.0188
      5 C9         13.4160   -9.9420   22.5970 C.ar      1 ESH        -0.0632
      6 C8         14.4290  -10.0250   21.6580 C.ar      1 ESH        -0.0549
      7 C7         14.6840  -11.2280   20.9870 C.ar      1 ESH         0.0071
      8 C6         13.8310  -12.3010   21.2550 C.ar      1 ESH        -0.0549
      9 C5         12.8080  -12.2040   22.1780 C.ar      1 ESH        -0.0632
     10 C10        15.7930  -11.3010   19.9910 C.3       1 ESH         0.0334
     11 N11        15.6460  -12.3720   18.9700 N.4       1 ESH         0.2536
     12 C12        14.6030  -12.0510   17.9510 C.3       1 ESH        -0.0296
     13 C13        15.3280  -11.7040   16.6590 C.3       1 ESH        -0.0074
     14 C14        16.8160  -11.6110   16.9890 C.3       1 ESH        -0.0043
     15 C15        16.9400  -12.4380   18.2670 C.3       1 ESH        -0.0111
     16 C16        17.9750  -12.0190   19.3000 C.3       1 ESH         0.0523
     17 C17        18.9400  -13.1390   19.7350 C.3       1 ESH         0.0601
     18 N19        18.5180  -13.4530   21.0880 N.am      1 ESH        -0.2574
     19 C20        17.3940  -12.6890   21.5140 C.2       1 ESH         0.1917
     20 O21        16.8000  -12.9240   22.5220 O.2       1 ESH        -0.3960
     21 C22        17.2010  -11.5700   20.5300 C.3       1 ESH         0.1113
     22 C23        18.7170  -14.8000   21.6700 C.3       1 ESH         0.0679
     23 C24        19.7090  -14.5870   22.8080 C.ar      1 ESH        -0.0205
     24 C32        19.2720  -14.2150   24.0600 C.ar      1 ESH        -0.0578
     25 C31        20.1440  -13.9810   25.1150 C.ar      1 ESH        -0.0545
     26 C30        21.5010  -14.1390   24.8870 C.ar      1 ESH         0.0330
     27 C26        21.9750  -14.5130   23.6410 C.ar      1 ESH        -0.0545
     28 C25        21.0810  -14.7340   22.5960 C.ar      1 ESH        -0.0578
     29 C18        20.4070  -12.6960   19.7520 C.3       1 ESH        -0.0226
     30 C41        20.6950  -11.5250   20.6910 C.3       1 ESH        -0.0605
     31 C42        20.8590  -12.4130   18.3410 C.3       1 ESH        -0.0605
     32 CL30       22.6480  -13.8830   26.2230 Cl        1 ESH        -0.0771
     33 H1         11.7844   -8.9440   24.3129 H         1 ESH         0.3180
     34 H2         10.4422   -9.7385   25.1789 H         1 ESH         0.3180
     35 H3         10.8718  -12.8751   23.6470 H         1 ESH         0.3180
     36 H4          9.9347  -11.9059   24.8155 H         1 ESH         0.3180
     37 H5         13.2716   -9.0096   23.1307 H         1 ESH         0.0599
     38 H6         15.0312   -9.1505   21.4395 H         1 ESH         0.0559
     39 H7         13.9757  -13.2351   20.7243 H         1 ESH         0.0559
     40 H8         12.1717  -13.0615   22.3649 H         1 ESH         0.0599
     41 H9         15.8008  -10.3264   19.4810 H         1 ESH         0.1046
     42 H10        15.4291  -13.2492   19.4166 H         1 ESH         0.2056
     43 H11        13.9996  -11.1946   18.2862 H         1 ESH         0.0815
     44 H12        13.9490  -12.9214   17.7940 H         1 ESH         0.0815
     45 H13        14.9668  -10.7402   16.2710 H         1 ESH         0.0319
     46 H14        15.1567  -12.4891   15.9078 H         1 ESH         0.0319
     47 H15        17.1173  -10.5675   17.1632 H         1 ESH         0.0322
     48 H16        17.4272  -12.0392   16.1808 H         1 ESH         0.0322
     49 H17        17.1576  -13.4746   17.9701 H         1 ESH         0.0857
     50 H18        18.5651  -11.1840   18.8945 H         1 ESH         0.0409
     51 H19        18.8333  -14.0122   19.0746 H         1 ESH         0.0569
     52 H20        17.6061  -10.6416   20.9590 H         1 ESH         0.0623
     53 H21        19.1301  -15.4898   20.9193 H         1 ESH         0.0687
     54 H22        17.7672  -15.2012   22.0533 H         1 ESH         0.0687
     55 H23        18.2072  -14.1006   24.2282 H         1 ESH         0.0558
     56 H24        19.7733  -13.6832   26.0891 H         1 ESH         0.0606
     57 H25        23.0400  -14.6336   23.4790 H         1 ESH         0.0606
     58 H26        21.4506  -15.0202   21.6180 H         1 ESH         0.0558
     59 H27        20.9967  -13.5472   20.1232 H         1 ESH         0.0318
     60 H28        21.7643  -11.2714   20.6436 H         1 ESH         0.0233
     61 H29        20.4304  -11.8071   21.7208 H         1 ESH         0.0233
     62 H30        20.0976  -10.6537   20.3845 H         1 ESH         0.0233
     63 H31        20.6326  -13.2798   17.7027 H         1 ESH         0.0233
     64 H32        21.9429  -12.2255   18.3338 H         1 ESH         0.0233
     65 H33        20.3311  -11.5274   17.9575 H         1 ESH         0.0233
@<TRIPOS>BOND
     1    1    2 ar 
     2    2    3 ar 
     3    2    4 1  
     4    4    5 ar 
     5    4    9 ar 
     6    5    6 ar 
     7    6    7 ar 
     8    7    8 ar 
     9    7   10 1  
    10    8    9 ar 
    11   10   11 1  
    12   10   21 1  
    13   11   12 1  
    14   11   15 1  
    15   12   13 1  
    16   13   14 1  
    17   14   15 1  
    18   15   16 1  
    19   16   17 1  
    20   16   21 1  
    21   17   18 1  
    22   17   29 1  
    23   18   19 am 
    24   18   22 1  
    25   19   20 2  
    26   19   21 1  
    27   22   23 1  
    28   23   24 ar 
    29   23   28 ar 
    30   24   25 ar 
    31   25   26 ar 
    32   26   27 ar 
    33   26   32 1  
    34   27   28 ar 
    35   29   30 1  
    36   29   31 1  
    37    1   33 1  
    38    1   34 1  
    39    3   35 1  
    40    3   36 1  
    41    5   37 1  
    42    6   38 1  
    43    8   39 1  
    44    9   40 1  
    45   10   41 1  
    46   11   42 1  
    47   12   43 1  
    48   12   44 1  
    49   13   45 1  
    50   13   46 1  
    51   14   47 1  
    52   14   48 1  
    53   15   49 1  
    54   16   50 1  
    55   17   51 1  
    56   21   52 1  
    57   22   53 1  
    58   22   54 1  
    59   24   55 1  
    60   25   56 1  
    61   27   57 1  
    62   28   58 1  
    63   29   59 1  
    64   30   60 1  
    65   30   61 1  
    66   30   62 1  
    67   31   63 1  
    68   31   64 1  
    69   31   65 1  
@<TRIPOS>SUBSTRUCTURE
     1 ESH         1

