### 
### Created by X-TOOL on Mon Sep 10 21:12:53 2018
### 

@<TRIPOS>MOLECULE
2cf9_ligand
   69    73     1     0     0
SMALL
GAST_HUCK


@<TRIPOS>ATOM
      1 N1         10.5790  -12.1500   24.1350 N.pl3     1 348        -0.2729
      2 C3         11.3620  -11.0830   23.9360 C.cat     1 348         0.2318
      3 N2         11.1250   -9.9770   24.6150 N.pl3     1 348        -0.2729
      4 C4         12.4910  -11.1410   22.9380 C.ar      1 348         0.0188
      5 C9         12.7220  -12.3240   22.2230 C.ar      1 348        -0.0632
      6 C8         13.7750  -12.3820   21.3020 C.ar      1 348        -0.0549
      7 C7         14.6080  -11.2840   21.0810 C.ar      1 348         0.0071
      8 C6         14.3670  -10.1020   21.7950 C.ar      1 348        -0.0549
      9 C5         13.3120  -10.0380   22.7160 C.ar      1 348        -0.0632
     10 C10        15.7330  -11.3330   20.0920 C.3       1 348         0.0334
     11 N11        15.5650  -12.3140   18.9750 N.4       1 348         0.2536
     12 C12        14.6770  -11.7870   17.9140 C.3       1 348        -0.0296
     13 C13        15.4920  -11.7650   16.6130 C.3       1 348        -0.0074
     14 C14        16.9550  -11.8290   17.0430 C.3       1 348        -0.0043
     15 C15        16.9100  -12.5340   18.3950 C.3       1 348        -0.0111
     16 C16        17.9300  -12.0660   19.4320 C.3       1 348         0.0523
     17 C17        18.8760  -13.2080   19.8450 C.3       1 348         0.0599
     18 N19        18.2860  -13.6200   21.1420 N.am      1 348        -0.2591
     19 C20        17.3080  -12.8160   21.5770 C.2       1 348         0.1915
     20 O21        16.6680  -13.0300   22.5990 O.2       1 348        -0.3960
     21 C22        17.1340  -11.6350   20.6620 C.3       1 348         0.1113
     22 C23        18.7650  -14.8600   21.7930 C.3       1 348         0.0629
     23 C24        19.6430  -14.5080   22.9820 C.ar      1 348        -0.0315
     24 C32        21.0250  -14.3920   22.8230 C.ar      1 348        -0.0668
     25 C31        21.8500  -14.0390   23.8980 C.ar      1 348        -0.0395
     26 C30        21.2810  -13.7970   25.1490 C.ar      1 348         0.0837
     27 O29        22.0800  -13.4510   26.2110 O.3       1 348        -0.3257
     28 C28        21.6130  -12.5490   27.2220 C.3       1 348         0.0579
     29 C26        19.8990  -13.9220   25.3160 C.ar      1 348        -0.0395
     30 C25        19.0790  -14.2710   24.2430 C.ar      1 348        -0.0668
     31 C18        20.3550  -12.7350   19.9340 C.3       1 348        -0.0226
     32 C41        21.0120  -12.4660   18.5790 C.3       1 348        -0.0605
     33 C42        20.6080  -11.5310   20.8420 C.3       1 348        -0.0605
     34 H1         10.7519  -13.0204   23.6121 H         1 348         0.3180
     35 H2          9.8035  -12.1008   24.8110 H         1 348         0.3180
     36 H3         11.7192   -9.1478   24.4724 H         1 348         0.3180
     37 H4         10.3458   -9.9427   25.2877 H         1 348         0.3180
     38 H5         12.0889  -13.1894   22.3821 H         1 348         0.0599
     39 H6         13.9469  -13.2985   20.7492 H         1 348         0.0559
     40 H7         14.9980   -9.2353   21.6346 H         1 348         0.0559
     41 H8         13.1330   -9.1188   23.2620 H         1 348         0.0599
     42 H9         15.7703  -10.3278   19.6469 H         1 348         0.1046
     43 H10        15.1882  -13.1782   19.3315 H         1 348         0.2056
     44 H11        14.3465  -10.7694   18.1694 H         1 348         0.0815
     45 H12        13.7990  -12.4394   17.7982 H         1 348         0.0815
     46 H13        15.2967  -10.8384   16.0533 H         1 348         0.0319
     47 H14        15.2379  -12.6325   15.9862 H         1 348         0.0319
     48 H15        17.3782  -10.8186   17.1426 H         1 348         0.0322
     49 H16        17.5504  -12.4063   16.3204 H         1 348         0.0322
     50 H17        17.0688  -13.6086   18.2219 H         1 348         0.0857
     51 H18        18.5154  -11.2246   19.0329 H         1 348         0.0409
     52 H19        18.8240  -14.0367   19.1235 H         1 348         0.0569
     53 H20        17.5380  -10.7311   21.1412 H         1 348         0.0623
     54 H21        19.3474  -15.4507   21.0706 H         1 348         0.0664
     55 H22        17.9022  -15.4490   22.1374 H         1 348         0.0664
     56 H23        21.4670  -14.5783   21.8509 H         1 348         0.0531
     57 H24        22.9218  -13.9544   23.7595 H         1 348         0.0525
     58 H25        22.4000  -12.4052   27.9769 H         1 348         0.0575
     59 H26        20.7167  -12.9686   27.7021 H         1 348         0.0575
     60 H27        21.3640  -11.5809   26.7630 H         1 348         0.0575
     61 H28        19.4592  -13.7456   26.2910 H         1 348         0.0525
     62 H29        18.0078  -14.3587   24.3841 H         1 348         0.0531
     63 H30        20.8996  -13.5787   20.3830 H         1 348         0.0318
     64 H31        22.0504  -12.1378   18.7338 H         1 348         0.0233
     65 H32        20.4537  -11.6792   18.0505 H         1 348         0.0233
     66 H33        21.0044  -13.3875   17.9784 H         1 348         0.0233
     67 H34        20.1419  -11.7070   21.8227 H         1 348         0.0233
     68 H35        20.1728  -10.6297   20.3857 H         1 348         0.0233
     69 H36        21.6913  -11.3902   20.9710 H         1 348         0.0233
@<TRIPOS>BOND
     1    1    2 ar 
     2    2    3 ar 
     3    2    4 1  
     4    4    5 ar 
     5    4    9 ar 
     6    5    6 ar 
     7    6    7 ar 
     8    7    8 ar 
     9    7   10 1  
    10    8    9 ar 
    11   10   11 1  
    12   10   21 1  
    13   11   12 1  
    14   11   15 1  
    15   12   13 1  
    16   13   14 1  
    17   14   15 1  
    18   15   16 1  
    19   16   17 1  
    20   16   21 1  
    21   17   18 1  
    22   17   31 1  
    23   18   19 am 
    24   18   22 1  
    25   19   20 2  
    26   19   21 1  
    27   22   23 1  
    28   23   24 ar 
    29   23   30 ar 
    30   24   25 ar 
    31   25   26 ar 
    32   26   27 1  
    33   26   29 ar 
    34   27   28 1  
    35   29   30 ar 
    36   31   32 1  
    37   31   33 1  
    38    1   34 1  
    39    1   35 1  
    40    3   36 1  
    41    3   37 1  
    42    5   38 1  
    43    6   39 1  
    44    8   40 1  
    45    9   41 1  
    46   10   42 1  
    47   11   43 1  
    48   12   44 1  
    49   12   45 1  
    50   13   46 1  
    51   13   47 1  
    52   14   48 1  
    53   14   49 1  
    54   15   50 1  
    55   16   51 1  
    56   17   52 1  
    57   21   53 1  
    58   22   54 1  
    59   22   55 1  
    60   24   56 1  
    61   25   57 1  
    62   28   58 1  
    63   28   59 1  
    64   28   60 1  
    65   29   61 1  
    66   30   62 1  
    67   31   63 1  
    68   32   64 1  
    69   32   65 1  
    70   32   66 1  
    71   33   67 1  
    72   33   68 1  
    73   33   69 1  
@<TRIPOS>SUBSTRUCTURE
     1 348         1

