### 
### Created by X-TOOL on Mon Sep 10 21:12:53 2018
### 

@<TRIPOS>MOLECULE
2cgf_ligand
   42    43     1     0     0
SMALL
GAST_HUCK


@<TRIPOS>ATOM
      1 C1        -18.2190   34.3800   -6.0990 C.2       1 P2N         0.2450
      2 C2        -18.1900   33.4980   -4.8780 C.ar      1 P2N         0.0836
      3 C3        -17.2660   32.4460   -4.8280 C.ar      1 P2N         0.0971
      4 C4        -17.2280   31.5870   -3.7330 C.ar      1 P2N        -0.0045
      5 C5        -18.1340   31.7990   -2.7030 C.ar      1 P2N         0.0932
      6 C6        -19.0290   32.8350   -2.7570 C.ar      1 P2N         0.0655
      7 C7        -19.0900   33.6870   -3.8500 C.ar      1 P2N        -0.0054
      8 C8        -20.1050   34.8210   -3.8800 C.3       1 P2N         0.0540
      9 C9        -21.5320   34.4120   -4.3000 C.2       1 P2N         0.1171
     10 C10       -21.9440   32.9920   -4.7090 C.3       1 P2N         0.0233
     11 C11       -23.3330   32.8690   -5.3490 C.3       1 P2N        -0.0354
     12 C12       -23.4590   31.7980   -6.4340 C.3       1 P2N        -0.0443
     13 C13       -22.9590   32.1430   -7.8560 C.3       1 P2N        -0.0363
     14 C14       -22.4020   33.5330   -8.1750 C.2       1 P2N        -0.0986
     15 C15       -21.1360   33.5520   -8.5580 C.2       1 P2N        -0.0962
     16 C16       -20.2980   34.7510   -8.9350 C.3       1 P2N        -0.0086
     17 C17       -19.6770   35.5220   -7.7640 C.3       1 P2N         0.0814
     18 O1        -19.5220   34.7070   -6.5990 O.3       1 P2N        -0.2800
     19 O2        -17.2250   34.7300   -6.7120 O.2       1 P2N        -0.3725
     20 O3        -16.3960   32.2760   -5.8640 O.3       1 P2N        -0.3313
     21 O4        -18.1560   30.9810   -1.6260 O.3       1 P2N        -0.3330
     22 CL1       -20.1290   33.0530   -1.3780 Cl        1 P2N        -0.0932
     23 O5        -22.3390   35.3080   -4.2800 O.2       1 P2N        -0.3883
     24 H1        -16.5110   30.7754   -3.6861 H         1 P2N         0.0425
     25 H2        -19.7458   35.5810   -4.5895 H         1 P2N         0.0663
     26 H3        -20.1586   35.2570   -2.8715 H         1 P2N         0.0663
     27 H4        -21.9284   32.3612   -3.8080 H         1 P2N         0.0495
     28 H5        -21.2032   32.6183   -5.4312 H         1 P2N         0.0495
     29 H6        -23.5875   33.8401   -5.7986 H         1 P2N         0.0292
     30 H7        -24.0546   32.6331   -4.5530 H         1 P2N         0.0292
     31 H8        -24.5250   31.5392   -6.5160 H         1 P2N         0.0286
     32 H9        -22.8933   30.9185   -6.0928 H         1 P2N         0.0286
     33 H10       -23.8092   31.9823   -8.5352 H         1 P2N         0.0388
     34 H11       -22.1608   31.4236   -8.0911 H         1 P2N         0.0388
     35 H12       -23.0027   34.4376   -8.0928 H         1 P2N         0.0450
     36 H13       -20.6370   32.5853   -8.6076 H         1 P2N         0.0451
     37 H14       -20.9377   35.4474   -9.4970 H         1 P2N         0.0414
     38 H15       -19.4796   34.4017   -9.5817 H         1 P2N         0.0414
     39 H16       -20.3279   36.3733   -7.5161 H         1 P2N         0.0631
     40 H17       -18.6879   35.8936   -8.0699 H         1 P2N         0.0631
     41 H18       -16.5559   32.9415   -6.5229 H         1 P2N         0.2508
     42 H19       -17.4868   30.3137   -1.7228 H         1 P2N         0.2502
@<TRIPOS>BOND
     1    1    2 1  
     2    1   18 1  
     3    1   19 2  
     4    2    3 ar 
     5    2    7 ar 
     6    3    4 ar 
     7    3   20 1  
     8    4    5 ar 
     9    5    6 ar 
    10    5   21 1  
    11    6    7 ar 
    12    6   22 1  
    13    7    8 1  
    14    8    9 1  
    15    9   10 1  
    16    9   23 2  
    17   10   11 1  
    18   11   12 1  
    19   12   13 1  
    20   13   14 1  
    21   14   15 2  
    22   15   16 1  
    23   16   17 1  
    24   17   18 1  
    25    4   24 1  
    26    8   25 1  
    27    8   26 1  
    28   10   27 1  
    29   10   28 1  
    30   11   29 1  
    31   11   30 1  
    32   12   31 1  
    33   12   32 1  
    34   13   33 1  
    35   13   34 1  
    36   14   35 1  
    37   15   36 1  
    38   16   37 1  
    39   16   38 1  
    40   17   39 1  
    41   17   40 1  
    42   20   41 1  
    43   21   42 1  
@<TRIPOS>SUBSTRUCTURE
     1 P2N         1

