### 
### Created by X-TOOL on Mon Sep 10 21:12:45 2018
### 

@<TRIPOS>MOLECULE
2cgr_ligand
   49    51     1     0     0
SMALL
GAST_HUCK


@<TRIPOS>ATOM
      1 C15        -9.2360   40.6660   17.3360 C.cat     1 GAS         0.1829
      2 N13        -9.5480   41.8890   17.7320 N.pl3     1 GAS        -0.3214
      3 C18        -8.7980   42.6710   18.7040 C.3       1 GAS         0.0722
      4 C19        -9.5590   43.6100   19.6140 C.2       1 GAS         0.0568
      5 O29        -8.9230   44.4930   20.2310 O.co2     1 GAS        -0.5668
      6 O39       -10.8020   43.6590   19.4680 O.co2     1 GAS        -0.5668
      7 N15       -10.1870   39.7640   17.1580 N.pl3     1 GAS        -0.3094
      8 C12       -11.5100   39.7830   17.7770 C.3       1 GAS         0.0977
      9 C23       -12.4370   40.6120   17.1420 C.ar      1 GAS        -0.0069
     10 C13       -12.7060   40.4490   15.7790 C.ar      1 GAS        -0.0561
     11 C63       -13.4270   41.4020   15.1020 C.ar      1 GAS        -0.0681
     12 C53       -13.8940   42.5270   15.7650 C.ar      1 GAS        -0.0685
     13 C43       -13.6540   42.7010   17.1140 C.ar      1 GAS        -0.0681
     14 C33       -12.9320   41.7480   17.8050 C.ar      1 GAS        -0.0561
     15 C61       -11.9820   38.5000   18.0620 C.ar      1 GAS        -0.0069
     16 C11       -13.2130   38.0430   17.6180 C.ar      1 GAS        -0.0561
     17 C21       -13.5670   36.7070   17.7870 C.ar      1 GAS        -0.0681
     18 C31       -12.6920   35.8270   18.3990 C.ar      1 GAS        -0.0685
     19 C41       -11.4720   36.2840   18.8470 C.ar      1 GAS        -0.0681
     20 C51       -11.1260   37.6090   18.6800 C.ar      1 GAS        -0.0561
     21 N16        -8.1020   40.4520   16.7530 N.pl3     1 GAS        -0.2287
     22 C46        -7.2430   39.2550   16.5650 C.ar      1 GAS         0.1771
     23 C36        -7.2560   38.2220   17.4790 C.ar      1 GAS         0.0622
     24 C26        -6.4310   37.1250   17.2950 C.ar      1 GAS         0.0418
     25 C16        -5.5980   37.0630   16.1940 C.ar      1 GAS         0.1639
     26 C17        -4.6970   35.8720   15.9680 C.1       1 GAS         0.1640
     27 N17        -4.0060   34.9580   15.8000 N.1       1 GAS        -0.2787
     28 C66        -5.5960   38.0830   15.2910 C.ar      1 GAS         0.0418
     29 C56        -6.4200   39.1790   15.4720 C.ar      1 GAS         0.0622
     30 H1        -10.3872   42.3217   17.3204 H         1 GAS         0.1728
     31 H2         -8.0731   43.2788   18.1426 H         1 GAS         0.0689
     32 H3         -8.2596   41.9598   19.3477 H         1 GAS         0.0689
     33 H4         -9.9758   38.9781   16.5266 H         1 GAS         0.1761
     34 H5        -11.3535   40.2503   18.7604 H         1 GAS         0.0880
     35 H6        -12.3453   39.5702   15.2569 H         1 GAS         0.0561
     36 H7        -13.6318   41.2743   14.0452 H         1 GAS         0.0600
     37 H8        -14.4534   43.2778   15.2187 H         1 GAS         0.0561
     38 H9        -14.0296   43.5792   17.6266 H         1 GAS         0.0600
     39 H10       -12.7459   41.8769   18.8651 H         1 GAS         0.0561
     40 H11       -13.9023   38.7279   17.1376 H         1 GAS         0.0561
     41 H12       -14.5311   36.3552   17.4380 H         1 GAS         0.0600
     42 H13       -12.9645   34.7854   18.5251 H         1 GAS         0.0561
     43 H14       -10.7830   35.6016   19.3314 H         1 GAS         0.0600
     44 H15       -10.1648   37.9574   19.0403 H         1 GAS         0.0561
     45 H16        -7.7063   41.3003   16.3233 H         1 GAS         0.2538
     46 H17        -7.9117   38.2688   18.3409 H         1 GAS         0.1017
     47 H18        -6.4386   36.3146   18.0149 H         1 GAS         0.0941
     48 H19        -4.9449   38.0354   14.4257 H         1 GAS         0.0941
     49 H20        -6.4147   39.9828   14.7447 H         1 GAS         0.1017
@<TRIPOS>BOND
     1    1    2 ar 
     2    1    7 ar 
     3    1   21 ar 
     4    2    3 1  
     5    3    4 1  
     6    4    5 ar 
     7    4    6 ar 
     8    7    8 1  
     9    8    9 1  
    10    8   15 1  
    11    9   10 ar 
    12    9   14 ar 
    13   10   11 ar 
    14   11   12 ar 
    15   12   13 ar 
    16   14   13 ar 
    17   15   16 ar 
    18   15   20 ar 
    19   16   17 ar 
    20   17   18 ar 
    21   18   19 ar 
    22   20   19 ar 
    23   21   22 1  
    24   22   23 ar 
    25   22   29 ar 
    26   23   24 ar 
    27   24   25 ar 
    28   25   26 1  
    29   25   28 ar 
    30   26   27 3  
    31   28   29 ar 
    32    2   30 1  
    33    3   31 1  
    34    3   32 1  
    35    7   33 1  
    36    8   34 1  
    37   10   35 1  
    38   11   36 1  
    39   12   37 1  
    40   13   38 1  
    41   14   39 1  
    42   16   40 1  
    43   17   41 1  
    44   18   42 1  
    45   19   43 1  
    46   20   44 1  
    47   21   45 1  
    48   23   46 1  
    49   24   47 1  
    50   28   48 1  
    51   29   49 1  
@<TRIPOS>SUBSTRUCTURE
     1 GAS         1

