### 
### Created by X-TOOL on Mon Sep 10 21:12:54 2018
### 

@<TRIPOS>MOLECULE
2cgu_ligand
   36    38     1     0     0
SMALL
GAST_HUCK


@<TRIPOS>ATOM
      1 O24        -3.3680   -1.9540   21.9200 O.co2     1 3A3        -0.5662
      2 C11        -3.3780   -3.1910   21.6220 C.2       1 3A3         0.0653
      3 O14        -4.4110   -3.9000   21.4150 O.co2     1 3A3        -0.5662
      4 C19        -2.0060   -3.8760   21.4890 C.3       1 3A3         0.1222
      5 O17        -1.0300   -2.8420   21.0860 O.3       1 3A3        -0.3054
      6 C15         0.0240   -3.3490   20.3630 C.ar      1 3A3         0.0900
      7 C10         1.2810   -2.7170   20.4040 C.ar      1 3A3        -0.0312
      8 C22        -0.1650   -4.5070   19.5810 C.ar      1 3A3        -0.0360
      9 C8          0.8690   -5.0540   18.8410 C.ar      1 3A3        -0.0696
     10 C4          2.1080   -4.4510   18.9040 C.ar      1 3A3        -0.0393
     11 C3          2.3180   -3.2910   19.6700 C.ar      1 3A3        -0.0153
     12 C1          3.6440   -2.9340   19.4740 C.2       1 3A3         0.0925
     13 N6          4.2350   -1.8370   19.9770 N.2       1 3A3        -0.1084
     14 O23         5.5570   -1.5710   19.6830 O.3       1 3A3        -0.2211
     15 C2          4.2430   -3.8460   18.6050 C.ar      1 3A3        -0.0153
     16 C9          5.5150   -3.9250   18.0640 C.ar      1 3A3        -0.0312
     17 C5          3.2800   -4.7880   18.2540 C.ar      1 3A3        -0.0393
     18 C7          3.5780   -5.8390   17.3750 C.ar      1 3A3        -0.0696
     19 C21         4.8720   -5.9330   16.8480 C.ar      1 3A3        -0.0360
     20 C16         5.8300   -4.9620   17.1920 C.ar      1 3A3         0.0900
     21 O18         7.1020   -4.9720   16.7000 O.3       1 3A3        -0.3054
     22 C20         7.3670   -5.9790   15.8070 C.3       1 3A3         0.1222
     23 C12         8.7820   -6.0440   15.1760 C.2       1 3A3         0.0653
     24 O25         9.6300   -5.1360   15.5110 O.co2     1 3A3        -0.5662
     25 O13         8.9700   -7.0130   14.3740 O.co2     1 3A3        -0.5662
     26 H1         -2.0532   -4.6659   20.7249 H         1 3A3         0.0784
     27 H2         -1.7107   -4.3156   22.4531 H         1 3A3         0.0784
     28 H3          1.4372   -1.8158   20.9858 H         1 3A3         0.0526
     29 H4         -1.1407   -4.9788   19.5589 H         1 3A3         0.0524
     30 H5          0.7092   -5.9335   18.2278 H         1 3A3         0.0580
     31 H6          5.8199   -0.7656   20.1127 H         1 3A3         0.3010
     32 H7          6.2621   -3.1821   18.3188 H         1 3A3         0.0526
     33 H8          2.8198   -6.5662   17.1080 H         1 3A3         0.0580
     34 H9          5.1331   -6.7466   16.1810 H         1 3A3         0.0524
     35 H10         6.6460   -5.8817   14.9820 H         1 3A3         0.0784
     36 H11         7.1990   -6.9318   16.3303 H         1 3A3         0.0784
@<TRIPOS>BOND
     1    1    2 ar 
     2    2    3 ar 
     3    2    4 1  
     4    4    5 1  
     5    5    6 1  
     6    6    7 ar 
     7    6    8 ar 
     8    7   11 ar 
     9    8    9 ar 
    10    9   10 ar 
    11   10   11 ar 
    12   10   17 1  
    13   11   12 1  
    14   12   13 2  
    15   12   15 1  
    16   13   14 1  
    17   15   16 ar 
    18   15   17 ar 
    19   16   20 ar 
    20   17   18 ar 
    21   18   19 ar 
    22   19   20 ar 
    23   20   21 1  
    24   21   22 1  
    25   22   23 1  
    26   23   24 ar 
    27   23   25 ar 
    28    4   26 1  
    29    4   27 1  
    30    7   28 1  
    31    8   29 1  
    32    9   30 1  
    33   14   31 1  
    34   16   32 1  
    35   18   33 1  
    36   19   34 1  
    37   22   35 1  
    38   22   36 1  
@<TRIPOS>SUBSTRUCTURE
     1 3A3         1

