### 
### Created by X-TOOL on Mon Sep 10 21:12:54 2018
### 

@<TRIPOS>MOLECULE
2cgv_ligand
   34    35     1     0     0
SMALL
GAST_HUCK


@<TRIPOS>ATOM
      1 C1          4.0520   -3.9790   19.2120 C.ar      1 3B3         0.0446
      2 C2          5.3520   -4.1850   18.7640 C.ar      1 3B3         0.0371
      3 C3          5.5700   -5.1520   17.7020 C.ar      1 3B3         0.0873
      4 N4          4.5730   -5.9000   17.1010 N.ar      1 3B3        -0.1909
      5 C4A         3.2670   -5.7210   17.5170 C.ar      1 3B3         0.2305
      6 C4B         2.1900   -6.3990   16.9340 C.ar      1 3B3         0.2490
      7 N5          2.4050   -7.2840   15.9450 N.pl3     1 3B3        -0.2167
      8 C6          3.7440   -7.5310   15.2580 C.3       1 3B3         0.1015
      9 C8A         0.8670   -6.2040   17.3500 C.ar      1 3B3         0.1277
     10 C9          0.6620   -5.2840   18.3780 C.ar      1 3B3         0.1126
     11 C10         1.7870   -4.6150   18.9340 C.ar      1 3B3         0.2246
     12 C1A         3.0490   -4.7740   18.5390 C.ar      1 3B3         0.1696
     13 CB          3.9250   -6.6630   13.8950 C.3       1 3B3         0.1248
     14 CA          5.3990   -6.0900   13.7580 C.3       1 3B3        -0.0058
     15 N           5.9690   -5.9010   12.4290 N.4       1 3B3         0.2204
     16 O           2.7980   -2.7170   20.3090 O.2       1 3B3        -0.4389
     17 OXT         0.2400   -3.6690   20.2270 O.2       1 3B3        -0.4389
     18 N1          1.6520   -3.6890   19.8610 N.2       1 3B3        -0.1159
     19 O16         3.2750   -5.3690   14.0480 O.3       1 3B3        -0.3834
     20 H1          3.8097   -3.2783   20.0028 H         1 3B3         0.1278
     21 H2          6.1820   -3.6378   19.1963 H         1 3B3         0.1044
     22 H3          6.5867   -5.2981   17.3555 H         1 3B3         0.1167
     23 H4          1.5996   -7.8407   15.6252 H         1 3B3         0.2643
     24 H5          3.8176   -8.5993   15.0062 H         1 3B3         0.0680
     25 H6          4.5512   -7.2621   15.9552 H         1 3B3         0.0680
     26 H7          0.0428   -6.7417   16.8953 H         1 3B3         0.1438
     27 H8         -0.3373   -5.0825   18.7467 H         1 3B3         0.1237
     28 H9          3.5892   -7.2338   13.0167 H         1 3B3         0.0678
     29 H10         6.0637   -6.7809   14.2972 H         1 3B3         0.0840
     30 H11         5.4096   -5.1085   14.2545 H         1 3B3         0.0840
     31 H12         6.9037   -5.5333   12.5135 H         1 3B3         0.1995
     32 H13         5.3990   -5.2533   11.9079 H         1 3B3         0.1995
     33 H14         5.9984   -6.7858   11.9470 H         1 3B3         0.1995
     34 H15         3.4423   -4.8388   13.2776 H         1 3B3         0.2102
@<TRIPOS>BOND
     1    1    2 ar 
     2    1   12 ar 
     3    2    3 ar 
     4    3    4 ar 
     5    4    5 ar 
     6    5    6 ar 
     7    5   12 ar 
     8    6    7 1  
     9    6    9 ar 
    10    7    8 1  
    11    8   13 1  
    12    9   10 ar 
    13   10   11 ar 
    14   11   12 ar 
    15   11   18 1  
    16   13   14 1  
    17   13   19 1  
    18   14   15 1  
    19   18   16 2  
    20   18   17 2  
    21    1   20 1  
    22    2   21 1  
    23    3   22 1  
    24    7   23 1  
    25    8   24 1  
    26    8   25 1  
    27    9   26 1  
    28   10   27 1  
    29   13   28 1  
    30   14   29 1  
    31   14   30 1  
    32   15   31 1  
    33   15   32 1  
    34   15   33 1  
    35   19   34 1  
@<TRIPOS>SUBSTRUCTURE
     1 3B3         1

