### 
### Created by X-TOOL on Mon Sep 10 21:12:54 2018
### 

@<TRIPOS>MOLECULE
2cgw_ligand
   31    33     1     0     0
SMALL
GAST_HUCK


@<TRIPOS>ATOM
      1 N16         6.5310   -2.4460   19.0170 N.pl3     1 3C3        -0.3277
      2 C8          5.3330   -2.8320   19.4920 C.2       1 3C3         0.1585
      3 N10         4.6110   -2.1360   20.3730 N.2       1 3C3        -0.0965
      4 O14         3.4240   -2.8870   20.6130 O.3       1 3C3        -0.0686
      5 N12         3.4930   -4.0720   19.8000 N.2       1 3C3        -0.0801
      6 C4          4.6640   -4.0160   19.1500 C.2       1 3C3         0.1738
      7 C1          5.1980   -4.8920   18.2190 C.2       1 3C3         0.1770
      8 N3          6.4380   -4.8340   17.7390 N.2       1 3C3        -0.2834
      9 N7          4.5970   -5.9070   17.5840 N.pl3     1 3C3        -0.1782
     10 C18         3.1820   -6.3240   17.7910 C.3       1 3C3         0.0733
     11 C19         2.9410   -7.7260   17.2180 C.3       1 3C3        -0.0263
     12 C20         1.4580   -7.9650   16.8980 C.3       1 3C3        -0.0627
     13 N5          5.3820   -6.4670   16.7980 N.2       1 3C3        -0.1901
     14 C2          6.5500   -5.8200   16.8530 C.2       1 3C3         0.1106
     15 C6          7.7140   -6.1070   16.1520 C.2       1 3C3         0.1364
     16 N13         8.8150   -5.3470   16.0940 N.2       1 3C3        -0.0948
     17 O15         9.7570   -6.0430   15.2880 O.3       1 3C3        -0.0756
     18 N11         9.1500   -7.2510   14.8760 N.2       1 3C3        -0.1004
     19 C9          7.9300   -7.2700   15.4030 C.2       1 3C3         0.1508
     20 N17         7.0720   -8.2780   15.2160 N.pl3     1 3C3        -0.3290
     21 H1          7.0303   -3.0373   18.3373 H         1 3C3         0.1700
     22 H2          6.9489   -1.5592   19.3330 H         1 3C3         0.1700
     23 H3          2.5169   -5.6082   17.2858 H         1 3C3         0.0635
     24 H4          2.9617   -6.3316   18.8687 H         1 3C3         0.0635
     25 H5          3.2710   -8.4732   17.9547 H         1 3C3         0.0290
     26 H6          3.5271   -7.8384   16.2940 H         1 3C3         0.0290
     27 H7          1.3296   -8.9787   16.4907 H         1 3C3         0.0231
     28 H8          1.1192   -7.2264   16.1566 H         1 3C3         0.0231
     29 H9          0.8631   -7.8612   17.8174 H         1 3C3         0.0231
     30 H10         7.3456   -9.0871   14.6404 H         1 3C3         0.1693
     31 H11         6.1373   -8.2455   15.6476 H         1 3C3         0.1693
@<TRIPOS>BOND
     1    1    2 1  
     2    2    3 2  
     3    2    6 1  
     4    3    4 1  
     5    4    5 1  
     6    5    6 2  
     7    6    7 1  
     8    7    8 2  
     9    7    9 1  
    10    8   14 1  
    11    9   10 1  
    12    9   13 1  
    13   10   11 1  
    14   11   12 1  
    15   13   14 2  
    16   14   15 1  
    17   15   16 2  
    18   15   19 1  
    19   16   17 1  
    20   17   18 1  
    21   18   19 2  
    22   19   20 1  
    23    1   21 1  
    24    1   22 1  
    25   10   23 1  
    26   10   24 1  
    27   11   25 1  
    28   11   26 1  
    29   12   27 1  
    30   12   28 1  
    31   12   29 1  
    32   20   30 1  
    33   20   31 1  
@<TRIPOS>SUBSTRUCTURE
     1 3C3         1

