### 
### Created by X-TOOL on Mon Sep 10 21:12:54 2018
### 

@<TRIPOS>MOLECULE
2cgx_ligand
   23    24     1     0     0
SMALL
GAST_HUCK


@<TRIPOS>ATOM
      1 N1          5.6220   -4.8390   18.0260 N.2       1 3D3        -0.2867
      2 C3          5.1840   -3.8030   18.7490 C.ar      1 3D3         0.0902
      3 N7          5.7790   -2.6630   19.2010 N.ar      1 3D3        -0.2993
      4 C9          5.0290   -1.7970   19.8790 C.ar      1 3D3         0.0475
      5 N8          3.7210   -2.0090   20.1620 N.ar      1 3D3        -0.2723
      6 C6          3.1060   -3.1320   19.7230 C.ar      1 3D3         0.1482
      7 N13         1.8070   -3.3790   19.9350 N.pl3     1 3D3        -0.3164
      8 C2          3.8370   -4.0540   18.9920 C.ar      1 3D3         0.1489
      9 N4          3.4840   -5.2160   18.4510 N.pl3     1 3D3        -0.2278
     10 C5          4.5900   -5.6630   17.8580 C.2       1 3D3         0.1953
     11 S10         4.6800   -7.1740   17.0120 S.3       1 3D3        -0.0102
     12 C14         6.2710   -7.0330   16.0730 C.3       1 3D3         0.1064
     13 C11         6.8200   -8.3470   15.4180 C.2       1 3D3         0.1868
     14 O12         7.8450   -8.3150   14.7210 O.2       1 3D3        -0.3961
     15 N15         6.1390   -9.4860   15.6480 N.am      1 3D3        -0.3000
     16 H1          5.4875   -0.8765   20.2217 H         1 3D3         0.0965
     17 H2          1.3837   -4.2487   19.5810 H         1 3D3         0.1798
     18 H3          1.2312   -2.6993   20.4521 H         1 3D3         0.1798
     19 H4          2.5600   -5.6701   18.4832 H         1 3D3         0.2357
     20 H5          7.0375   -6.6622   16.7694 H         1 3D3         0.0653
     21 H6          6.1196   -6.2978   15.2690 H         1 3D3         0.0653
     22 H7          6.4550  -10.3468   15.2490 H         1 3D3         0.1815
     23 H8          5.3173   -9.4709   16.2178 H         1 3D3         0.1815
@<TRIPOS>BOND
     1    1    2 1  
     2    1   10 2  
     3    2    3 ar 
     4    2    8 ar 
     5    3    4 ar 
     6    4    5 ar 
     7    5    6 ar 
     8    6    7 1  
     9    6    8 ar 
    10    8    9 1  
    11    9   10 1  
    12   10   11 1  
    13   11   12 1  
    14   12   13 1  
    15   13   14 2  
    16   13   15 am 
    17    4   16 1  
    18    7   17 1  
    19    7   18 1  
    20    9   19 1  
    21   12   20 1  
    22   12   21 1  
    23   15   22 1  
    24   15   23 1  
@<TRIPOS>SUBSTRUCTURE
     1 3D3         1

