### 
### Created by X-TOOL on Mon Sep 10 21:12:54 2018
### 

@<TRIPOS>MOLECULE
2chm_ligand
   63    66     1     0     0
SMALL
GAST_HUCK


@<TRIPOS>ATOM
      1 C1         19.9440   -6.1620   14.2150 C.2       1 3P4         0.0398
      2 C2         20.2460   -6.4990   15.5140 C.2       1 3P4         0.0859
      3 C3         20.6980   -7.1660   13.3930 C.2       1 3P4         0.1150
      4 N1         19.1670   -5.1940   13.5830 N.2       1 3P4        -0.3271
      5 N2         21.0900   -7.5880   15.4450 N.pl3     1 3P4        -0.1878
      6 C4         19.7310   -5.7850   16.7620 C.3       1 3P4         0.0068
      7 N3         21.3230   -7.9350   14.2150 N.2       1 3P4        -0.2055
      8 C5         20.5630   -7.0550   11.9310 C.2       1 3P4         0.2374
      9 C6         19.0940   -5.1590   12.2580 C.2       1 3P4         0.1466
     10 C7         21.6770   -8.3000   16.6060 C.3       1 3P4         0.1603
     11 C8         18.3220   -6.2620   17.1350 C.3       1 3P4        -0.0521
     12 N4         19.7660   -6.0570   11.4390 N.am      1 3P4        -0.2097
     13 O1         21.1320   -7.8210   11.1930 O.2       1 3P4        -0.3828
     14 C9         18.2660   -4.1740   11.5770 C.ar      1 3P4         0.0984
     15 C10        20.7410   -9.4880   17.0400 C.3       1 3P4         0.0066
     16 C11        22.6090   -9.4810   16.1640 C.3       1 3P4         0.0066
     17 C12        18.7590   -3.3160   10.5380 C.ar      1 3P4         0.1905
     18 C13        16.8980   -4.0660   11.9480 C.ar      1 3P4        -0.0146
     19 N5         21.5600  -10.5160   16.3310 N.4       1 3P4         0.2399
     20 N6         17.9030   -2.4240    9.9370 N.ar      1 3P4        -0.2603
     21 O2         20.0470   -3.3970   10.1710 O.3       1 3P4        -0.2896
     22 C14        16.0610   -3.1370   11.3030 C.ar      1 3P4         0.0525
     23 C15        21.9860  -11.6670   17.1690 C.3       1 3P4        -0.0346
     24 C16        16.5880   -2.3110   10.2810 C.ar      1 3P4         0.0224
     25 C17        20.5600   -2.6740    9.0200 C.3       1 3P4         0.0774
     26 C20        14.4120   -3.0400   11.7710 C.2       1 3P4         0.1304
     27 C18        20.8800  -12.7270   17.3200 C.3       1 3P4        -0.0245
     28 C19        22.0320   -2.9600    8.9220 C.3       1 3P4        -0.0242
     29 O3         13.6860   -2.5770   10.6770 O.2       1 3P4        -0.3807
     30 C21        22.8570   -2.5320    9.9750 C.3       1 3P4        -0.0534
     31 C22        24.2280   -2.7620    9.9320 C.3       1 3P4        -0.0652
     32 C23        13.7440   -3.3610   13.0240 C.3       1 3P4         0.0104
     33 H1         19.7036   -4.7023   16.5698 H         1 3P4         0.0464
     34 H2         20.4128   -5.9916   17.6001 H         1 3P4         0.0464
     35 H3         22.0469   -7.6127   17.3811 H         1 3P4         0.0784
     36 H4         17.9812   -5.7299   18.0354 H         1 3P4         0.0255
     37 H5         18.3417   -7.3437   17.3337 H         1 3P4         0.0255
     38 H6         17.6325   -6.0544   16.3035 H         1 3P4         0.0255
     39 H7         19.6632   -5.9708   10.4480 H         1 3P4         0.2408
     40 H8         19.7173   -9.4009   16.6470 H         1 3P4         0.0849
     41 H9         20.7042   -9.6370   18.1292 H         1 3P4         0.0849
     42 H10        23.4698   -9.6261   16.8333 H         1 3P4         0.0849
     43 H11        22.9627   -9.3876   15.1266 H         1 3P4         0.0849
     44 H12        16.4985   -4.7013   12.7302 H         1 3P4         0.0800
     45 H13        21.1564  -10.8537   15.4713 H         1 3P4         0.2036
     46 H14        22.2568  -11.2949   18.1681 H         1 3P4         0.0812
     47 H15        22.8641  -12.1373   16.7024 H         1 3P4         0.0812
     48 H16        15.9511   -1.5941    9.7756 H         1 3P4         0.0871
     49 H17        20.3958   -1.5943    9.1517 H         1 3P4         0.0626
     50 H18        20.0504   -3.0136    8.1062 H         1 3P4         0.0626
     51 H19        21.2470  -13.5531   17.9468 H         1 3P4         0.0281
     52 H20        20.6050  -13.1139   16.3277 H         1 3P4         0.0281
     53 H21        19.9977  -12.2715   17.7934 H         1 3P4         0.0281
     54 H22        22.3984   -2.4794    8.0029 H         1 3P4         0.0292
     55 H23        22.1487   -4.0505    8.8372 H         1 3P4         0.0292
     56 H24        22.4834   -3.0200   10.8873 H         1 3P4         0.0263
     57 H25        22.7219   -1.4436   10.0597 H         1 3P4         0.0263
     58 H26        24.6966   -2.3559   10.8406 H         1 3P4         0.0230
     59 H27        24.6551   -2.2678    9.0470 H         1 3P4         0.0230
     60 H28        24.4167   -3.8442    9.8745 H         1 3P4         0.0230
     61 H29        12.6667   -3.1611   12.9268 H         1 3P4         0.0449
     62 H30        14.1607   -2.7406   13.8311 H         1 3P4         0.0449
     63 H31        13.8998   -4.4238   13.2608 H         1 3P4         0.0449
@<TRIPOS>BOND
     1    1    2 2  
     2    1    3 1  
     3    1    4 1  
     4    2    5 1  
     5    2    6 1  
     6    3    7 2  
     7    3    8 1  
     8    4    9 2  
     9    5    7 1  
    10    5   10 1  
    11    6   11 1  
    12    8   12 am 
    13    8   13 2  
    14    9   12 1  
    15    9   14 1  
    16   10   15 1  
    17   10   16 1  
    18   14   17 ar 
    19   14   18 ar 
    20   15   19 1  
    21   16   19 1  
    22   17   20 ar 
    23   17   21 1  
    24   18   22 ar 
    25   19   23 1  
    26   20   24 ar 
    27   21   25 1  
    28   22   24 ar 
    29   22   26 1  
    30   23   27 1  
    31   25   28 1  
    32   26   29 2  
    33   26   32 1  
    34   28   30 1  
    35   30   31 1  
    36    6   33 1  
    37    6   34 1  
    38   10   35 1  
    39   11   36 1  
    40   11   37 1  
    41   11   38 1  
    42   12   39 1  
    43   15   40 1  
    44   15   41 1  
    45   16   42 1  
    46   16   43 1  
    47   18   44 1  
    48   19   45 1  
    49   23   46 1  
    50   23   47 1  
    51   24   48 1  
    52   25   49 1  
    53   25   50 1  
    54   27   51 1  
    55   27   52 1  
    56   27   53 1  
    57   28   54 1  
    58   28   55 1  
    59   30   56 1  
    60   30   57 1  
    61   31   58 1  
    62   31   59 1  
    63   31   60 1  
    64   32   61 1  
    65   32   62 1  
    66   32   63 1  
@<TRIPOS>SUBSTRUCTURE
     1 3P4         1

