### 
### Created by X-TOOL on Fri Nov 18 11:56:21 2016
### 

@<TRIPOS>MOLECULE
2cht_ligand
   26    27     1     0     0
SMALL
GAST_HUCK


@<TRIPOS>ATOM
      1 C'         32.3340   30.6110   44.4010 C.2       1 BAR         0.0158
      2 C1         31.9290   31.7710   44.9650 C.2       1 BAR        -0.0747
      3 C2         31.0240   31.8830   46.1710 C.3       1 BAR        -0.0155
      4 C3         31.1220   30.5570   46.9150 C.3       1 BAR        -0.0484
      5 C4         31.7890   29.2790   44.8410 C.3       1 BAR         0.1561
      6 C5         30.7280   29.4460   45.9320 C.3       1 BAR         0.1028
      7 C6         29.5430   32.1050   45.8370 C.3       1 BAR        -0.0440
      8 C7         28.8770   30.9100   45.1310 C.3       1 BAR         0.1008
      9 C8         31.4330   33.0760   47.0430 C.2       1 BAR        -0.0056
     10 C9         28.8840   31.0500   43.6150 C.2       1 BAR         0.0624
     11 O1         32.8700   28.5500   45.3670 O.3       1 BAR        -0.3559
     12 O2         29.0480   30.0550   42.9280 O.co2     1 BAR        -0.5664
     13 O3         28.7280   32.1610   43.1250 O.co2     1 BAR        -0.5664
     14 O4         31.6610   34.1670   46.5250 O.co2     1 BAR        -0.5698
     15 O5         31.5290   32.9290   48.2460 O.co2     1 BAR        -0.5698
     16 O'         29.3800   29.6340   45.5020 O.3       1 BAR        -0.3538
     17 H1         33.0764   30.6414   43.6049 H         1 BAR         0.1560
     18 H2         32.2824   32.6977   44.5153 H         1 BAR         0.0480
     19 H3         30.4366   30.5576   47.7754 H         1 BAR         0.0149
     20 H4         32.1521   30.3991   47.2669 H         1 BAR         0.0149
     21 H5         31.3520   28.7503   43.9810 H         1 BAR         0.1059
     22 H6         30.7331   28.5015   46.4958 H         1 BAR         0.0670
     23 H7         29.4640   32.9835   45.1797 H         1 BAR         0.0162
     24 H8         29.0017   32.2988   46.7748 H         1 BAR         0.0162
     25 H9         27.8231   30.9279   45.4456 H         1 BAR         0.0754
     26 H10        32.5656   27.6970   45.6537 H         1 BAR         0.2180
@<TRIPOS>BOND
     1    5    1 1  
     2    1    2 2  
     3    2    3 1  
     4    3    9 1  
     5    3    7 1  
     6    3    4 1  
     7    4    6 1  
     8    6   16 1  
     9    6    5 1  
    10    5   11 1  
    11   16    8 1  
    12    8   10 1  
    13    8    7 1  
    14   10   13 ar 
    15   10   12 ar 
    16    9   15 ar 
    17    9   14 ar 
    18    1   17 1  
    19    2   18 1  
    20    4   19 1  
    21    4   20 1  
    22    5   21 1  
    23    6   22 1  
    24    7   23 1  
    25    7   24 1  
    26    8   25 1  
    27   11   26 1  
@<TRIPOS>SUBSTRUCTURE
     1 BAR         1

