### 
### Created by X-TOOL on Mon Sep 10 21:12:55 2018
### 

@<TRIPOS>MOLECULE
2chw_ligand
   46    50     1     0     0
SMALL
GAST_HUCK


@<TRIPOS>ATOM
      1 CAU        50.8990   16.3190   31.0490 C.3       1 039         0.0573
      2 OAT        49.8180   16.4300   31.9910 O.3       1 039        -0.3238
      3 CAP        49.0900   17.5720   31.8950 C.ar      1 039         0.1240
      4 CAQ        49.4830   18.6530   31.1140 C.ar      1 039        -0.0408
      5 CAR        48.6960   19.8030   31.0690 C.ar      1 039        -0.0817
      6 CAJ        47.5060   19.8780   31.8010 C.ar      1 039        -0.0815
      7 CAI        47.1210   18.7960   32.5900 C.ar      1 039        -0.0375
      8 CAH        47.9120   17.6500   32.6170 C.ar      1 039         0.1402
      9 NAG        47.4980   16.5900   33.4170 N.am      1 039        -0.1338
     10 CAF        48.0760   16.4810   34.6750 C.2       1 039         0.2580
     11 OAB        48.9180   17.3100   34.9960 O.2       1 039        -0.3772
     12 CAE        47.6950   15.4550   35.5310 C.ar      1 039         0.0779
     13 CAD        48.2370   15.2870   36.8230 C.ar      1 039         0.0527
     14 CL         49.4490   16.3440   37.5170 Cl        1 039        -0.0673
     15 CAC        47.7970   14.2260   37.6120 C.ar      1 039        -0.0514
     16 CAK        46.8480   13.3370   37.1520 C.ar      1 039        -0.0660
     17 CAL        46.3170   13.5250   35.8880 C.ar      1 039        -0.0536
     18 CAM        46.7300   14.5650   35.0630 C.ar      1 039         0.0144
     19 NAN        46.1850   14.6820   33.8300 N.2       1 039        -0.3025
     20 CAO        46.5280   15.6630   32.9870 C.2       1 039         0.1756
     21 CAS        45.9320   15.7890   31.5640 C.3       1 039         0.1043
     22 S6         44.6330   14.5990   31.0330 S.3       1 039        -0.0467
     23 C6         45.2080   13.0480   30.3300 C.ar      1 039         0.1318
     24 C5         46.5170   12.6520   30.2720 C.ar      1 039         0.1484
     25 N7         47.6430   13.2240   30.6340 N.pl3     1 039        -0.2384
     26 C8         48.6300   12.3630   30.3220 C.2       1 039         0.1132
     27 N9         48.1340   11.2520   29.7580 N.2       1 039        -0.2819
     28 C4         46.8160   11.3990   29.7150 C.ar      1 039         0.1098
     29 N3         45.8470   10.5960   29.2640 N.ar      1 039        -0.2837
     30 C2         44.5940   11.0010   29.3190 C.ar      1 039         0.0603
     31 N1         44.2880   12.1810   29.8280 N.ar      1 039        -0.2692
     32 H1         51.4254   15.3659   31.2056 H         1 039         0.0574
     33 H2         51.6004   17.1536   31.1957 H         1 039         0.0574
     34 H3         50.4981   16.3525   30.0252 H         1 039         0.0574
     35 H4         50.4012   18.6017   30.5401 H         1 039         0.0508
     36 H5         49.0084   20.6453   30.4624 H         1 039         0.0496
     37 H6         46.8899   20.7687   31.7548 H         1 039         0.0496
     38 H7         46.2122   18.8458   33.1787 H         1 039         0.0515
     39 H8         48.2085   14.0968   38.6065 H         1 039         0.0560
     40 H9         46.5242   12.5066   37.7690 H         1 039         0.0626
     41 H10        45.5561   12.8407   35.5304 H         1 039         0.0557
     42 H11        46.7673   15.6921   30.8548 H         1 039         0.0708
     43 H12        45.4982   16.7967   31.4842 H         1 039         0.0708
     44 H13        47.7499   14.1505   31.0712 H         1 039         0.2384
     45 H14        49.6884   12.5443   30.5032 H         1 039         0.1415
     46 H15        43.8060   10.3589   28.9425 H         1 039         0.0999
@<TRIPOS>BOND
     1    1    2 1  
     2    2    3 1  
     3    3    4 ar 
     4    3    8 ar 
     5    4    5 ar 
     6    5    6 ar 
     7    6    7 ar 
     8    7    8 ar 
     9    8    9 1  
    10    9   10 am 
    11    9   20 1  
    12   10   11 2  
    13   10   12 1  
    14   12   13 ar 
    15   12   18 ar 
    16   13   14 1  
    17   13   15 ar 
    18   15   16 ar 
    19   16   17 ar 
    20   17   18 ar 
    21   18   19 1  
    22   19   20 2  
    23   20   21 1  
    24   21   22 1  
    25   22   23 1  
    26   23   24 ar 
    27   23   31 ar 
    28   24   25 1  
    29   24   28 ar 
    30   25   26 1  
    31   26   27 2  
    32   27   28 1  
    33   28   29 ar 
    34   29   30 ar 
    35   30   31 ar 
    36    1   32 1  
    37    1   33 1  
    38    1   34 1  
    39    4   35 1  
    40    5   36 1  
    41    6   37 1  
    42    7   38 1  
    43   15   39 1  
    44   16   40 1  
    45   17   41 1  
    46   21   42 1  
    47   21   43 1  
    48   25   44 1  
    49   26   45 1  
    50   30   46 1  
@<TRIPOS>SUBSTRUCTURE
     1 039         1

