### 
### Created by X-TOOL on Mon Sep 10 21:12:55 2018
### 

@<TRIPOS>MOLECULE
2chx_ligand
   41    44     1     0     0
SMALL
GAST_HUCK


@<TRIPOS>ATOM
      1 OAU        43.9370   13.1730   32.7120 O.2       1 090        -0.3636
      2 CAO        43.4190   12.3190   32.0050 C.2       1 090         0.2556
      3 CAP        42.0440   11.8030   32.3370 C.ar      1 090         0.0868
      4 CAQ        41.4530   10.8220   31.5430 C.ar      1 090         0.0321
      5 NAR        40.2450   10.3360   31.8800 N.ar      1 090        -0.2903
      6 CAX        39.5970   10.7580   32.9850 C.ar      1 090         0.0155
      7 CAW        40.1490   11.7060   33.8320 C.ar      1 090        -0.0283
      8 CAV        41.3890   12.2250   33.5040 C.ar      1 090        -0.0217
      9 NAN        44.1030   11.6770   31.0610 N.am      1 090        -0.1688
     10 CAM        45.3760   11.9880   30.7450 C.2       1 090         0.2904
     11 NAL        46.0670   12.9780   31.3930 N.2       1 090        -0.2818
     12 CAK        47.3740   13.2620   31.1040 C.ar      1 090         0.0376
     13 CAJ        48.0250   14.2850   31.7910 C.ar      1 090         0.1278
     14 OAT        47.3320   15.0180   32.7090 O.3       1 090        -0.3285
     15 CAZ        46.5530   16.1210   32.2100 C.3       1 090         0.0553
     16 CAE        48.0570   12.5260   30.1190 C.ar      1 090         0.0192
     17 CAF        47.3610   11.4980   29.4700 C.2       1 090         0.1478
     18 NAG        46.0380   11.2310   29.7700 N.pl3     1 090        -0.1560
     19 CAH        45.4950   10.1250   28.9960 C.2       1 090         0.0589
     20 CAB        46.7150    9.7690   28.1480 C.2       1 090        -0.0259
     21 NAA        47.7870   10.6690   28.5230 N.2       1 090        -0.3341
     22 CAD        49.3980   12.8300   29.8200 C.ar      1 090        -0.0719
     23 CAC        50.0470   13.8570   30.5070 C.ar      1 090        -0.0450
     24 CAI        49.3570   14.6060   31.4920 C.ar      1 090         0.1149
     25 OAS        49.9880   15.6380   32.1650 O.3       1 090        -0.3262
     26 CAY        51.3320   16.0090   31.8240 C.3       1 090         0.0569
     27 H1         41.9631   10.4534   30.6604 H         1 090         0.0879
     28 H2         38.6214   10.3460   33.2161 H         1 090         0.0858
     29 H3         39.6255   12.0308   34.7239 H         1 090         0.0722
     30 H4         41.8557   12.9596   34.1503 H         1 090         0.0789
     31 H5         43.6541   10.9332   30.5657 H         1 090         0.2455
     32 H6         46.0489   16.6230   33.0489 H         1 090         0.0570
     33 H7         45.8001   15.7469   31.5007 H         1 090         0.0570
     34 H8         47.2148   16.8359   31.6992 H         1 090         0.0570
     35 H9         44.5020    9.6783   29.0156 H         1 090         0.0846
     36 H10        46.7692    8.9816   27.3977 H         1 090         0.0479
     37 H11        49.9257   12.2679   29.0580 H         1 090         0.0500
     38 H12        51.0839   14.0827   30.2859 H         1 090         0.0473
     39 H13        51.6560   16.8426   32.4645 H         1 090         0.0573
     40 H14        51.3702   16.3205   30.7697 H         1 090         0.0573
     41 H15        51.9999   15.1484   31.9765 H         1 090         0.0573
@<TRIPOS>BOND
     1    1    2 2  
     2    2    3 1  
     3    2    9 am 
     4    3    4 ar 
     5    3    8 ar 
     6    4    5 ar 
     7    5    6 ar 
     8    6    7 ar 
     9    7    8 ar 
    10    9   10 1  
    11   10   11 2  
    12   10   18 1  
    13   11   12 1  
    14   12   13 ar 
    15   12   16 ar 
    16   13   14 1  
    17   13   24 ar 
    18   14   15 1  
    19   16   17 1  
    20   16   22 ar 
    21   17   18 1  
    22   17   21 2  
    23   18   19 1  
    24   19   20 2  
    25   20   21 1  
    26   22   23 ar 
    27   23   24 ar 
    28   24   25 1  
    29   25   26 1  
    30    4   27 1  
    31    6   28 1  
    32    7   29 1  
    33    8   30 1  
    34    9   31 1  
    35   15   32 1  
    36   15   33 1  
    37   15   34 1  
    38   19   35 1  
    39   20   36 1  
    40   22   37 1  
    41   23   38 1  
    42   26   39 1  
    43   26   40 1  
    44   26   41 1  
@<TRIPOS>SUBSTRUCTURE
     1 090         1

