### 
### Created by X-TOOL on Mon Sep 10 21:12:55 2018
### 

@<TRIPOS>MOLECULE
2chz_ligand
   40    41     1     0     0
SMALL
GAST_HUCK


@<TRIPOS>ATOM
      1 OAM        44.3600   14.0700   34.5390 O.2       1 093        -0.1504
      2 SAN        43.1120   13.3650   34.1170 S.o2      1 093         0.0668
      3 OAO        42.7760   12.3580   35.1680 O.2       1 093        -0.1504
      4 NAU        41.9560   14.3530   34.0230 N.am      1 093        -0.2454
      5 CAV        42.2120   15.7750   33.8090 C.3       1 093         0.0497
      6 CAW        40.8750   16.3870   33.3920 C.3       1 093         0.0610
      7 OAX        40.9830   16.9600   32.0940 O.3       1 093        -0.3934
      8 CAF        43.4250   12.5360   32.5900 C.ar      1 093         0.1133
      9 CAB        42.4200   11.8410   31.9140 C.ar      1 093         0.0577
     10 CL         40.8130   11.7790   32.5390 Cl        1 093        -0.0762
     11 CAC        42.6890   11.1820   30.7180 C.ar      1 093        -0.0550
     12 CAD        43.9670   11.1960   30.1730 C.ar      1 093        -0.0653
     13 CAG        44.7030   12.5410   32.0240 C.ar      1 093        -0.0388
     14 CAH        44.9890   11.8790   30.8220 C.ar      1 093        -0.0301
     15 CAI        46.2860   11.9110   30.2930 C.2       1 093         0.0355
     16 CAJ        46.7240   11.2980   29.1190 C.2       1 093        -0.0114
     17 CAE        45.8850   10.4650   28.1490 C.3       1 093        -0.0303
     18 NAK        48.0130   11.5100   28.8790 N.2       1 093        -0.3032
     19 SAP        47.5390   12.7680   31.0890 S.3       1 093         0.0110
     20 CAQ        48.5840   12.2600   29.8180 C.2       1 093         0.2102
     21 NAR        49.8860   12.5750   29.7820 N.am      1 093        -0.1910
     22 CAS        50.4440   13.7270   30.1800 C.2       1 093         0.2143
     23 OAL        49.8210   14.6770   30.6220 O.2       1 093        -0.3791
     24 CAT        51.9360   13.7990   30.0350 C.3       1 093         0.0343
     25 H1         41.0150   14.0255   34.1084 H         1 093         0.1673
     26 H2         42.9597   15.9131   33.0142 H         1 093         0.0498
     27 H3         42.5729   16.2421   34.7372 H         1 093         0.0498
     28 H4         40.5923   17.1688   34.1123 H         1 093         0.0573
     29 H5         40.1037   15.6028   33.3804 H         1 093         0.0573
     30 H6         40.1474   17.3371   31.8450 H         1 093         0.2095
     31 H7         41.8934   10.6524   30.2065 H         1 093         0.0600
     32 H8         44.1667   10.6753   29.2435 H         1 093         0.0545
     33 H9         45.4990   13.0742   32.5311 H         1 093         0.0565
     34 H10        46.5190   10.1198   27.3190 H         1 093         0.0391
     35 H11        45.0644   11.0806   27.7520 H         1 093         0.0391
     36 H12        45.4682    9.5954   28.6782 H         1 093         0.0391
     37 H13        50.5057   11.8783   29.4207 H         1 093         0.2443
     38 H14        52.2918   14.7785   30.3872 H         1 093         0.0475
     39 H15        52.2083   13.6687   28.9772 H         1 093         0.0475
     40 H16        52.4015   13.0027   30.6343 H         1 093         0.0475
@<TRIPOS>BOND
     1    1    2 2  
     2    2    3 2  
     3    2    4 am 
     4    2    8 1  
     5    4    5 1  
     6    5    6 1  
     7    6    7 1  
     8    8    9 ar 
     9    8   13 ar 
    10    9   10 1  
    11    9   11 ar 
    12   11   12 ar 
    13   12   14 ar 
    14   13   14 ar 
    15   14   15 1  
    16   15   16 2  
    17   15   19 1  
    18   16   17 1  
    19   16   18 1  
    20   18   20 2  
    21   19   20 1  
    22   20   21 1  
    23   21   22 am 
    24   22   23 2  
    25   22   24 1  
    26    4   25 1  
    27    5   26 1  
    28    5   27 1  
    29    6   28 1  
    30    6   29 1  
    31    7   30 1  
    32   11   31 1  
    33   12   32 1  
    34   13   33 1  
    35   17   34 1  
    36   17   35 1  
    37   17   36 1  
    38   21   37 1  
    39   24   38 1  
    40   24   39 1  
    41   24   40 1  
@<TRIPOS>SUBSTRUCTURE
     1 093         1

