### 
### Created by X-TOOL on Mon Sep 10 21:12:54 2018
### 

@<TRIPOS>MOLECULE
2cji_ligand
   55    58     1     0     0
SMALL
GAST_HUCK


@<TRIPOS>ATOM
      1 CL1        13.8980    7.2560   26.6060 Cl        1 GSK        -0.0704
      2 C1         12.2280    7.4970   26.1660 C.ar      1 GSK         0.0411
      3 C2         11.1920    7.0870   27.0520 C.ar      1 GSK        -0.0473
      4 C3          9.8150    7.2600   26.7010 C.ar      1 GSK        -0.0536
      5 C4          9.5110    7.8730   25.4700 C.ar      1 GSK        -0.0160
      6 C5          8.1600    8.0730   25.1010 C.ar      1 GSK        -0.0273
      7 C9         10.5710    8.3160   24.5510 C.ar      1 GSK        -0.0173
      8 C10        11.9260    8.1130   24.9280 C.ar      1 GSK        -0.0401
      9 C8         10.2500    8.9110   23.2990 C.ar      1 GSK        -0.0521
     10 C7          8.8830    9.0720   22.9520 C.ar      1 GSK        -0.0345
     11 C6          7.8540    8.6690   23.8560 C.ar      1 GSK         0.1089
     12 S1          6.1200    8.8440   23.4240 S.o2      1 GSK         0.0705
     13 O2          5.8710   10.1120   22.7990 O.2       1 GSK        -0.1501
     14 O1          5.3500    8.4400   24.5680 O.2       1 GSK        -0.1501
     15 N1          5.8990    7.8290   22.1850 N.am      1 GSK        -0.2254
     16 C12         6.0230    6.3610   22.2380 C.3       1 GSK         0.1284
     17 C13         4.7150    5.6680   21.8630 C.3       1 GSK         0.0047
     18 C14         5.1110    4.3350   21.2130 C.3       1 GSK         0.0405
     19 C15         7.0530    5.6740   21.3390 C.2       1 GSK         0.2026
     20 O3          8.1930    6.0680   21.1110 O.2       1 GSK        -0.3946
     21 N2          6.5120    4.5220   20.8550 N.am      1 GSK        -0.2502
     22 C16         7.3160    3.5150   20.1230 C.3       1 GSK         0.1310
     23 C17         7.0920    2.0900   20.6760 C.3       1 GSK        -0.0242
     24 C18         7.1730    3.5580   18.6090 C.2       1 GSK         0.2042
     25 O4          6.1410    3.9890   18.1180 O.2       1 GSK        -0.3943
     26 N3          8.2350    3.1650   17.8510 N.am      1 GSK        -0.2669
     27 C19         9.6120    3.0050   18.3380 C.3       1 GSK         0.0574
     28 C20        10.1330    1.6310   17.9500 C.3       1 GSK         0.0681
     29 O5         10.1950    1.6410   16.5400 O.3       1 GSK        -0.3758
     30 C22         8.9200    1.7770   15.8930 C.3       1 GSK         0.0681
     31 C23         8.0480    2.9290   16.4170 C.3       1 GSK         0.0574
     32 H1         11.4491    6.6381   28.0046 H         1 GSK         0.0623
     33 H2          9.0261    6.9275   27.3660 H         1 GSK         0.0623
     34 H3          7.3626    7.7705   25.7701 H         1 GSK         0.0643
     35 H4         12.7265    8.4292   24.2690 H         1 GSK         0.0630
     36 H5         11.0337    9.2349   22.6237 H         1 GSK         0.0624
     37 H6          8.6184    9.5041   21.9937 H         1 GSK         0.0637
     38 H7          5.6563    8.2335   21.3032 H         1 GSK         0.1706
     39 H8          6.2744    6.1152   23.2803 H         1 GSK         0.0754
     40 H9          4.1460    6.2852   21.1522 H         1 GSK         0.0328
     41 H10         4.1066    5.4886   22.7617 H         1 GSK         0.0328
     42 H11         4.5013    4.1393   20.3186 H         1 GSK         0.0526
     43 H12         4.9964    3.5036   21.9240 H         1 GSK         0.0526
     44 H13         8.3668    3.7656   20.3302 H         1 GSK         0.0799
     45 H14         7.7049    1.3754   20.1071 H         1 GSK         0.0277
     46 H15         6.0298    1.8214   20.5779 H         1 GSK         0.0277
     47 H16         7.3818    2.0585   21.7367 H         1 GSK         0.0277
     48 H17         9.6272    3.1065   19.4332 H         1 GSK         0.0545
     49 H18        10.2515    3.7793   17.8891 H         1 GSK         0.0545
     50 H19         9.4468    0.8457   18.2999 H         1 GSK         0.0580
     51 H20        11.1320    1.4626   18.3784 H         1 GSK         0.0580
     52 H21         8.3646    0.8377   16.0316 H         1 GSK         0.0580
     53 H22         9.0972    1.9433   14.8202 H         1 GSK         0.0580
     54 H23         8.3106    3.8471   15.8709 H         1 GSK         0.0545
     55 H24         6.9915    2.6832   16.2345 H         1 GSK         0.0545
@<TRIPOS>BOND
     1    1    2 1  
     2    2    3 ar 
     3    2    8 ar 
     4    3    4 ar 
     5    4    5 ar 
     6    5    6 ar 
     7    5    7 ar 
     8    6   11 ar 
     9    7    8 ar 
    10    7    9 ar 
    11    9   10 ar 
    12   10   11 ar 
    13   11   12 1  
    14   12   13 2  
    15   12   14 2  
    16   12   15 am 
    17   15   16 1  
    18   16   17 1  
    19   16   19 1  
    20   17   18 1  
    21   18   21 1  
    22   19   20 2  
    23   19   21 am 
    24   21   22 1  
    25   22   23 1  
    26   22   24 1  
    27   24   25 2  
    28   24   26 am 
    29   26   27 1  
    30   26   31 1  
    31   27   28 1  
    32   28   29 1  
    33   29   30 1  
    34   30   31 1  
    35    3   32 1  
    36    4   33 1  
    37    6   34 1  
    38    8   35 1  
    39    9   36 1  
    40   10   37 1  
    41   15   38 1  
    42   16   39 1  
    43   17   40 1  
    44   17   41 1  
    45   18   42 1  
    46   18   43 1  
    47   22   44 1  
    48   23   45 1  
    49   23   46 1  
    50   23   47 1  
    51   27   48 1  
    52   27   49 1  
    53   28   50 1  
    54   28   51 1  
    55   30   52 1  
    56   30   53 1  
    57   31   54 1  
    58   31   55 1  
@<TRIPOS>SUBSTRUCTURE
     1 GSK         1

