### 
### Created by X-TOOL on Mon Sep 10 21:12:54 2018
### 

@<TRIPOS>MOLECULE
2ckm_ligand
   77    82     1     0     0
SMALL
GAST_HUCK


@<TRIPOS>ATOM
      1 C1         -4.1200   59.7430   73.3690 C.ar      1 AA7         0.0105
      2 C2         -2.7560   60.1980   73.3810 C.ar      1 AA7         0.0054
      3 C3         -2.0160   60.1710   74.6800 C.3       1 AA7        -0.0210
      4 C4         -2.6690   59.3340   75.7820 C.3       1 AA7        -0.0439
      5 C5         -4.1650   59.6980   75.8760 C.3       1 AA7        -0.0400
      6 C6         -4.8510   59.2810   74.6030 C.3       1 AA7        -0.0081
      7 N7         -4.8150   59.6920   72.1800 N.ar      1 AA7        -0.3281
      8 C8         -4.3260   60.0380   70.9490 C.ar      1 AA7         0.0179
      9 C9         -2.9400   60.5460   70.8440 C.ar      1 AA7         0.0197
     10 C10        -2.1180   60.6640   72.1480 C.ar      1 AA7         0.0689
     11 N11        -0.7920   61.2130   72.1250 N.pl3     1 AA7        -0.3142
     12 C14        -2.5320   60.8500   69.4760 C.ar      1 AA7        -0.0528
     13 C15        -3.4010   60.6870   68.3810 C.ar      1 AA7        -0.0632
     14 C16        -4.7570   60.2030   68.5380 C.ar      1 AA7        -0.0640
     15 C17        -5.2120   59.8800   69.8290 C.ar      1 AA7        -0.0521
     16 C19         1.5520   67.3390   66.8250 C.3       1 AA7         0.0270
     17 C20         0.7870   67.3480   68.1480 C.3       1 AA7        -0.0328
     18 C21         1.3070   66.3420   69.1670 C.3       1 AA7        -0.0512
     19 C22         0.1980   65.5890   69.9180 C.3       1 AA7        -0.0529
     20 C23         0.6590   64.1730   70.2500 C.3       1 AA7        -0.0512
     21 C24        -0.3570   63.4150   71.0780 C.3       1 AA7        -0.0328
     22 C25         0.0100   61.9360   71.1170 C.3       1 AA7         0.0270
     23 C26         5.0670   68.8090   64.0340 C.ar      1 AA7         0.0105
     24 C27         3.7450   68.4860   64.5130 C.ar      1 AA7         0.0054
     25 C28         2.7670   67.8580   63.4940 C.3       1 AA7        -0.0210
     26 C29         3.4100   67.2720   62.2050 C.3       1 AA7        -0.0439
     27 C30         4.3340   68.3110   61.5880 C.3       1 AA7        -0.0400
     28 C31         5.5110   68.5970   62.5720 C.3       1 AA7        -0.0081
     29 N32         5.9820   69.3210   64.9250 N.ar      1 AA7        -0.3281
     30 C33         5.7480   69.5490   66.2690 C.ar      1 AA7         0.0179
     31 C34         4.4520   69.2550   66.8080 C.ar      1 AA7         0.0197
     32 C35         3.4190   68.7400   65.9170 C.ar      1 AA7         0.0689
     33 N36         2.2320   68.6350   66.5770 N.pl3     1 AA7        -0.3142
     34 C39         4.2800   69.5260   68.2230 C.ar      1 AA7        -0.0528
     35 C40         5.3150   70.0550   68.9930 C.ar      1 AA7        -0.0632
     36 C41         6.5820   70.3360   68.4020 C.ar      1 AA7        -0.0640
     37 C42         6.7910   70.0790   67.0490 C.ar      1 AA7        -0.0521
     38 H1         -1.9290   61.2053   75.0441 H         1 AA7         0.0386
     39 H2         -1.0120   59.7628   74.4918 H         1 AA7         0.0386
     40 H3         -2.1781   59.5444   76.7436 H         1 AA7         0.0284
     41 H4         -2.5647   58.2654   75.5431 H         1 AA7         0.0284
     42 H5         -4.2725   60.7840   76.0143 H         1 AA7         0.0292
     43 H6         -4.6196   59.1729   76.7290 H         1 AA7         0.0292
     44 H7         -4.9170   58.1832   74.5824 H         1 AA7         0.0453
     45 H8         -5.8640   59.7095   74.5928 H         1 AA7         0.0453
     46 H9         -0.2858   61.0708   73.0107 H         1 AA7         0.1815
     47 H10        -1.5264   61.2133   69.2975 H         1 AA7         0.0636
     48 H11        -3.0436   60.9318   67.3873 H         1 AA7         0.0585
     49 H12        -5.4078   60.0920   67.6782 H         1 AA7         0.0621
     50 H13        -6.2219   59.5152   69.9777 H         1 AA7         0.0590
     51 H14         0.8448   67.1446   66.0052 H         1 AA7         0.0520
     52 H15         2.3073   66.5399   66.8550 H         1 AA7         0.0520
     53 H16        -0.2681   67.1167   67.9399 H         1 AA7         0.0285
     54 H17         0.8624   68.3546   68.5852 H         1 AA7         0.0285
     55 H18         1.9205   66.8808   69.9041 H         1 AA7         0.0266
     56 H19         1.9304   65.6050   68.6396 H         1 AA7         0.0266
     57 H20        -0.7011   65.5403   69.2862 H         1 AA7         0.0265
     58 H21        -0.0375   66.1230   70.8504 H         1 AA7         0.0265
     59 H22         1.6016   64.2314   70.8140 H         1 AA7         0.0266
     60 H23         0.8272   63.6267   69.3102 H         1 AA7         0.0266
     61 H24        -1.3545   63.5321   70.6294 H         1 AA7         0.0285
     62 H25        -0.3661   63.8162   72.1022 H         1 AA7         0.0285
     63 H26        -0.1753   61.4942   70.1268 H         1 AA7         0.0520
     64 H27         1.0762   61.8375   71.3688 H         1 AA7         0.0520
     65 H28         2.0521   68.6366   63.1895 H         1 AA7         0.0386
     66 H29         2.2286   67.0441   64.0016 H         1 AA7         0.0386
     67 H30         2.6196   67.0100   61.4863 H         1 AA7         0.0284
     68 H31         3.9877   66.3711   62.4592 H         1 AA7         0.0284
     69 H32         3.7736   69.2396   61.4045 H         1 AA7         0.0292
     70 H33         4.7337   67.9298   60.6367 H         1 AA7         0.0292
     71 H34         6.2035   67.7429   62.5409 H         1 AA7         0.0453
     72 H35         6.0325   69.5044   62.2335 H         1 AA7         0.0453
     73 H36         1.7846   69.4967   66.9207 H         1 AA7         0.1815
     74 H37         3.3261   69.3126   68.6917 H         1 AA7         0.0636
     75 H38         5.1557   70.2538   70.0467 H         1 AA7         0.0585
     76 H39         7.3821   70.7494   69.0054 H         1 AA7         0.0621
     77 H40         7.7549   70.2870   66.5987 H         1 AA7         0.0590
@<TRIPOS>BOND
     1    2    1 ar 
     2    1    6 1  
     3    1    7 ar 
     4    2    3 1  
     5   10    2 ar 
     6    3    4 1  
     7    4    5 1  
     8    6    5 1  
     9    8    7 ar 
    10    9    8 ar 
    11    8   15 ar 
    12   10    9 ar 
    13    9   12 ar 
    14   11   10 1  
    15   22   11 1  
    16   12   13 ar 
    17   13   14 ar 
    18   15   14 ar 
    19   16   17 1  
    20   33   16 1  
    21   17   18 1  
    22   18   19 1  
    23   19   20 1  
    24   20   21 1  
    25   21   22 1  
    26   24   23 ar 
    27   23   28 1  
    28   23   29 ar 
    29   24   25 1  
    30   32   24 ar 
    31   25   26 1  
    32   26   27 1  
    33   28   27 1  
    34   30   29 ar 
    35   31   30 ar 
    36   30   37 ar 
    37   32   31 ar 
    38   31   34 ar 
    39   32   33 1  
    40   34   35 ar 
    41   35   36 ar 
    42   36   37 ar 
    43    3   38 1  
    44    3   39 1  
    45    4   40 1  
    46    4   41 1  
    47    5   42 1  
    48    5   43 1  
    49    6   44 1  
    50    6   45 1  
    51   11   46 1  
    52   12   47 1  
    53   13   48 1  
    54   14   49 1  
    55   15   50 1  
    56   16   51 1  
    57   16   52 1  
    58   17   53 1  
    59   17   54 1  
    60   18   55 1  
    61   18   56 1  
    62   19   57 1  
    63   19   58 1  
    64   20   59 1  
    65   20   60 1  
    66   21   61 1  
    67   21   62 1  
    68   22   63 1  
    69   22   64 1  
    70   25   65 1  
    71   25   66 1  
    72   26   67 1  
    73   26   68 1  
    74   27   69 1  
    75   27   70 1  
    76   28   71 1  
    77   28   72 1  
    78   33   73 1  
    79   34   74 1  
    80   35   75 1  
    81   36   76 1  
    82   37   77 1  
@<TRIPOS>SUBSTRUCTURE
     1 AA7         1

