### 
### Created by X-TOOL on Mon Sep 10 21:12:54 2018
### 

@<TRIPOS>MOLECULE
2clx_ligand
   26    27     1     0     0
SMALL
GAST_HUCK


@<TRIPOS>ATOM
      1 C3         23.7680   30.7400   10.4770 C.ar      1 F18         0.0897
      2 C6         24.5630   31.3440    9.5070 C.ar      1 F18        -0.0304
      3 C2         25.6130   30.6820    8.8890 C.ar      1 F18        -0.0482
      4 O3         22.7460   31.4000   11.0880 O.3       1 F18        -0.3317
      5 C5         25.8460   29.3760    9.3070 C.ar      1 F18         0.0436
      6 C4         25.0650   28.7730   10.2850 C.ar      1 F18        -0.0482
      7 C1         24.0150   29.4400   10.8800 C.ar      1 F18        -0.0304
      8 N9         26.7560   28.5340    8.8590 N.2       1 F18        -0.2227
      9 N13        27.6960   28.6120    8.0750 N.2       1 F18        -0.2166
     10 C14        28.2820   29.5600    7.3460 C.2       1 F18         0.1379
     11 C19        28.1350   30.9030    6.9920 C.2       1 F18         0.1006
     12 N16        27.2620   31.8370    7.3420 N.pl3     1 F18        -0.3355
     13 N20        29.1580   31.1640    6.2020 N.2       1 F18        -0.2348
     14 N17        29.9000   30.1950    5.9980 N.pl3     1 F18        -0.2074
     15 C15        29.4310   29.1640    6.6850 C.2       1 F18         0.1927
     16 N18        29.9900   27.9590    6.7150 N.pl3     1 F18        -0.2973
     17 H1         24.3536   32.3694    9.2244 H         1 F18         0.0550
     18 H2         26.2177   31.1552    8.1238 H         1 F18         0.0607
     19 H3         23.0880   32.1629   11.5391 H         1 F18         0.2492
     20 H4         25.2859   27.7556   10.5870 H         1 F18         0.0607
     21 H5         23.4042   28.9621   11.6374 H         1 F18         0.0550
     22 H6         27.3396   32.7868    6.9512 H         1 F18         0.1699
     23 H7         26.5061   31.6129    8.0048 H         1 F18         0.1699
     24 H8         30.7372   30.1908    5.3980 H         1 F18         0.2458
     25 H9         29.5634   27.2072    7.2750 H         1 F18         0.1862
     26 H10        30.8500   27.7767    6.1782 H         1 F18         0.1862
@<TRIPOS>BOND
     1    1    2 ar 
     2    1    4 1  
     3    1    7 ar 
     4    2    3 ar 
     5    3    5 ar 
     6    5    6 ar 
     7    5    8 1  
     8    6    7 ar 
     9    8    9 2  
    10    9   10 1  
    11   10   11 1  
    12   10   15 2  
    13   11   12 1  
    14   11   13 2  
    15   13   14 1  
    16   14   15 1  
    17   15   16 1  
    18    2   17 1  
    19    3   18 1  
    20    4   19 1  
    21    6   20 1  
    22    7   21 1  
    23   12   22 1  
    24   12   23 1  
    25   14   24 1  
    26   16   25 1  
    27   16   26 1  
@<TRIPOS>SUBSTRUCTURE
     1 F18         1

