### 
### Created by X-TOOL on Mon Sep 10 21:12:54 2018
### 

@<TRIPOS>MOLECULE
2cm7_ligand
   60    62     1     0     0
SMALL
GAST_HUCK


@<TRIPOS>ATOM
      1 C1         16.7560   -1.4220   -0.4900 C.3       1 IZD         0.1471
      2 C2         17.4780   -1.9420    0.7130 C.3       1 IZD         0.0721
      3 C3         16.9200   -1.2760    1.9380 C.2       1 IZD         0.1996
      4 N4         15.7130   -0.7120    1.7690 N.am      1 IZD        -0.1561
      5 S5         15.0880   -1.1180    0.1110 S.o2      1 IZD         0.0754
      6 O6         14.3300    0.1280   -0.6880 O.2       1 IZD        -0.1483
      7 O7         14.2690   -2.5450    0.0980 O.2       1 IZD        -0.1483
      8 O9         17.4860   -1.2290    3.0250 O.2       1 IZD        -0.3952
      9 C11        16.7540   -2.2920   -1.7380 C.ar      1 IZD        -0.0214
     10 C12        16.8020   -3.7550   -1.6280 C.ar      1 IZD        -0.0648
     11 C13        16.7910   -4.5710   -2.8470 C.ar      1 IZD        -0.0665
     12 C14        16.7210   -3.9070   -4.1690 C.ar      1 IZD        -0.0452
     13 C15        16.7080   -2.4540   -4.2630 C.ar      1 IZD        -0.0665
     14 C16        16.7190   -1.6480   -3.0550 C.ar      1 IZD        -0.0648
     15 C21        16.7000   -4.7240   -5.4230 C.3       1 IZD         0.0183
     16 C22        17.9020   -4.4400   -6.3270 C.3       1 IZD         0.1392
     17 C25        19.1440   -5.0350   -5.7140 C.2       1 IZD         0.2011
     18 O26        19.8780   -4.3810   -4.9910 O.2       1 IZD        -0.3946
     19 N27        19.3790   -6.3290   -5.9240 N.am      1 IZD        -0.2988
     20 N45        17.6330   -5.0260   -7.6450 N.am      1 IZD        -0.2619
     21 C47        18.4700   -4.6570   -8.6110 C.2       1 IZD         0.2061
     22 C48        18.2690   -5.2610   -9.9800 C.3       1 IZD         0.1404
     23 O49        19.3690   -3.8640   -8.3870 O.2       1 IZD        -0.3942
     24 N51        18.3060   -4.2250  -11.0260 N.am      1 IZD        -0.2640
     25 C4         19.3730   -6.2750  -10.2500 C.3       1 IZD         0.0214
     26 C5         19.0120   -7.2610  -11.3200 C.ar      1 IZD        -0.0386
     27 C30        18.3320   -8.5130  -10.9580 C.ar      1 IZD        -0.0601
     28 C31        17.9810   -9.4780  -11.9960 C.ar      1 IZD        -0.0686
     29 C6         18.3050   -9.1930  -13.4040 C.ar      1 IZD        -0.0687
     30 C33        18.9900   -7.9430  -13.7700 C.ar      1 IZD        -0.0686
     31 C34        19.3470   -6.9780  -12.7290 C.ar      1 IZD        -0.0601
     32 C67        17.1950   -3.8710  -11.6780 C.2       1 IZD         0.1752
     33 O70        16.1030   -4.3900  -11.3950 O.2       1 IZD        -0.3972
     34 C71        17.2840   -2.8710  -12.8180 C.3       1 IZD         0.0258
     35 H1         17.2175   -0.4655   -0.7766 H         1 IZD         0.0735
     36 H2         18.5511   -1.7166    0.6262 H         1 IZD         0.0544
     37 H3         17.3367   -3.0303    0.7872 H         1 IZD         0.0544
     38 H4         15.2336   -0.1563    2.4482 H         1 IZD         0.2143
     39 H5         16.8452   -4.2286   -0.6539 H         1 IZD         0.0540
     40 H6         16.8338   -5.6521   -2.7807 H         1 IZD         0.0540
     41 H7         16.6901   -1.9739   -5.2347 H         1 IZD         0.0540
     42 H8         16.7013   -0.5665   -3.1271 H         1 IZD         0.0540
     43 H9         15.7787   -4.4944   -5.9784 H         1 IZD         0.0461
     44 H10        16.7077   -5.7896   -5.1501 H         1 IZD         0.0461
     45 H11        18.0376   -3.3535   -6.4321 H         1 IZD         0.0822
     46 H12        20.1929   -6.7592   -5.5334 H         1 IZD         0.1815
     47 H13        18.7416   -6.8704   -6.4723 H         1 IZD         0.1815
     48 H14        16.8746   -5.6577   -7.8057 H         1 IZD         0.1885
     49 H15        17.2925   -5.7666  -10.0088 H         1 IZD         0.0823
     50 H16        19.1734   -3.7811  -11.2510 H         1 IZD         0.1884
     51 H17        19.5784   -6.8259   -9.3203 H         1 IZD         0.0474
     52 H18        20.2779   -5.7334  -10.5629 H         1 IZD         0.0474
     53 H19        18.0914   -8.7196   -9.9214 H         1 IZD         0.0557
     54 H20        17.4825  -10.4032  -11.7305 H         1 IZD         0.0599
     55 H21        18.0377   -9.9072  -14.1744 H         1 IZD         0.0559
     56 H22        19.2294   -7.7376  -14.8071 H         1 IZD         0.0599
     57 H23        19.8561   -6.0579  -12.9923 H         1 IZD         0.0557
     58 H24        16.2805   -2.6998  -13.2347 H         1 IZD         0.0467
     59 H25        17.9442   -3.2679  -13.6032 H         1 IZD         0.0467
     60 H26        17.6916   -1.9212  -12.4416 H         1 IZD         0.0467
@<TRIPOS>BOND
     1    1    2 1  
     2    1    5 1  
     3    1    9 1  
     4    2    3 1  
     5    3    4 am 
     6    3    8 2  
     7    4    5 am 
     8    5    6 2  
     9    5    7 2  
    10    9   10 ar 
    11    9   14 ar 
    12   10   11 ar 
    13   11   12 ar 
    14   12   13 ar 
    15   12   15 1  
    16   13   14 ar 
    17   15   16 1  
    18   16   17 1  
    19   16   20 1  
    20   17   18 2  
    21   17   19 am 
    22   20   21 am 
    23   21   22 1  
    24   21   23 2  
    25   22   24 1  
    26   22   25 1  
    27   24   32 am 
    28   25   26 1  
    29   26   27 ar 
    30   26   31 ar 
    31   27   28 ar 
    32   28   29 ar 
    33   29   30 ar 
    34   30   31 ar 
    35   32   33 2  
    36   32   34 1  
    37    1   35 1  
    38    2   36 1  
    39    2   37 1  
    40    4   38 1  
    41   10   39 1  
    42   11   40 1  
    43   13   41 1  
    44   14   42 1  
    45   15   43 1  
    46   15   44 1  
    47   16   45 1  
    48   19   46 1  
    49   19   47 1  
    50   20   48 1  
    51   22   49 1  
    52   24   50 1  
    53   25   51 1  
    54   25   52 1  
    55   27   53 1  
    56   28   54 1  
    57   29   55 1  
    58   30   56 1  
    59   31   57 1  
    60   34   58 1  
    61   34   59 1  
    62   34   60 1  
@<TRIPOS>SUBSTRUCTURE
     1 IZD         1

