### 
### Created by X-TOOL on Mon Sep 10 21:12:54 2018
### 

@<TRIPOS>MOLECULE
2cm8_ligand
   22    23     1     0     0
SMALL
GAST_HUCK


@<TRIPOS>ATOM
      1 C1         46.4620   15.4340    3.9400 C.2       1 F16         0.1344
      2 C3         47.6680   16.1830    3.7160 C.2       1 F16         0.0398
      3 C4         47.8320   17.0770    4.8510 C.2       1 F16         0.2142
      4 N5         46.8430   17.0340    5.8710 N.am      1 F16        -0.1540
      5 S6         45.6240   15.8500    5.4680 S.o2      1 F16         0.0964
      6 O7         44.0340   16.5070    5.1850 O.2       1 F16        -0.1437
      7 O8         45.6450   14.4680    6.4180 O.2       1 F16        -0.1437
      8 O9         48.7880   17.8380    4.9280 O.2       1 F16        -0.3887
      9 C10        45.9650   14.4120    3.0230 C.ar      1 F16         0.0033
     10 C11        44.7520   14.6610    2.2320 C.ar      1 F16        -0.0591
     11 C12        44.2480   13.6250    1.3130 C.ar      1 F16        -0.0663
     12 C13        44.9570   12.3400    1.1850 C.ar      1 F16        -0.0302
     13 C14        46.1700   12.0930    1.9760 C.ar      1 F16         0.0909
     14 C15        46.6780   13.1250    2.8950 C.ar      1 F16        -0.0206
     15 O1         46.8200   10.9240    1.8610 O.3       1 F16        -0.3326
     16 H1         48.3334   16.0972    2.8582 H         1 F16         0.0690
     17 H2         46.8449   17.5980    6.6968 H         1 F16         0.2132
     18 H3         44.2284   15.6057    2.3243 H         1 F16         0.0560
     19 H4         43.3531   13.8090    0.7296 H         1 F16         0.0599
     20 H5         44.5846   11.5788    0.5090 H         1 F16         0.0570
     21 H6         47.5739   12.9405    3.4767 H         1 F16         0.0568
     22 H7         47.7074   11.0844    1.5621 H         1 F16         0.2480
@<TRIPOS>BOND
     1    1    2 2  
     2    1    5 1  
     3    1    9 1  
     4    2    3 1  
     5    3    4 am 
     6    3    8 2  
     7    4    5 am 
     8    5    6 2  
     9    5    7 2  
    10    9   10 ar 
    11    9   14 ar 
    12   10   11 ar 
    13   11   12 ar 
    14   12   13 ar 
    15   13   14 ar 
    16   13   15 1  
    17    2   16 1  
    18    4   17 1  
    19   10   18 1  
    20   11   19 1  
    21   12   20 1  
    22   14   21 1  
    23   15   22 1  
@<TRIPOS>SUBSTRUCTURE
     1 F16         1

