### 
### Created by X-TOOL on Mon Sep 10 21:12:54 2018
### 

@<TRIPOS>MOLECULE
2cma_ligand
   67    70     1     0     0
SMALL
GAST_HUCK


@<TRIPOS>ATOM
      1 C1         16.7790   -1.1930   -0.4460 C.3       1 F20         0.1471
      2 C2         17.5500   -1.6890    0.7400 C.3       1 F20         0.0721
      3 C3         16.9930   -1.0620    1.9880 C.2       1 F20         0.1996
      4 N4         15.7280   -0.6420    1.8780 N.am      1 F20        -0.1561
      5 S5         15.1410   -1.0130    0.1980 S.o2      1 F20         0.0754
      6 O6         14.3360    0.1510   -0.6560 O.2       1 F20        -0.1483
      7 O7         14.4660   -2.5670    0.1630 O.2       1 F20        -0.1483
      8 O9         17.6160   -0.9280    3.0460 O.2       1 F20        -0.3952
      9 C11        16.8130   -2.0720   -1.6900 C.ar      1 F20        -0.0214
     10 C12        16.9630   -3.5220   -1.5670 C.ar      1 F20        -0.0648
     11 C13        16.9930   -4.3510   -2.7730 C.ar      1 F20        -0.0665
     12 C14        16.8750   -3.7210   -4.0980 C.ar      1 F20        -0.0452
     13 C15        16.7360   -2.2790   -4.2140 C.ar      1 F20        -0.0665
     14 C16        16.7050   -1.4510   -3.0140 C.ar      1 F20        -0.0648
     15 C21        16.8980   -4.5750   -5.3470 C.3       1 F20         0.0183
     16 C22        18.1770   -4.4050   -6.1640 C.3       1 F20         0.1392
     17 C25        19.3620   -4.9870   -5.4220 C.2       1 F20         0.2011
     18 O26        20.1700   -4.2830   -4.8590 O.2       1 F20        -0.3946
     19 N27        19.5020   -6.3100   -5.4160 N.am      1 F20        -0.2988
     20 N45        18.0110   -5.1280   -7.4270 N.am      1 F20        -0.2619
     21 C47        18.5810   -4.5830   -8.4900 C.2       1 F20         0.2060
     22 C48        18.4160   -5.3010   -9.8150 C.3       1 F20         0.1400
     23 O49        19.1930   -3.5280   -8.3890 O.2       1 F20        -0.3942
     24 N51        18.6710   -4.4010  -10.9470 N.am      1 F20        -0.2631
     25 C4         19.3870   -6.4710   -9.9040 C.3       1 F20         0.0214
     26 C5         19.0540   -7.4340  -11.0120 C.ar      1 F20        -0.0386
     27 C30        18.2550   -8.6330  -10.7220 C.ar      1 F20        -0.0601
     28 C31        17.9330   -9.5760  -11.7980 C.ar      1 F20        -0.0686
     29 C6         18.4140   -9.3200  -13.1600 C.ar      1 F20        -0.0687
     30 C33        19.2080   -8.1140  -13.4540 C.ar      1 F20        -0.0686
     31 C34        19.5290   -7.1750  -12.3800 C.ar      1 F20        -0.0601
     32 C67        17.5200   -4.1500  -11.5670 C.2       1 F20         0.2073
     33 O70        16.4730   -4.6440  -11.1390 O.2       1 F20        -0.3845
     34 C71        17.4920   -3.2570  -12.7970 C.ar      1 F20         0.0500
     35 C74        16.3280   -2.3940  -13.0480 C.ar      1 F20        -0.0419
     36 C75        16.3230   -1.4880  -14.2040 C.ar      1 F20        -0.0562
     37 C76        17.4780   -1.4530  -15.1130 C.ar      1 F20        -0.0575
     38 C77        18.6250   -2.3450  -14.8850 C.ar      1 F20        -0.0562
     39 C78        18.6270   -3.2550  -13.7320 C.ar      1 F20        -0.0419
     40 H1         17.1724   -0.2080   -0.7373 H         1 F20         0.0735
     41 H2         18.6096   -1.4142    0.6314 H         1 F20         0.0544
     42 H3         17.4599   -2.7833    0.8062 H         1 F20         0.0544
     43 H4         15.1949   -0.1986    2.5985 H         1 F20         0.2143
     44 H5         17.0514   -3.9798   -0.5884 H         1 F20         0.0540
     45 H6         17.1019   -5.4264   -2.6905 H         1 F20         0.0540
     46 H7         16.6554   -1.8191   -5.1923 H         1 F20         0.0540
     47 H8         16.6020   -0.3754   -3.1008 H         1 F20         0.0540
     48 H9         16.0403   -4.2972   -5.9772 H         1 F20         0.0461
     49 H10        16.8090   -5.6307   -5.0512 H         1 F20         0.0461
     50 H11        18.3528   -3.3371   -6.3605 H         1 F20         0.0822
     51 H12        20.2727   -6.7291   -4.9360 H         1 F20         0.1815
     52 H13        18.8365   -6.8854   -5.8915 H         1 F20         0.1815
     53 H14        17.4968   -5.9838   -7.4829 H         1 F20         0.1885
     54 H15        17.3855   -5.6795   -9.8836 H         1 F20         0.0823
     55 H16        19.5642   -4.0359  -11.2095 H         1 F20         0.1878
     56 H17        19.3663   -7.0162   -8.9488 H         1 F20         0.0474
     57 H18        20.3980   -6.0740  -10.0778 H         1 F20         0.0474
     58 H19        17.9040   -8.8201   -9.7136 H         1 F20         0.0557
     59 H20        17.3413  -10.4596  -11.5875 H         1 F20         0.0599
     60 H21        18.1842  -10.0214  -13.9540 H         1 F20         0.0559
     61 H22        19.5532   -7.9234  -14.4637 H         1 F20         0.0599
     62 H23        20.1164   -6.2889  -12.5917 H         1 F20         0.0557
     63 H24        15.4745   -2.4265  -12.3805 H         1 F20         0.0669
     64 H25        15.4689   -0.8460  -14.3867 H         1 F20         0.0629
     65 H26        17.4843   -0.7682  -15.9532 H         1 F20         0.0653
     66 H27        19.4676   -2.3309  -15.5668 H         1 F20         0.0629
     67 H28        19.4642   -3.9244  -13.5705 H         1 F20         0.0669
@<TRIPOS>BOND
     1    1    2 1  
     2    1    5 1  
     3    1    9 1  
     4    2    3 1  
     5    3    4 am 
     6    3    8 2  
     7    4    5 am 
     8    5    6 2  
     9    5    7 2  
    10    9   10 ar 
    11    9   14 ar 
    12   10   11 ar 
    13   11   12 ar 
    14   12   13 ar 
    15   12   15 1  
    16   13   14 ar 
    17   15   16 1  
    18   16   17 1  
    19   16   20 1  
    20   17   18 2  
    21   17   19 am 
    22   20   21 am 
    23   21   22 1  
    24   21   23 2  
    25   22   24 1  
    26   22   25 1  
    27   24   32 am 
    28   25   26 1  
    29   26   27 ar 
    30   26   31 ar 
    31   27   28 ar 
    32   28   29 ar 
    33   29   30 ar 
    34   30   31 ar 
    35   32   33 2  
    36   32   34 1  
    37   34   35 ar 
    38   34   39 ar 
    39   35   36 ar 
    40   36   37 ar 
    41   37   38 ar 
    42   38   39 ar 
    43    1   40 1  
    44    2   41 1  
    45    2   42 1  
    46    4   43 1  
    47   10   44 1  
    48   11   45 1  
    49   13   46 1  
    50   14   47 1  
    51   15   48 1  
    52   15   49 1  
    53   16   50 1  
    54   19   51 1  
    55   19   52 1  
    56   20   53 1  
    57   22   54 1  
    58   24   55 1  
    59   25   56 1  
    60   25   57 1  
    61   27   58 1  
    62   28   59 1  
    63   29   60 1  
    64   30   61 1  
    65   31   62 1  
    66   35   63 1  
    67   36   64 1  
    68   37   65 1  
    69   38   66 1  
    70   39   67 1  
@<TRIPOS>SUBSTRUCTURE
     1 F20         1

