### 
### Created by X-TOOL on Mon Sep 10 21:12:54 2018
### 

@<TRIPOS>MOLECULE
2cmb_ligand
   77    81     1     0     0
SMALL
GAST_HUCK


@<TRIPOS>ATOM
      1 C1         12.1090   34.7750   14.6540 C.ar      1 F17        -0.0533
      2 C2         11.4890   34.8390   13.4000 C.ar      1 F17         0.0068
      3 C3         12.2520   35.1000   12.2530 C.ar      1 F17        -0.0533
      4 C4         13.6370   35.2890   12.3590 C.ar      1 F17        -0.0528
      5 C5         14.2580   35.2140   13.6130 C.ar      1 F17        -0.0198
      6 C6         13.4930   34.9630   14.7600 C.ar      1 F17        -0.0528
      7 C20        15.7630   35.3870   13.7280 C.3       1 F17         0.0726
      8 C21        16.2280   33.9220   13.6550 C.2       1 F17         0.1908
      9 O24        15.6280   33.0430   14.2720 O.2       1 F17        -0.3937
     10 N25        17.3090   33.6690   12.9150 N.am      1 F17        -0.2621
     11 C26        17.8290   32.2930   12.9130 C.3       1 F17         0.1405
     12 C27        19.2070   32.3860   13.5310 C.2       1 F17         0.2061
     13 O30        20.0390   33.1740   13.0870 O.2       1 F17        -0.3942
     14 N31        19.4480   31.5810   14.5730 N.am      1 F17        -0.2617
     15 C32        20.7900   31.6630   15.1500 C.3       1 F17         0.1408
     16 C33        21.8200   30.7320   14.4940 C.2       1 F17         0.2014
     17 O34        22.9450   31.1490   14.2010 O.2       1 F17        -0.3945
     18 C35        20.6330   31.3440   16.6410 C.3       1 F17         0.0236
     19 N40        21.4050   29.4750   14.2970 N.am      1 F17        -0.2988
     20 C43        18.5380   30.3450   11.4180 C.ar      1 F17        -0.0386
     21 C46        17.7440   29.2300   11.7190 C.ar      1 F17        -0.0601
     22 C47        18.2910   27.9440   11.6660 C.ar      1 F17        -0.0686
     23 C48        19.6370   27.7920   11.3100 C.ar      1 F17        -0.0687
     24 C49        20.4420   28.8960   11.0070 C.ar      1 F17        -0.0686
     25 C50        19.8840   30.1790   11.0630 C.ar      1 F17        -0.0601
     26 C7         17.9320   31.7530   11.4790 C.3       1 F17         0.0214
     27 C71        25.4900   31.5340   19.7980 C.2       1 F17         0.1322
     28 C72        26.8490   31.2240   19.5100 C.2       1 F17         0.0357
     29 C73        27.5610   31.3300   20.8210 C.2       1 F17         0.2108
     30 N74        26.8440   31.6780   21.9060 N.am      1 F17        -0.1547
     31 S75        25.3420   31.8850   21.4740 S.o2      1 F17         0.0956
     32 O67        24.9180   33.2260   21.6930 O.2       1 F17        -0.1437
     33 O77        24.4740   30.9430   22.1140 O.2       1 F17        -0.1437
     34 O78        28.7580   31.0540   20.8700 O.2       1 F17        -0.3910
     35 C61        24.2650   31.4950   18.9610 C.ar      1 F17         0.0065
     36 C62        23.6730   30.2640   18.6620 C.ar      1 F17        -0.0537
     37 C63        22.4980   30.2170   17.9060 C.ar      1 F17        -0.0549
     38 C64        21.9110   31.4000   17.4470 C.ar      1 F17        -0.0339
     39 C65        22.5040   32.6370   17.7380 C.ar      1 F17        -0.0549
     40 C66        23.6840   32.6860   18.4980 C.ar      1 F17        -0.0537
     41 C8          7.9750   33.6630   12.9000 C.2       1 F17         0.2109
     42 C9          9.4150   33.3630   12.8390 C.2       1 F17         0.0359
     43 C10        10.0140   34.5970   13.2780 C.2       1 F17         0.1324
     44 S1          8.8840   35.7510   13.6390 S.o2      1 F17         0.0957
     45 N1          7.5520   34.9050   13.3100 N.am      1 F17        -0.1547
     46 O1          7.2440   32.7400   12.5470 O.2       1 F17        -0.3909
     47 O2          9.0120   36.8900   12.7770 O.2       1 F17        -0.1437
     48 O3          8.9470   36.1200   15.0230 O.2       1 F17        -0.1437
     49 H1         11.5184   34.5801   15.5419 H         1 F17         0.0639
     50 H2         11.7705   35.1557   11.2834 H         1 F17         0.0639
     51 H3         14.2266   35.4928   11.4725 H         1 F17         0.0575
     52 H4         13.9730   34.9143   15.7307 H         1 F17         0.0575
     53 H5         16.0450   35.8541   14.6831 H         1 F17         0.0670
     54 H6         16.1669   35.9818   12.8955 H         1 F17         0.0670
     55 H7         17.7503   34.3897   12.3804 H         1 F17         0.1886
     56 H8         17.1799   31.6347   13.5091 H         1 F17         0.0823
     57 H9         18.7524   30.9607   14.9354 H         1 F17         0.1885
     58 H10        21.1558   32.6943   15.0375 H         1 F17         0.0825
     59 H11        20.2179   30.3293   16.7305 H         1 F17         0.0485
     60 H12        19.9264   32.0686   17.0719 H         1 F17         0.0485
     61 H13        22.0173   28.8067   13.8746 H         1 F17         0.1815
     62 H14        20.4826   29.2041   14.5722 H         1 F17         0.1815
     63 H15        16.7040   29.3647   11.9934 H         1 F17         0.0557
     64 H16        17.6821   27.0775   11.8971 H         1 F17         0.0599
     65 H17        20.0649   26.7969   11.2682 H         1 F17         0.0559
     66 H18        21.4819   28.7599   10.7331 H         1 F17         0.0599
     67 H19        20.4936   31.0450   10.8316 H         1 F17         0.0557
     68 H20        18.5649   32.4341   10.8912 H         1 F17         0.0474
     69 H21        16.9231   31.7210   11.0418 H         1 F17         0.0474
     70 H22        27.2780   30.9653   18.5431 H         1 F17         0.0651
     71 H23        27.2044   31.7871   22.8324 H         1 F17         0.2130
     72 H24        24.1256   29.3451   19.0168 H         1 F17         0.0639
     73 H25        22.0411   29.2615   17.6752 H         1 F17         0.0571
     74 H26        22.0523   33.5539   17.3769 H         1 F17         0.0571
     75 H27        24.1446   33.6404   18.7263 H         1 F17         0.0639
     76 H28         9.9051   32.4385   12.5372 H         1 F17         0.0652
     77 H29         6.6064   35.2207   13.3885 H         1 F17         0.2130
@<TRIPOS>BOND
     1    2    1 ar 
     2    1    6 ar 
     3    2    3 ar 
     4   43    2 1  
     5    3    4 ar 
     6    4    5 ar 
     7    6    5 ar 
     8    5    7 1  
     9    7    8 1  
    10    8    9 2  
    11    8   10 am 
    12   10   11 1  
    13   11   12 1  
    14   11   26 1  
    15   12   13 2  
    16   12   14 am 
    17   14   15 1  
    18   15   16 1  
    19   15   18 1  
    20   16   17 2  
    21   16   19 am 
    22   18   38 1  
    23   20   21 ar 
    24   20   25 ar 
    25   26   20 1  
    26   21   22 ar 
    27   22   23 ar 
    28   24   23 ar 
    29   25   24 ar 
    30   27   28 2  
    31   27   31 1  
    32   35   27 1  
    33   28   29 1  
    34   30   29 am 
    35   29   34 2  
    36   31   30 am 
    37   31   32 2  
    38   31   33 2  
    39   36   35 ar 
    40   40   35 ar 
    41   37   36 ar 
    42   38   37 ar 
    43   38   39 ar 
    44   39   40 ar 
    45   42   41 1  
    46   41   45 am 
    47   41   46 2  
    48   42   43 2  
    49   43   44 1  
    50   44   45 am 
    51   44   47 2  
    52   44   48 2  
    53    1   49 1  
    54    3   50 1  
    55    4   51 1  
    56    6   52 1  
    57    7   53 1  
    58    7   54 1  
    59   10   55 1  
    60   11   56 1  
    61   14   57 1  
    62   15   58 1  
    63   18   59 1  
    64   18   60 1  
    65   19   61 1  
    66   19   62 1  
    67   21   63 1  
    68   22   64 1  
    69   23   65 1  
    70   24   66 1  
    71   25   67 1  
    72   26   68 1  
    73   26   69 1  
    74   28   70 1  
    75   30   71 1  
    76   36   72 1  
    77   37   73 1  
    78   39   74 1  
    79   40   75 1  
    80   42   76 1  
    81   45   77 1  
@<TRIPOS>SUBSTRUCTURE
     1 F17         1

