### 
### Created by X-TOOL on Mon Sep 10 21:12:54 2018
### 

@<TRIPOS>MOLECULE
2cmf_ligand
   71    76     1     0     0
SMALL
GAST_HUCK


@<TRIPOS>ATOM
      1 C1          2.6810   61.3490   70.9040 C.ar      1 F11         0.0105
      2 C2          2.3550   62.6420   70.3940 C.ar      1 F11         0.0054
      3 C3          3.3490   63.3290   69.4540 C.3       1 F11        -0.0210
      4 C4          4.4740   62.4170   68.8940 C.3       1 F11        -0.0439
      5 C5          5.1080   61.5750   70.0400 C.3       1 F11        -0.0400
      6 C6          4.0090   60.6260   70.5830 C.3       1 F11        -0.0081
      7 N7          1.7750   60.7160   71.7460 N.ar      1 F11        -0.3281
      8 C8          0.5370   61.2540   72.1410 C.ar      1 F11         0.0179
      9 C9          0.1790   62.5740   71.6560 C.ar      1 F11         0.0197
     10 C10         1.1290   63.2700   70.7990 C.ar      1 F11         0.0689
     11 N11         0.7260   64.5200   70.5170 N.pl3     1 F11        -0.3142
     12 C14        -1.1180   63.0830   72.0800 C.ar      1 F11        -0.0528
     13 C15        -1.9500   62.3430   72.9190 C.ar      1 F11        -0.0632
     14 C16        -1.5580   61.0380   73.4010 C.ar      1 F11        -0.0640
     15 C17        -0.3220   60.4970   73.0080 C.ar      1 F11        -0.0521
     16 C19         1.4380   69.1680   67.4270 C.3       1 F11         0.0270
     17 C20         1.1400   67.6800   67.4510 C.3       1 F11        -0.0327
     18 C21         1.3180   67.1910   68.8680 C.3       1 F11        -0.0494
     19 C24         0.1030   66.5030   69.3850 C.3       1 F11        -0.0327
     20 C25         0.2530   65.0040   69.2530 C.3       1 F11         0.0270
     21 C26         5.1810   69.2610   64.0180 C.ar      1 F11         0.0105
     22 C27         3.8250   69.1890   64.4150 C.ar      1 F11         0.0054
     23 C28         2.8140   68.7040   63.4030 C.3       1 F11        -0.0210
     24 C29         3.3870   67.9880   62.1990 C.3       1 F11        -0.0439
     25 C30         4.4890   68.8380   61.6000 C.3       1 F11        -0.0400
     26 C31         5.6450   68.9320   62.6300 C.3       1 F11        -0.0081
     27 N32         6.1300   69.6630   64.9300 N.ar      1 F11        -0.3281
     28 C33         5.8830   69.9980   66.2490 C.ar      1 F11         0.0179
     29 C34         4.5120   69.9460   66.7380 C.ar      1 F11         0.0197
     30 C35         3.4360   69.5740   65.7400 C.ar      1 F11         0.0689
     31 N36         2.1020   69.6260   66.1850 N.pl3     1 F11        -0.3142
     32 C39         4.3660   70.3060   68.1340 C.ar      1 F11        -0.0528
     33 C40         5.4600   70.6940   68.9400 C.ar      1 F11        -0.0632
     34 C41         6.7980   70.7530   68.4120 C.ar      1 F11        -0.0640
     35 C42         7.0090   70.3990   67.0750 C.ar      1 F11        -0.0521
     36 H1          3.8237   64.1538   70.0057 H         1 F11         0.0386
     37 H2          2.7850   63.7349   68.6013 H         1 F11         0.0386
     38 H3          5.2512   63.0425   68.4307 H         1 F11         0.0284
     39 H4          4.0496   61.7397   68.1383 H         1 F11         0.0284
     40 H5          5.4612   62.2389   70.8428 H         1 F11         0.0292
     41 H6          5.9530   60.9877   69.6514 H         1 F11         0.0292
     42 H7          3.8113   59.8520   69.8268 H         1 F11         0.0453
     43 H8          4.3803   60.1526   71.5039 H         1 F11         0.0453
     44 H9          0.7603   65.2013   71.2887 H         1 F11         0.1815
     45 H10        -1.4434   64.0581   71.7359 H         1 F11         0.0636
     46 H11        -2.9084   62.7539   73.2152 H         1 F11         0.0585
     47 H12        -2.2128   60.4805   74.0610 H         1 F11         0.0621
     48 H13        -0.0194   59.5162   73.3565 H         1 F11         0.0590
     49 H14         2.0940   69.4038   68.2779 H         1 F11         0.0520
     50 H15         0.4887   69.7133   67.5337 H         1 F11         0.0520
     51 H16         1.8346   67.1494   66.7831 H         1 F11         0.0285
     52 H17         0.1058   67.5011   67.1216 H         1 F11         0.0285
     53 H18         1.5385   68.0531   69.5147 H         1 F11         0.0267
     54 H19         2.1622   66.4864   68.8957 H         1 F11         0.0267
     55 H20        -0.7737   66.8322   68.8080 H         1 F11         0.0285
     56 H21        -0.0373   66.7617   70.4449 H         1 F11         0.0285
     57 H22        -0.7179   64.5465   69.0120 H         1 F11         0.0520
     58 H23         0.9779   64.7647   68.4610 H         1 F11         0.0520
     59 H24         2.2511   69.5772   63.0414 H         1 F11         0.0386
     60 H25         2.1286   68.0118   63.9140 H         1 F11         0.0386
     61 H26         2.5952   67.8303   61.4519 H         1 F11         0.0284
     62 H27         3.7979   67.0158   62.5087 H         1 F11         0.0284
     63 H28         4.1043   69.8447   61.3796 H         1 F11         0.0292
     64 H29         4.8543   68.3738   60.6721 H         1 F11         0.0292
     65 H30         6.1673   67.9643   62.6571 H         1 F11         0.0453
     66 H31         6.3426   69.7161   62.3005 H         1 F11         0.0453
     67 H32         1.4600   70.0709   65.5136 H         1 F11         0.1815
     68 H33         3.3776   70.2765   68.5780 H         1 F11         0.0636
     69 H34         5.2879   70.9528   69.9785 H         1 F11         0.0585
     70 H35         7.6258   71.0656   69.0381 H         1 F11         0.0621
     71 H36         8.0088   70.4238   66.6569 H         1 F11         0.0590
@<TRIPOS>BOND
     1    2    1 ar 
     2    1    6 1  
     3    1    7 ar 
     4    2    3 1  
     5   10    2 ar 
     6    3    4 1  
     7    4    5 1  
     8    6    5 1  
     9    8    7 ar 
    10    9    8 ar 
    11    8   15 ar 
    12   10    9 ar 
    13    9   12 ar 
    14   11   10 1  
    15   20   11 1  
    16   12   13 ar 
    17   13   14 ar 
    18   15   14 ar 
    19   16   17 1  
    20   31   16 1  
    21   17   18 1  
    22   18   19 1  
    23   19   20 1  
    24   22   21 ar 
    25   21   26 1  
    26   21   27 ar 
    27   22   23 1  
    28   30   22 ar 
    29   23   24 1  
    30   24   25 1  
    31   26   25 1  
    32   28   27 ar 
    33   29   28 ar 
    34   28   35 ar 
    35   30   29 ar 
    36   29   32 ar 
    37   30   31 1  
    38   32   33 ar 
    39   33   34 ar 
    40   34   35 ar 
    41    3   36 1  
    42    3   37 1  
    43    4   38 1  
    44    4   39 1  
    45    5   40 1  
    46    5   41 1  
    47    6   42 1  
    48    6   43 1  
    49   11   44 1  
    50   12   45 1  
    51   13   46 1  
    52   14   47 1  
    53   15   48 1  
    54   16   49 1  
    55   16   50 1  
    56   17   51 1  
    57   17   52 1  
    58   18   53 1  
    59   18   54 1  
    60   19   55 1  
    61   19   56 1  
    62   20   57 1  
    63   20   58 1  
    64   23   59 1  
    65   23   60 1  
    66   24   61 1  
    67   24   62 1  
    68   25   63 1  
    69   25   64 1  
    70   26   65 1  
    71   26   66 1  
    72   31   67 1  
    73   32   68 1  
    74   33   69 1  
    75   34   70 1  
    76   35   71 1  
@<TRIPOS>SUBSTRUCTURE
     1 F11         1

