### 
### Created by X-TOOL on Mon Sep 10 21:12:54 2018
### 

@<TRIPOS>MOLECULE
2cmo_ligand
   64    67     1     0     0
SMALL
GAST_HUCK


@<TRIPOS>ATOM
      1 C1          3.8380   30.6400   25.6870 C.3       1 M1L         0.0171
      2 C2          5.6850   28.9420   22.6550 C.ar      1 M1L        -0.0700
      3 C3          6.1790   30.0820   21.9990 C.ar      1 M1L         0.0155
      4 C4          5.9460   31.3830   22.5080 C.ar      1 M1L         0.0776
      5 C5          5.1940   31.6010   23.6910 C.ar      1 M1L         0.0272
      6 C6          4.6660   30.4370   24.3900 C.ar      1 M1L        -0.0336
      7 C7          4.9180   29.0890   23.8560 C.ar      1 M1L        -0.0349
      8 C8          3.5040   32.1040   26.0480 C.3       1 M1L        -0.0225
      9 N1          4.6560   33.0140   25.6950 N.4       1 M1L         0.2434
     10 C10         4.9440   32.9920   24.2180 C.3       1 M1L        -0.0041
     11 N2          6.5350   32.3450   21.6870 N.am      1 M1L        -0.2364
     12 C11         7.1810   31.7660   20.6180 C.2       1 M1L         0.2427
     13 O1          7.7900   32.3090   19.7210 O.2       1 M1L        -0.3732
     14 C12         6.9820   30.2470   20.7710 C.2       1 M1L         0.1525
     15 N3          7.4860   29.4200   19.8840 N.2       1 M1L        -0.1210
     16 C13         4.4010   34.4110   26.1520 C.3       1 M1L        -0.0419
     17 C14         4.5370   26.1010   26.2450 C.ar      1 M1L        -0.0380
     18 C15         5.0480   27.2880   25.6510 C.ar      1 M1L        -0.0576
     19 C16         4.4120   27.8530   24.4930 C.ar      1 M1L        -0.0320
     20 C17         3.2580   27.1970   23.9500 C.ar      1 M1L        -0.0576
     21 C18         2.7480   26.0140   24.5390 C.ar      1 M1L        -0.0380
     22 C19         3.3860   25.4690   25.6840 C.ar      1 M1L         0.1053
     23 S1          2.7370   23.9890   26.4220 S.o2      1 M1L         0.0688
     24 N4          3.4860   22.7780   25.5210 N.am      1 M1L        -0.2405
     25 O2          1.3050   23.9500   26.1630 O.2       1 M1L        -0.1505
     26 O3          3.2040   23.9260   27.7970 O.2       1 M1L        -0.1505
     27 C20         2.7760   22.0550   24.4610 C.3       1 M1L         0.0178
     28 C21         4.8800   22.3840   25.7470 C.3       1 M1L         0.0178
     29 O4          7.2140   28.0640   20.1490 O.3       1 M1L        -0.2050
     30 C22         7.8000   27.2240   19.1280 C.3       1 M1L         0.1635
     31 C23         7.9200   25.7860   19.6740 C.3       1 M1L         0.0171
     32 C24         8.7750   25.6810   20.9400 C.3       1 M1L         0.0487
     33 O5         10.0190   26.3620   20.7750 O.3       1 M1L        -0.3948
     34 C25         6.9130   27.2150   17.8580 C.2       1 M1L         0.0730
     35 O6          7.5040   27.3820   16.7500 O.co2     1 M1L        -0.5659
     36 O7          5.6620   27.0490   17.9910 O.co2     1 M1L        -0.5659
     37 H1          4.4080   30.2079   26.5226 H         1 M1L         0.0467
     38 H2          2.8890   30.0961   25.5704 H         1 M1L         0.0467
     39 H3          5.8835   27.9547   22.2538 H         1 M1L         0.0515
     40 H4          3.3057   32.1740   27.1277 H         1 M1L         0.0837
     41 H5          2.6101   32.4192   25.4898 H         1 M1L         0.0837
     42 H6          5.4742   32.6741   26.1756 H         1 M1L         0.2043
     43 H7          4.0817   33.4197   23.6856 H         1 M1L         0.0932
     44 H8          5.8357   33.6064   24.0248 H         1 M1L         0.0932
     45 H9          6.4932   33.3301   21.8538 H         1 M1L         0.2243
     46 H10         4.1923   34.4111   27.2320 H         1 M1L         0.0778
     47 H11         3.5355   34.8215   25.6113 H         1 M1L         0.0778
     48 H12         5.2872   35.0305   25.9498 H         1 M1L         0.0778
     49 H13         5.0189   25.6783   27.1192 H         1 M1L         0.0629
     50 H14         5.9223   27.7692   26.0743 H         1 M1L         0.0595
     51 H15         2.7690   27.6125   23.0763 H         1 M1L         0.0595
     52 H16         1.8756   25.5277   24.1178 H         1 M1L         0.0629
     53 H17         3.4506   21.3140   24.0073 H         1 M1L         0.0442
     54 H18         2.4426   22.7668   23.6915 H         1 M1L         0.0442
     55 H19         1.9023   21.5417   24.8890 H         1 M1L         0.0442
     56 H20         5.1518   21.5801   25.0471 H         1 M1L         0.0442
     57 H21         4.9968   22.0256   26.7804 H         1 M1L         0.0442
     58 H22         5.5372   23.2507   25.5830 H         1 M1L         0.0442
     59 H23         8.7990   27.6059   18.8707 H         1 M1L         0.0869
     60 H24         8.3728   25.1548   18.8952 H         1 M1L         0.0337
     61 H25         6.9101   25.4160   19.9047 H         1 M1L         0.0337
     62 H26         8.9714   24.6202   21.1546 H         1 M1L         0.0559
     63 H27         8.2279   26.1303   21.7819 H         1 M1L         0.0559
     64 H28        10.5303   26.2827   21.5718 H         1 M1L         0.2094
@<TRIPOS>BOND
     1    6    1 1  
     2    1    8 1  
     3    2    3 ar 
     4    7    2 ar 
     5    3    4 ar 
     6    3   14 1  
     7    5    4 ar 
     8    4   11 1  
     9    6    5 ar 
    10    5   10 1  
    11    7    6 ar 
    12   19    7 1  
    13    8    9 1  
    14   10    9 1  
    15    9   16 1  
    16   11   12 am 
    17   12   13 2  
    18   14   12 1  
    19   14   15 2  
    20   15   29 1  
    21   18   17 ar 
    22   17   22 ar 
    23   18   19 ar 
    24   19   20 ar 
    25   20   21 ar 
    26   21   22 ar 
    27   22   23 1  
    28   23   24 am 
    29   23   25 2  
    30   23   26 2  
    31   24   27 1  
    32   24   28 1  
    33   29   30 1  
    34   30   31 1  
    35   30   34 1  
    36   31   32 1  
    37   32   33 1  
    38   34   35 ar 
    39   34   36 ar 
    40    1   37 1  
    41    1   38 1  
    42    2   39 1  
    43    8   40 1  
    44    8   41 1  
    45    9   42 1  
    46   10   43 1  
    47   10   44 1  
    48   11   45 1  
    49   16   46 1  
    50   16   47 1  
    51   16   48 1  
    52   17   49 1  
    53   18   50 1  
    54   20   51 1  
    55   21   52 1  
    56   27   53 1  
    57   27   54 1  
    58   27   55 1  
    59   28   56 1  
    60   28   57 1  
    61   28   58 1  
    62   30   59 1  
    63   31   60 1  
    64   31   61 1  
    65   32   62 1  
    66   32   63 1  
    67   33   64 1  
@<TRIPOS>SUBSTRUCTURE
     1 M1L         1

