### 
### Created by X-TOOL on Mon Sep 10 21:12:54 2018
### 

@<TRIPOS>MOLECULE
2cn0_ligand
   59    63     1     0     0
SMALL
GAST_HUCK


@<TRIPOS>ATOM
      1 O21        16.8640  -12.8170   22.5650 O.2       1 F25        -0.3960
      2 C20        17.5040  -12.5270   21.6090 C.2       1 F25         0.1918
      3 N19        18.5480  -13.2810   21.2360 N.am      1 F25        -0.2529
      4 C23        18.9590  -14.5280   21.8740 C.3       1 F25         0.0662
      5 C24        19.8660  -14.2790   23.0460 C.ar      1 F25        -0.0246
      6 C32        21.2520  -14.3560   22.8990 C.ar      1 F25        -0.0601
      7 C31        22.1040  -14.1210   23.9650 C.ar      1 F25        -0.0348
      8 C30        21.5670  -13.7990   25.1980 C.ar      1 F25         0.1248
      9 F29        22.3660  -13.5660   26.2570 F         1 F25        -0.1893
     10 C26        20.1910  -13.7400   25.3730 C.ar      1 F25        -0.0348
     11 C25        19.3530  -13.9740   24.3040 C.ar      1 F25        -0.0601
     12 C17        19.1150  -12.8730   19.9570 C.3       1 F25         0.1178
     13 C16        18.1010  -11.8300   19.4410 C.3       1 F25         0.0574
     14 C15        17.1260  -12.3820   18.4150 C.3       1 F25        -0.0109
     15 N11        15.8050  -12.3240   19.0690 N.4       1 F25         0.2536
     16 C12        14.7580  -12.0930   18.0530 C.3       1 F25        -0.0296
     17 C13        15.5070  -11.9040   16.7450 C.3       1 F25        -0.0074
     18 C14        16.9620  -11.6310   17.1050 C.3       1 F25        -0.0043
     19 C10        15.8980  -11.2230   20.0560 C.3       1 F25         0.0334
     20 C7         14.7550  -11.1930   21.0130 C.ar      1 F25         0.0071
     21 C8         13.9990  -12.3070   21.3230 C.ar      1 F25        -0.0549
     22 C9         12.9540  -12.2120   22.2370 C.ar      1 F25        -0.0632
     23 C4         12.6250  -10.9950   22.8230 C.ar      1 F25         0.0188
     24 C5         13.3740   -9.8900   22.5150 C.ar      1 F25        -0.0632
     25 C6         14.4290   -9.9880   21.6120 C.ar      1 F25        -0.0549
     26 C3         11.4790  -10.9300   23.7820 C.cat     1 F25         0.2318
     27 N1         10.7000  -11.9880   24.0450 N.pl3     1 F25        -0.2729
     28 N2         11.1970   -9.8190   24.4400 N.pl3     1 F25        -0.2729
     29 C22        17.2840  -11.3920   20.6530 C.3       1 F25         0.1115
     30 C18        20.4810  -12.2370   20.1260 C.3       1 F25         0.2627
     31 F33        20.9580  -11.8790   18.8940 F         1 F25        -0.2067
     32 F32        20.4450  -11.0850   20.8570 F         1 F25        -0.2067
     33 H1         19.4908  -15.1474   21.1368 H         1 F25         0.0678
     34 H2         18.0631  -15.0620   22.2235 H         1 F25         0.0678
     35 H3         21.6700  -14.6049   21.9303 H         1 F25         0.0548
     36 H4         23.1780  -14.1886   23.8347 H         1 F25         0.0587
     37 H5         19.7767  -13.5104   26.3480 H         1 F25         0.0587
     38 H6         18.2795  -13.9198   24.4446 H         1 F25         0.0548
     39 H7         19.1906  -13.7288   19.2701 H         1 F25         0.0623
     40 H8         18.6418  -10.9767   19.0058 H         1 F25         0.0411
     41 H9         17.4100  -13.4200   18.1873 H         1 F25         0.0857
     42 H10        15.6118  -13.1912   19.5452 H         1 F25         0.2056
     43 H11        14.1753  -11.1926   18.2974 H         1 F25         0.0815
     44 H12        14.0840  -12.9600   17.9897 H         1 F25         0.0815
     45 H13        15.0885  -11.0522   16.1889 H         1 F25         0.0319
     46 H14        15.4333  -12.8142   16.1317 H         1 F25         0.0319
     47 H15        17.6420  -12.0234   16.3345 H         1 F25         0.0322
     48 H16        17.1424  -10.5543   17.2393 H         1 F25         0.0322
     49 H17        15.8737  -10.2635   19.5186 H         1 F25         0.1046
     50 H18        14.2206  -13.2582   20.8527 H         1 F25         0.0559
     51 H19        12.3883  -13.0997   22.4958 H         1 F25         0.0599
     52 H20        13.1444   -8.9361   22.9760 H         1 F25         0.0599
     53 H21        15.0071   -9.1027   21.3729 H         1 F25         0.0559
     54 H22         9.9205  -11.9004   24.7126 H         1 F25         0.3180
     55 H23        10.8806  -12.8889   23.5796 H         1 F25         0.3180
     56 H24        11.7590   -8.9704   24.2824 H         1 F25         0.3180
     57 H25        10.4152   -9.8018   25.1104 H         1 F25         0.3180
     58 H26        17.6263  -10.4461   21.0981 H         1 F25         0.0623
     59 H27        21.1570  -12.9597   20.6063 H         1 F25         0.1042
@<TRIPOS>BOND
     1    1    2 2  
     2    2    3 am 
     3    2   29 1  
     4    3    4 1  
     5    3   12 1  
     6    4    5 1  
     7    5    6 ar 
     8    5   11 ar 
     9    6    7 ar 
    10    7    8 ar 
    11    8    9 1  
    12    8   10 ar 
    13   10   11 ar 
    14   12   13 1  
    15   12   30 1  
    16   13   14 1  
    17   13   29 1  
    18   14   15 1  
    19   14   18 1  
    20   15   16 1  
    21   15   19 1  
    22   16   17 1  
    23   17   18 1  
    24   19   20 1  
    25   19   29 1  
    26   20   21 ar 
    27   20   25 ar 
    28   21   22 ar 
    29   22   23 ar 
    30   23   24 ar 
    31   23   26 1  
    32   24   25 ar 
    33   26   27 ar 
    34   26   28 ar 
    35   30   31 1  
    36   30   32 1  
    37    4   33 1  
    38    4   34 1  
    39    6   35 1  
    40    7   36 1  
    41   10   37 1  
    42   11   38 1  
    43   12   39 1  
    44   13   40 1  
    45   14   41 1  
    46   15   42 1  
    47   16   43 1  
    48   16   44 1  
    49   17   45 1  
    50   17   46 1  
    51   18   47 1  
    52   18   48 1  
    53   19   49 1  
    54   21   50 1  
    55   22   51 1  
    56   24   52 1  
    57   25   53 1  
    58   27   54 1  
    59   27   55 1  
    60   28   56 1  
    61   28   57 1  
    62   29   58 1  
    63   30   59 1  
@<TRIPOS>SUBSTRUCTURE
     1 F25         1

