### 
### Created by X-TOOL on Mon Sep 10 21:12:54 2018
### 

@<TRIPOS>MOLECULE
2cn8_ligand
   30    32     1     0     0
SMALL
GAST_HUCK


@<TRIPOS>ATOM
      1 O1        -13.7570   47.1530   10.5760 O.2       1 DBQ        -0.3629
      2 C5        -13.7220   46.6870    9.4630 C.2       1 DBQ         0.2665
      3 N2        -14.8750   46.3520    8.8530 N.am      1 DBQ        -0.2754
      4 C6        -15.1450   45.7880    7.5560 C.3       1 DBQ         0.0481
      5 C7        -14.2640   46.3260    6.4500 C.3       1 DBQ         0.0343
      6 C4        -12.3650   46.5790    8.9350 C.2       1 DBQ         0.2059
      7 N1        -11.3060   46.8500    9.6900 N.pl3     1 DBQ        -0.2316
      8 C1        -10.1040   46.9130    8.8400 C.2       1 DBQ         0.0522
      9 C2        -10.5270   46.4480    7.4510 C.2       1 DBQ        -0.0280
     10 C3        -11.9940   46.2590    7.6900 C.2       1 DBQ         0.0724
     11 C8        -12.8700   45.7750    6.6520 C.2       1 DBQ         0.0897
     12 C9        -12.3450   44.7100    5.7660 C.2       1 DBQ         0.2299
     13 N4        -11.1510   44.0540    5.6930 N.pl3     1 DBQ        -0.2285
     14 C11       -11.3070   43.2100    4.6450 C.cat     1 DBQ         0.1934
     15 N5        -10.3070   42.3740    4.2860 N.pl3     1 DBQ        -0.3352
     16 N3        -12.4590   43.2380    3.9790 N.am      1 DBQ        -0.2460
     17 C10       -13.1260   44.1760    4.6640 C.2       1 DBQ         0.2839
     18 O2        -14.3130   44.5980    4.4590 O.2       1 DBQ        -0.3527
     19 H1        -15.6930   46.5269    9.4009 H         1 DBQ         0.1850
     20 H2        -16.1925   46.0026    7.2978 H         1 DBQ         0.0558
     21 H3        -14.9976   44.6996    7.6157 H         1 DBQ         0.0558
     22 H4        -14.2406   47.4249    6.4927 H         1 DBQ         0.0569
     23 H5        -14.6540   46.0052    5.4728 H         1 DBQ         0.0569
     24 H6        -11.3226   46.9936   10.7098 H         1 DBQ         0.2555
     25 H7         -9.1077   47.2299    9.1446 H         1 DBQ         0.1066
     26 H8         -9.9358   46.2973    6.5490 H         1 DBQ         0.0387
     27 H9        -10.3235   44.1728    6.2947 H         1 DBQ         0.2382
     28 H10       -10.4317   41.7346    3.4882 H         1 DBQ         0.1761
     29 H11        -9.4204   42.3765    4.8103 H         1 DBQ         0.1761
     30 H12       -12.7478   42.7044    3.1841 H         1 DBQ         0.1823
@<TRIPOS>BOND
     1    1    2 2  
     2    2    3 am 
     3    2    6 1  
     4    3    4 1  
     5    4    5 1  
     6    5   11 1  
     7    6    7 1  
     8    6   10 2  
     9    7    8 1  
    10    8    9 2  
    11    9   10 1  
    12   10   11 1  
    13   11   12 2  
    14   12   13 1  
    15   12   17 1  
    16   13   14 ar 
    17   14   15 ar 
    18   14   16 ar 
    19   16   17 am 
    20   17   18 2  
    21    3   19 1  
    22    4   20 1  
    23    4   21 1  
    24    5   22 1  
    25    5   23 1  
    26    7   24 1  
    27    8   25 1  
    28    9   26 1  
    29   13   27 1  
    30   15   28 1  
    31   15   29 1  
    32   16   30 1  
@<TRIPOS>SUBSTRUCTURE
     1 DBQ         1

