### 
### Created by X-TOOL on Mon Sep 10 21:12:54 2018
### 

@<TRIPOS>MOLECULE
2cnf_ligand
   56    61     1     0     0
SMALL
GAST_HUCK


@<TRIPOS>ATOM
      1 C1         19.4170   16.5400   83.2150 C.3       1 F32         0.1471
      2 C2         20.7530   17.0010   82.6910 C.3       1 F32         0.0721
      3 C3         21.8460   16.1690   83.3330 C.2       1 F32         0.1996
      4 N4         21.4190   15.0290   83.8800 N.am      1 F32        -0.1561
      5 S5         19.6810   14.8000   83.5140 S.o2      1 F32         0.0754
      6 O6         18.8400   14.2580   84.8410 O.2       1 F32        -0.1483
      7 O7         19.4790   13.8540   82.1290 O.2       1 F32        -0.1483
      8 O9         23.0360   16.4570   83.3580 O.2       1 F32        -0.3952
      9 C11        18.1700   16.8260   82.3540 C.ar      1 F32        -0.0214
     10 C12        18.2520   16.7570   80.8900 C.ar      1 F32        -0.0648
     11 C13        17.0490   17.0150   80.0840 C.ar      1 F32        -0.0665
     12 C14        15.7750   17.3390   80.7530 C.ar      1 F32        -0.0446
     13 C15        15.7010   17.4080   82.2110 C.ar      1 F32        -0.0665
     14 C16        16.8980   17.1510   83.0050 C.ar      1 F32        -0.0648
     15 C21        14.5420   17.6010   79.9300 C.3       1 F32         0.0203
     16 C22        13.9430   18.9810   80.1960 C.3       1 F32         0.1361
     17 N45        12.5920   18.9940   79.6370 N.pl3     1 F32        -0.2549
     18 C17        17.7700   23.2890   78.2110 C.ar      1 F32        -0.0786
     19 C19        17.2380   22.6620   79.4490 C.ar      1 F32        -0.0656
     20 C23        16.2260   21.6070   79.3080 C.ar      1 F32         0.0208
     21 C4         15.7510   21.1790   78.0210 C.ar      1 F32         0.0784
     22 C5         16.2500   21.7770   76.7720 C.ar      1 F32        -0.0422
     23 C6         17.2770   22.8470   76.8770 C.ar      1 F32        -0.0766
     24 N11        15.6230   20.8880   80.3550 N.2       1 F32        -0.3159
     25 C25        14.8080   20.0560   79.5430 C.2       1 F32         0.1499
     26 N13        14.8000   20.1500   78.1260 N.pl3     1 F32        -0.2443
     27 C7          7.4390   21.3340   82.5600 C.ar      1 F32        -0.0745
     28 C8          7.7420   20.6070   81.3090 C.ar      1 F32        -0.0531
     29 C9          9.1430   20.2410   80.9950 C.ar      1 F32         0.0494
     30 C18        10.2320   20.5970   81.9220 C.ar      1 F32         0.0104
     31 C20         9.9310   21.3190   83.1670 C.ar      1 F32        -0.0632
     32 C24         8.5370   21.6890   83.4890 C.ar      1 F32        -0.0756
     33 S1          9.8740   19.3740   79.6030 S.3       1 F32         0.0288
     34 C10        11.5040   19.5490   80.3360 C.2       1 F32         0.1882
     35 N1         11.5550   20.2250   81.5780 N.2       1 F32        -0.3072
     36 H1         19.2408   17.0424   84.1776 H         1 F32         0.0735
     37 H2         20.9016   18.0619   82.9409 H         1 F32         0.0544
     38 H3         20.7853   16.8735   81.5989 H         1 F32         0.0544
     39 H4         21.9835   14.3987   84.4130 H         1 F32         0.2143
     40 H5         19.1922   16.5177   80.4065 H         1 F32         0.0540
     41 H6         17.0985   16.9672   79.0022 H         1 F32         0.0540
     42 H7         14.7635   17.6484   82.6991 H         1 F32         0.0540
     43 H8         16.8458   17.2010   84.0866 H         1 F32         0.0540
     44 H9         13.7882   16.8370   80.1709 H         1 F32         0.0468
     45 H10        14.8075   17.5312   78.8648 H         1 F32         0.0468
     46 H11        13.8959   19.1640   81.2796 H         1 F32         0.0865
     47 H12        12.4321   18.5853   78.7052 H         1 F32         0.1974
     48 H13        18.5187   24.0699   78.2792 H         1 F32         0.0516
     49 H14        17.5865   22.9740   80.4269 H         1 F32         0.0535
     50 H15        15.8809   21.4481   75.8073 H         1 F32         0.0541
     51 H16        17.6691   23.3079   75.9776 H         1 F32         0.0528
     52 H17        14.2704   19.6330   77.4097 H         1 F32         0.2323
     53 H18         6.4168   21.6064   82.7968 H         1 F32         0.0534
     54 H19         6.9435   20.3431   80.6251 H         1 F32         0.0557
     55 H20        10.7321   21.5800   83.8491 H         1 F32         0.0536
     56 H21         8.3173   22.2215   84.4073 H         1 F32         0.0546
@<TRIPOS>BOND
     1    1    2 1  
     2    1    5 1  
     3    9    1 1  
     4    2    3 1  
     5    4    3 am 
     6    3    8 2  
     7    5    4 am 
     8    5    6 2  
     9    5    7 2  
    10   10    9 ar 
    11   14    9 ar 
    12   11   10 ar 
    13   12   11 ar 
    14   12   13 ar 
    15   15   12 1  
    16   13   14 ar 
    17   16   15 1  
    18   17   16 1  
    19   16   25 1  
    20   34   17 1  
    21   19   18 ar 
    22   23   18 ar 
    23   20   19 ar 
    24   21   20 ar 
    25   24   20 1  
    26   21   22 ar 
    27   26   21 1  
    28   22   23 ar 
    29   25   24 2  
    30   25   26 1  
    31   28   27 ar 
    32   27   32 ar 
    33   29   28 ar 
    34   29   30 ar 
    35   33   29 1  
    36   30   31 ar 
    37   30   35 1  
    38   31   32 ar 
    39   33   34 1  
    40   34   35 2  
    41    1   36 1  
    42    2   37 1  
    43    2   38 1  
    44    4   39 1  
    45   10   40 1  
    46   11   41 1  
    47   13   42 1  
    48   14   43 1  
    49   15   44 1  
    50   15   45 1  
    51   16   46 1  
    52   17   47 1  
    53   18   48 1  
    54   19   49 1  
    55   22   50 1  
    56   23   51 1  
    57   26   52 1  
    58   27   53 1  
    59   28   54 1  
    60   31   55 1  
    61   32   56 1  
@<TRIPOS>SUBSTRUCTURE
     1 F32         1

