### 
### Created by X-TOOL on Mon Sep 10 21:12:54 2018
### 

@<TRIPOS>MOLECULE
2cng_ligand
   52    55     1     0     0
SMALL
GAST_HUCK


@<TRIPOS>ATOM
      1 C1          5.9160   10.8390   49.1060 C.3       1 IZE         0.1471
      2 C2          6.1830   12.2230   48.6140 C.3       1 IZE         0.0721
      3 C3          7.3920   12.7570   49.3270 C.2       1 IZE         0.1996
      4 N4          8.1520   11.8190   49.8670 N.am      1 IZE        -0.1561
      5 S5          7.5610   10.1750   49.4430 S.o2      1 IZE         0.0754
      6 O6          7.4850    9.0530   50.6310 O.2       1 IZE        -0.1483
      7 O7          8.0970    9.5930   48.0470 O.2       1 IZE        -0.1483
      8 O9          7.6920   13.9370   49.4500 O.2       1 IZE        -0.3952
      9 C11         5.0870    9.9100   48.2600 C.ar      1 IZE        -0.0214
     10 C12         5.2100    9.9330   46.7940 C.ar      1 IZE        -0.0648
     11 C13         4.4050    9.0210   45.9870 C.ar      1 IZE        -0.0665
     12 C14         3.4790    8.0900   46.6460 C.ar      1 IZE        -0.0443
     13 C15         3.3640    8.0780   48.1010 C.ar      1 IZE        -0.0665
     14 C16         4.1640    8.9850   48.9030 C.ar      1 IZE        -0.0648
     15 C21         2.6470    7.1410   45.8240 C.3       1 IZE         0.0214
     16 C22         1.1450    7.3090   46.1010 C.3       1 IZE         0.1393
     17 N45         0.4280    6.2270   45.4160 N.am      1 IZE        -0.2524
     18 C17        -0.4890   12.9260   44.3330 C.ar      1 IZE         0.0263
     19 C19        -0.3270   12.0680   45.5210 C.ar      1 IZE        -0.0087
     20 C23         0.0620   10.6740   45.3630 C.ar      1 IZE         0.1124
     21 C4          0.2570   10.1370   44.0200 C.ar      1 IZE         0.0539
     22 C5          0.0680   10.9650   42.8330 C.ar      1 IZE        -0.0386
     23 C6         -0.2900   12.3660   42.9840 C.ar      1 IZE        -0.0521
     24 N11         0.3420    9.7300   46.3550 N.pl3     1 IZE        -0.2303
     25 C25         0.7170    8.6520   45.5310 C.2       1 IZE         0.1662
     26 N13         0.7010    8.8140   44.1310 N.2       1 IZE        -0.2865
     27 C28        -0.8430   14.3180   44.5330 C.3       1 IZE         0.3606
     28 F1         -0.1750   15.2050   43.6320 F         1 IZE        -0.2331
     29 F3         -0.4500   14.8640   45.7810 F         1 IZE        -0.2331
     30 F2         -2.2330   14.5230   44.3920 F         1 IZE        -0.2331
     31 C7         -0.8310    5.9530   45.7520 C.2       1 IZE         0.3041
     32 C8         -1.5740    4.8780   45.0040 C.3       1 IZE         0.4752
     33 O1         -1.3940    6.5790   46.6590 O.2       1 IZE        -0.3348
     34 F4         -2.9420    4.8140   45.3780 F         1 IZE        -0.1699
     35 F6         -0.9190    3.6360   45.0130 F         1 IZE        -0.1699
     36 F5         -1.6050    5.1590   43.6240 F         1 IZE        -0.1699
     37 H1          5.3746   10.9324   50.0589 H         1 IZE         0.0735
     38 H2          5.3149   12.8653   48.8235 H         1 IZE         0.0544
     39 H3          6.3705   12.2019   47.5303 H         1 IZE         0.0544
     40 H4          8.9526   12.0009   50.4379 H         1 IZE         0.2143
     41 H5          5.8949   10.6237   46.3156 H         1 IZE         0.0540
     42 H6          4.4901    9.0306   44.9064 H         1 IZE         0.0540
     43 H7          2.6794    7.3899   48.5836 H         1 IZE         0.0540
     44 H8          4.0744    8.9740   49.9832 H         1 IZE         0.0540
     45 H9          2.9402    6.1090   46.0669 H         1 IZE         0.0471
     46 H10         2.8358    7.3345   44.7578 H         1 IZE         0.0471
     47 H11         0.9443    7.2723   47.1819 H         1 IZE         0.0883
     48 H12         0.8831    5.6977   44.6999 H         1 IZE         0.1905
     49 H13        -0.4974   12.4748   46.5112 H         1 IZE         0.0813
     50 H14         0.1938   10.5379   41.8447 H         1 IZE         0.0618
     51 H15        -0.4099   12.9952   42.1095 H         1 IZE         0.0701
     52 H16         0.2897    9.8016   47.3812 H         1 IZE         0.2363
@<TRIPOS>BOND
     1    1    2 1  
     2    1    5 1  
     3    9    1 1  
     4    2    3 1  
     5    4    3 am 
     6    3    8 2  
     7    5    4 am 
     8    5    6 2  
     9    5    7 2  
    10   10    9 ar 
    11   14    9 ar 
    12   11   10 ar 
    13   12   11 ar 
    14   12   13 ar 
    15   15   12 1  
    16   13   14 ar 
    17   16   15 1  
    18   16   17 1  
    19   25   16 1  
    20   17   31 am 
    21   19   18 ar 
    22   18   23 ar 
    23   18   27 1  
    24   20   19 ar 
    25   20   21 ar 
    26   24   20 1  
    27   21   22 ar 
    28   21   26 1  
    29   22   23 ar 
    30   24   25 1  
    31   25   26 2  
    32   27   28 1  
    33   27   29 1  
    34   27   30 1  
    35   31   32 1  
    36   31   33 2  
    37   32   34 1  
    38   32   35 1  
    39   32   36 1  
    40    1   37 1  
    41    2   38 1  
    42    2   39 1  
    43    4   40 1  
    44   10   41 1  
    45   11   42 1  
    46   13   43 1  
    47   14   44 1  
    48   15   45 1  
    49   15   46 1  
    50   16   47 1  
    51   17   48 1  
    52   19   49 1  
    53   22   50 1  
    54   23   51 1  
    55   24   52 1  
@<TRIPOS>SUBSTRUCTURE
     1 IZE         1

