### 
### Created by X-TOOL on Mon Sep 10 21:12:54 2018
### 

@<TRIPOS>MOLECULE
2cnh_ligand
   67    72     1     0     0
SMALL
GAST_HUCK


@<TRIPOS>ATOM
      1 C1         19.4890   16.6620   81.4060 C.3       1 IZB         0.1471
      2 C2         20.8210   17.1900   80.9500 C.3       1 IZB         0.0721
      3 C3         21.8930   16.3940   81.6000 C.2       1 IZB         0.1996
      4 N4         21.5010   15.1850   82.0170 N.am      1 IZB        -0.1561
      5 S5         19.7760   14.9170   81.6510 S.o2      1 IZB         0.0754
      6 O6         18.9720   14.4430   82.9620 O.2       1 IZB        -0.1483
      7 O7         19.6420   14.0860   80.2520 O.2       1 IZB        -0.1483
      8 O9         23.0440   16.7680   81.7700 O.2       1 IZB        -0.3952
      9 C11        18.2840   16.9220   80.5280 C.ar      1 IZB        -0.0214
     10 C12        18.4170   16.8970   79.0690 C.ar      1 IZB        -0.0648
     11 C13        17.2350   17.1070   78.2290 C.ar      1 IZB        -0.0665
     12 C14        15.9240   17.3440   78.8560 C.ar      1 IZB        -0.0451
     13 C15        15.7990   17.3710   80.3120 C.ar      1 IZB        -0.0665
     14 C16        16.9720   17.1610   81.1470 C.ar      1 IZB        -0.0648
     15 C21        14.7130   17.5900   77.9990 C.3       1 IZB         0.0157
     16 C22        14.1330   18.9900   78.2310 C.3       1 IZB         0.1275
     17 N45        12.8100   19.0650   77.5950 N.am      1 IZB        -0.2238
     18 S1         11.7160   20.3830   78.0110 S.o2      1 IZB         0.0627
     19 O1         10.2450   19.7860   77.5090 O.2       1 IZB        -0.1519
     20 O2         11.8340   20.6580   79.6590 O.2       1 IZB        -0.1519
     21 C17        17.9850   23.5440   76.3940 C.ar      1 IZB        -0.0786
     22 C19        17.4790   22.8450   77.5990 C.ar      1 IZB        -0.0656
     23 C23        16.5060   21.7390   77.4550 C.ar      1 IZB         0.0208
     24 C4         16.0420   21.3370   76.1210 C.ar      1 IZB         0.0783
     25 C5         16.5420   22.0310   74.9170 C.ar      1 IZB        -0.0422
     26 C6         17.5160   23.1380   75.0540 C.ar      1 IZB        -0.0766
     27 N11        15.8760   20.9260   78.4170 N.2       1 IZB        -0.3163
     28 C25        15.0580   20.0610   77.6580 C.2       1 IZB         0.1447
     29 N13        15.1290   20.2730   76.2620 N.pl3     1 IZB        -0.2447
     30 C18        15.2120   25.6060   77.1330 C.3       1 IZB         0.0866
     31 O3         14.2070   24.8990   77.8540 O.3       1 IZB        -0.3218
     32 C24        13.5820   23.9570   77.1360 C.ar      1 IZB         0.1109
     33 C26        13.4300   24.0590   75.6800 C.ar      1 IZB         0.0706
     34 N5         14.0660   25.1090   74.9920 N.pl3     1 IZB        -0.3126
     35 C27        14.7030   26.1560   75.8070 C.3       1 IZB         0.0516
     36 C7         13.0460   22.8010   77.8440 C.ar      1 IZB        -0.0180
     37 C8         12.3010   21.7820   77.1110 C.ar      1 IZB         0.0862
     38 C9         12.0750   21.9270   75.6680 C.ar      1 IZB        -0.0585
     39 C10        12.6300   23.0730   74.9560 C.ar      1 IZB        -0.0507
     40 C20        14.2300   25.0330   73.5380 C.3       1 IZB         0.0134
     41 H1         19.2631   17.1244   82.3782 H         1 IZB         0.0735
     42 H2         20.9186   18.2474   81.2370 H         1 IZB         0.0544
     43 H3         20.9018   17.0978   79.8569 H         1 IZB         0.0544
     44 H4         22.0946   14.5214   82.4722 H         1 IZB         0.2143
     45 H5         19.3852   16.7240   78.6133 H         1 IZB         0.0540
     46 H6         17.3254   17.0879   77.1489 H         1 IZB         0.0540
     47 H7         14.8324   17.5475   80.7698 H         1 IZB         0.0540
     48 H8         16.8784   17.1808   82.2268 H         1 IZB         0.0540
     49 H9         13.9453   16.8407   78.2422 H         1 IZB         0.0463
     50 H10        14.9984   17.4926   76.9412 H         1 IZB         0.0463
     51 H11        14.0237   19.1589   79.3124 H         1 IZB         0.0805
     52 H12        12.5320   18.3720   76.9298 H         1 IZB         0.1714
     53 H13        18.6992   24.3530   76.4964 H         1 IZB         0.0516
     54 H14        17.8208   23.1431   78.5836 H         1 IZB         0.0535
     55 H15        16.1965   21.7305   73.9345 H         1 IZB         0.0541
     56 H16        17.8841   23.6495   74.1720 H         1 IZB         0.0528
     57 H17        14.6281   19.7659   75.5184 H         1 IZB         0.2323
     58 H18        16.0493   24.9214   76.9324 H         1 IZB         0.0628
     59 H19        15.5644   26.4453   77.7506 H         1 IZB         0.0628
     60 H20        15.5507   26.5773   75.2468 H         1 IZB         0.0535
     61 H21        13.9668   26.9480   76.0086 H         1 IZB         0.0535
     62 H22        13.2003   22.6984   78.9121 H         1 IZB         0.0521
     63 H23        11.4964   21.1834   75.1320 H         1 IZB         0.0508
     64 H24        12.4497   23.1928   73.8938 H         1 IZB         0.0481
     65 H25        13.6645   24.1731   73.1497 H         1 IZB         0.0473
     66 H26        15.2958   24.9107   73.2951 H         1 IZB         0.0473
     67 H27        13.8527   25.9580   73.0776 H         1 IZB         0.0473
@<TRIPOS>BOND
     1    1    2 1  
     2    1    5 1  
     3    9    1 1  
     4    2    3 1  
     5    4    3 am 
     6    3    8 2  
     7    5    4 am 
     8    5    6 2  
     9    5    7 2  
    10   10    9 ar 
    11   14    9 ar 
    12   11   10 ar 
    13   12   11 ar 
    14   12   13 ar 
    15   15   12 1  
    16   13   14 ar 
    17   16   15 1  
    18   17   16 1  
    19   16   28 1  
    20   18   17 am 
    21   18   19 2  
    22   18   20 2  
    23   37   18 1  
    24   22   21 ar 
    25   26   21 ar 
    26   23   22 ar 
    27   24   23 ar 
    28   27   23 1  
    29   24   25 ar 
    30   29   24 1  
    31   25   26 ar 
    32   28   27 2  
    33   28   29 1  
    34   31   30 1  
    35   30   35 1  
    36   32   31 1  
    37   32   33 ar 
    38   36   32 ar 
    39   33   34 1  
    40   33   39 ar 
    41   34   35 1  
    42   34   40 1  
    43   36   37 ar 
    44   37   38 ar 
    45   38   39 ar 
    46    1   41 1  
    47    2   42 1  
    48    2   43 1  
    49    4   44 1  
    50   10   45 1  
    51   11   46 1  
    52   13   47 1  
    53   14   48 1  
    54   15   49 1  
    55   15   50 1  
    56   16   51 1  
    57   17   52 1  
    58   21   53 1  
    59   22   54 1  
    60   25   55 1  
    61   26   56 1  
    62   29   57 1  
    63   30   58 1  
    64   30   59 1  
    65   35   60 1  
    66   35   61 1  
    67   36   62 1  
    68   38   63 1  
    69   39   64 1  
    70   40   65 1  
    71   40   66 1  
    72   40   67 1  
@<TRIPOS>SUBSTRUCTURE
     1 IZB         1

