### 
### Created by X-TOOL on Mon Sep 10 21:12:54 2018
### 

@<TRIPOS>MOLECULE
2cni_ligand
   81    84     1     0     0
SMALL
GAST_HUCK


@<TRIPOS>ATOM
      1 C1         18.9790   16.7510   82.0810 C.3       1 IZF         0.1477
      2 C2         20.2880   17.3520   81.6380 C.3       1 IZF         0.0722
      3 C3         21.3960   16.6130   82.2880 C.2       1 IZF         0.1997
      4 N4         21.0720   15.3830   82.6970 N.am      1 IZF        -0.1561
      5 S5         19.3600   14.9850   82.3430 S.o2      1 IZF         0.0755
      6 O6         18.4980   14.5970   83.7200 O.2       1 IZF        -0.1483
      7 O7         19.0820   14.1180   80.9170 O.2       1 IZF        -0.1483
      8 O9         22.5140   17.0710   82.4850 O.2       1 IZF        -0.3952
      9 C11        17.7890   16.9800   81.1460 C.ar      1 IZF        -0.0073
     10 C12        17.9760   16.9510   79.6950 C.ar      1 IZF        -0.0641
     11 C13        16.8220   17.1470   78.8100 C.ar      1 IZF        -0.0664
     12 C14        15.4890   17.3690   79.3870 C.ar      1 IZF        -0.0451
     13 C15        15.3140   17.4010   80.8330 C.ar      1 IZF        -0.0527
     14 C16        16.4550   17.2090   81.7090 C.ar      1 IZF         0.0369
     15 C21        14.2990   17.5610   78.4870 C.3       1 IZF         0.0148
     16 C22        13.6960   18.9600   78.6360 C.3       1 IZF         0.1347
     17 N45        12.3880   18.9820   77.9620 N.am      1 IZF        -0.2237
     18 S1         11.2440   20.2700   78.2180 S.o2      1 IZF         0.0706
     19 O1          9.6420   19.6250   78.0160 O.2       1 IZF        -0.1501
     20 O2         11.5240   20.8180   79.7740 O.2       1 IZF        -0.1501
     21 C23        15.6240   21.0190   76.0430 C.3       1 IZF         0.0309
     22 N11        14.7900   20.0250   76.7400 N.am      1 IZF        -0.2853
     23 C25        14.6740   19.9710   78.0630 C.2       1 IZF         0.1997
     24 C24        11.5530   22.3420   74.5890 C.ar      1 IZF        -0.0599
     25 C26        12.4470   23.4430   74.9620 C.ar      1 IZF        -0.0616
     26 C7         11.1610   21.3480   75.5920 C.ar      1 IZF        -0.0351
     27 C8         11.6610   21.4580   76.9640 C.ar      1 IZF         0.1083
     28 C9         12.5520   22.5580   77.3380 C.ar      1 IZF        -0.0351
     29 C10        12.9470   23.5510   76.3360 C.ar      1 IZF        -0.0599
     30 C27        16.8840   19.3850   74.5090 C.3       1 IZF        -0.0488
     31 C18        16.9930   20.4720   75.5760 C.3       1 IZF        -0.0327
     32 O3         15.3550   20.6900   78.7890 O.2       1 IZF        -0.3948
     33 CL1        16.2490   17.2640   83.3700 Cl        1 IZF        -0.0788
     34 C4         16.6110   18.0160   75.1240 C.3       1 IZF        -0.0247
     35 C5         16.5800   16.9240   74.0610 C.3       1 IZF         0.0720
     36 C32        18.0560   16.2540   72.2310 C.ar      1 IZF         0.1061
     37 C33        17.0590   15.4080   71.5800 C.ar      1 IZF        -0.0375
     38 C34        17.2940   14.9160   70.2220 C.ar      1 IZF        -0.0744
     39 C35        18.5240   15.2680   69.5230 C.ar      1 IZF        -0.0377
     40 C36        19.5160   16.1110   70.1790 C.ar      1 IZF         0.1026
     41 C37        19.2750   16.6050   71.5350 C.ar      1 IZF         0.1181
     42 C38        20.2970   17.4880   72.2110 C.2       1 IZF         0.2509
     43 O11        21.4760   17.0340   72.4170 O.2       1 IZF        -0.3702
     44 O4         19.9200   18.6190   72.6640 O.3       1 IZF        -0.2845
     45 C39        20.8060   19.3240   73.3860 C.3       1 IZF         0.0641
     46 O14        20.6570   16.4220   69.5450 O.3       1 IZF        -0.3301
     47 O5         17.8500   16.6970   73.4780 O.3       1 IZF        -0.3150
     48 H1         18.7059   17.1996   83.0475 H         1 IZF         0.0736
     49 H2         20.3271   18.4112   81.9323 H         1 IZF         0.0544
     50 H3         20.3809   17.2715   80.5449 H         1 IZF         0.0544
     51 H4         21.7094   14.7579   83.1476 H         1 IZF         0.2143
     52 H5         18.9620   16.7856   79.2760 H         1 IZF         0.0540
     53 H6         16.9525   17.1281   77.7340 H         1 IZF         0.0542
     54 H7         14.3298   17.5685   81.2553 H         1 IZF         0.0545
     55 H8         13.5336   16.8138   78.7438 H         1 IZF         0.0456
     56 H9         14.6149   17.4184   77.4430 H         1 IZF         0.0456
     57 H10        13.5451   19.1829   79.7025 H         1 IZF         0.0775
     58 H11        12.1494   18.2366   77.3396 H         1 IZF         0.1707
     59 H12        15.8029   21.8616   76.7270 H         1 IZF         0.0520
     60 H13        15.0735   21.3744   75.1595 H         1 IZF         0.0520
     61 H14        14.2863   19.3580   76.1909 H         1 IZF         0.1851
     62 H15        11.1828   22.2635   73.5732 H         1 IZF         0.0618
     63 H16        12.7386   24.1782   74.2207 H         1 IZF         0.0618
     64 H17        10.5016   20.5322   75.3186 H         1 IZF         0.0637
     65 H18        12.9189   22.6375   78.3549 H         1 IZF         0.0637
     66 H19        13.6084   24.3649   76.6102 H         1 IZF         0.0618
     67 H20        17.8285   19.3413   73.9469 H         1 IZF         0.0267
     68 H21        16.0612   19.6387   73.8244 H         1 IZF         0.0267
     69 H22        17.5159   20.0523   76.4480 H         1 IZF         0.0285
     70 H23        17.5790   21.3067   75.1638 H         1 IZF         0.0285
     71 H24        15.6390   18.0422   75.6383 H         1 IZF         0.0291
     72 H25        17.4042   17.7856   75.8505 H         1 IZF         0.0291
     73 H26        15.8770   17.2225   73.2693 H         1 IZF         0.0617
     74 H27        16.2334   15.9892   74.5258 H         1 IZF         0.0617
     75 H28        16.1462   15.1449   72.1022 H         1 IZF         0.0464
     76 H29        16.5541   14.2903   69.7362 H         1 IZF         0.0600
     77 H30        18.7005   14.9036   68.5175 H         1 IZF         0.0464
     78 H31        20.3463   20.2700   73.7083 H         1 IZF         0.0574
     79 H32        21.6926   19.5380   72.7711 H         1 IZF         0.0574
     80 H33        21.1047   18.7416   74.2701 H         1 IZF         0.0574
     81 H34        20.6562   16.0261   68.6814 H         1 IZF         0.2507
@<TRIPOS>BOND
     1    1    2 1  
     2    1    5 1  
     3    9    1 1  
     4    2    3 1  
     5    4    3 am 
     6    3    8 2  
     7    5    4 am 
     8    5    6 2  
     9    5    7 2  
    10   10    9 ar 
    11   14    9 ar 
    12   11   10 ar 
    13   12   11 ar 
    14   12   13 ar 
    15   15   12 1  
    16   13   14 ar 
    17   14   33 1  
    18   16   15 1  
    19   16   17 1  
    20   23   16 1  
    21   17   18 am 
    22   18   19 2  
    23   18   20 2  
    24   18   27 1  
    25   21   22 1  
    26   31   21 1  
    27   22   23 am 
    28   23   32 2  
    29   24   25 ar 
    30   26   24 ar 
    31   29   25 ar 
    32   27   26 ar 
    33   27   28 ar 
    34   28   29 ar 
    35   30   31 1  
    36   34   30 1  
    37   35   34 1  
    38   47   35 1  
    39   36   37 ar 
    40   36   41 ar 
    41   36   47 1  
    42   37   38 ar 
    43   38   39 ar 
    44   39   40 ar 
    45   40   41 ar 
    46   40   46 1  
    47   41   42 1  
    48   42   43 2  
    49   42   44 1  
    50   44   45 1  
    51    1   48 1  
    52    2   49 1  
    53    2   50 1  
    54    4   51 1  
    55   10   52 1  
    56   11   53 1  
    57   13   54 1  
    58   15   55 1  
    59   15   56 1  
    60   16   57 1  
    61   17   58 1  
    62   21   59 1  
    63   21   60 1  
    64   22   61 1  
    65   24   62 1  
    66   25   63 1  
    67   26   64 1  
    68   28   65 1  
    69   29   66 1  
    70   30   67 1  
    71   30   68 1  
    72   31   69 1  
    73   31   70 1  
    74   34   71 1  
    75   34   72 1  
    76   35   73 1  
    77   35   74 1  
    78   37   75 1  
    79   38   76 1  
    80   39   77 1  
    81   45   78 1  
    82   45   79 1  
    83   45   80 1  
    84   46   81 1  
@<TRIPOS>SUBSTRUCTURE
     1 IZF         1

