### 
### Created by X-TOOL on Mon Sep 10 21:12:45 2018
### 

@<TRIPOS>MOLECULE
2csm_ligand
   24    24     1     0     0
SMALL
GAST_HUCK


@<TRIPOS>ATOM
      1 N          73.0690   71.4500   17.7680 N.4       1 TYR         0.2340
      2 CA         71.8060   72.1970   17.8620 C.3       1 TYR         0.0363
      3 C          72.0030   73.5330   17.1720 C.2       1 TYR         0.0864
      4 O          73.1500   73.8800   16.8340 O.co2     1 TYR        -0.5641
      5 CB         71.4050   72.3760   19.3310 C.3       1 TYR         0.0311
      6 CG         72.4570   73.0060   20.2280 C.ar      1 TYR        -0.0467
      7 CD1        72.7510   74.3690   20.1480 C.ar      1 TYR        -0.0684
      8 CD2        73.0930   72.2600   21.2230 C.ar      1 TYR        -0.0684
      9 CE1        73.6440   74.9790   21.0450 C.ar      1 TYR        -0.0398
     10 CE2        73.9880   72.8620   22.1240 C.ar      1 TYR        -0.0398
     11 CZ         74.2540   74.2190   22.0310 C.ar      1 TYR         0.0805
     12 OH         75.0990   74.8030   22.9570 O.3       1 TYR        -0.3376
     13 OXT        70.9930   74.1880   16.9080 O.co2     1 TYR        -0.5641
     14 H1         72.9646   70.5553   18.2204 H         1 TYR         0.2012
     15 H2         73.8027   71.9720   18.2210 H         1 TYR         0.2012
     16 H3         73.3055   71.3105   16.7981 H         1 TYR         0.2012
     17 H4         71.0116   71.6382   17.3457 H         1 TYR         0.1046
     18 H5         71.1633   71.3835   19.7389 H         1 TYR         0.0479
     19 H6         70.5089   73.0132   19.3617 H         1 TYR         0.0479
     20 H7         72.2803   74.9690   19.3776 H         1 TYR         0.0530
     21 H8         72.8927   71.1976   21.3017 H         1 TYR         0.0530
     22 H9         73.8551   76.0393   20.9664 H         1 TYR         0.0525
     23 H10        74.4696   72.2658   22.8906 H         1 TYR         0.0525
     24 H11        75.1843   75.7297   22.7660 H         1 TYR         0.2458
@<TRIPOS>BOND
     1    1    2 1  
     2    2    3 1  
     3    2    5 1  
     4    3    4 ar 
     5    3   13 ar 
     6    5    6 1  
     7    6    7 ar 
     8    6    8 ar 
     9    7    9 ar 
    10    8   10 ar 
    11    9   11 ar 
    12   10   11 ar 
    13   11   12 1  
    14    1   14 1  
    15    1   15 1  
    16    1   16 1  
    17    2   17 1  
    18    5   18 1  
    19    5   19 1  
    20    7   20 1  
    21    8   21 1  
    22    9   22 1  
    23   10   23 1  
    24   12   24 1  
@<TRIPOS>SUBSTRUCTURE
     1 TYR         1

