### 
### Created by X-TOOL on Mon Sep 10 21:12:45 2018
### 

@<TRIPOS>MOLECULE
2csn_ligand
   31    32     1     0     0
SMALL
GAST_HUCK


@<TRIPOS>ATOM
      1 C1        -26.0360   52.5440   48.7070 C.ar      1 CKI         0.0217
      2 N2        -26.3280   53.8600   48.6740 N.ar      1 CKI        -0.2974
      3 C3        -25.9600   54.6580   49.7550 C.ar      1 CKI         0.0076
      4 C4        -25.2620   54.1860   50.9050 C.ar      1 CKI        -0.0310
      5 C5        -24.2450   52.1740   52.0210 C.ar      1 CKI         0.0562
      6 CL5       -23.7540   53.0720   53.3160 Cl        1 CKI        -0.0664
      7 C6        -23.9130   50.8010   51.9750 C.ar      1 CKI        -0.0397
      8 C7        -24.2980   50.0150   50.8640 C.ar      1 CKI        -0.0281
      9 C8        -24.9970   50.6230   49.7940 C.ar      1 CKI         0.1246
     10 C9        -25.3320   51.9980   49.8130 C.ar      1 CKI         0.0361
     11 C10       -24.9430   52.7940   50.9230 C.ar      1 CKI         0.0133
     12 S         -25.5590   49.6600   48.4320 S.o2      1 CKI         0.0712
     13 O1S       -24.9030   48.4270   48.4520 O.2       1 CKI        -0.1498
     14 O2S       -26.9120   49.6470   48.6610 O.2       1 CKI        -0.1498
     15 N1'       -25.4440   50.4180   46.9100 N.am      1 CKI        -0.2420
     16 C1'       -24.4610   50.3720   45.7790 C.3       1 CKI         0.0665
     17 C2'       -24.3230   48.9460   45.1690 C.3       1 CKI        -0.0182
     18 N2'       -24.4100   47.6600   45.9210 N.4       1 CKI         0.2197
     19 H1        -26.3391   51.9018   47.8880 H         1 CKI         0.0870
     20 H2        -26.2222   55.7092   49.7193 H         1 CKI         0.0776
     21 H3        -24.9888   54.8465   51.7199 H         1 CKI         0.0714
     22 H4        -23.3624   50.3497   52.7925 H         1 CKI         0.0661
     23 H5        -24.0602   48.9579   50.8323 H         1 CKI         0.0664
     24 H6        -26.2089   51.0363   46.7296 H         1 CKI         0.1675
     25 H7        -23.4774   50.6928   46.1527 H         1 CKI         0.0528
     26 H8        -24.7968   51.0621   44.9910 H         1 CKI         0.0528
     27 H9        -23.3342   48.9324   44.6873 H         1 CKI         0.0829
     28 H10       -25.1066   48.8840   44.3995 H         1 CKI         0.0829
     29 H11       -24.2855   46.8890   45.2837 H         1 CKI         0.1995
     30 H12       -25.3137   47.5889   46.3617 H         1 CKI         0.1995
     31 H13       -23.6896   47.6333   46.6255 H         1 CKI         0.1995
@<TRIPOS>BOND
     1    1   10 ar 
     2    1    2 ar 
     3    2    3 ar 
     4    3    4 ar 
     5    4   11 ar 
     6   11   10 ar 
     7   11    5 ar 
     8    5    7 ar 
     9    5    6 1  
    10    7    8 ar 
    11    8    9 ar 
    12    9   12 1  
    13    9   10 ar 
    14   12   15 am 
    15   12   14 2  
    16   12   13 2  
    17   15   16 1  
    18   16   17 1  
    19   17   18 1  
    20    1   19 1  
    21    3   20 1  
    22    4   21 1  
    23    7   22 1  
    24    8   23 1  
    25   15   24 1  
    26   16   25 1  
    27   16   26 1  
    28   17   27 1  
    29   17   28 1  
    30   18   29 1  
    31   18   30 1  
    32   18   31 1  
@<TRIPOS>SUBSTRUCTURE
     1 CKI         1

