### 
### Created by X-TOOL on Mon Sep 10 21:12:45 2018
### 

@<TRIPOS>MOLECULE
2ctc_ligand
   21    21     1     0     0
SMALL
GAST_HUCK


@<TRIPOS>ATOM
      1 C1         -1.0160   29.4920   -8.2580 C.2       1 HFA         0.0654
      2 O11        -0.2400   30.3370   -7.7570 O.co2     1 HFA        -0.5662
      3 O12        -0.7370   28.3520   -8.6920 O.co2     1 HFA        -0.5662
      4 C2         -2.4960   29.7350   -8.5250 C.3       1 HFA         0.1166
      5 O2         -3.1430   29.9510   -7.5210 O.3       1 HFA        -0.3756
      6 C3         -2.6970   30.8080   -9.6040 C.3       1 HFA         0.0189
      7 C1'        -2.4780   30.1810  -10.9420 C.ar      1 HFA        -0.0389
      8 C2'        -1.2300   30.3900  -11.5760 C.ar      1 HFA        -0.0601
      9 C3'        -0.9480   29.8730  -12.8540 C.ar      1 HFA        -0.0686
     10 C4'        -1.8960   29.1080  -13.5440 C.ar      1 HFA        -0.0687
     11 C5'        -3.1430   28.8790  -12.9390 C.ar      1 HFA        -0.0686
     12 C6'        -3.4090   29.4290  -11.6850 C.ar      1 HFA        -0.0601
     13 H1         -2.8910   28.7971   -8.9425 H         1 HFA         0.0786
     14 H2         -4.0523   30.0933   -7.7561 H         1 HFA         0.2126
     15 H3         -1.9754   31.6246   -9.4543 H         1 HFA         0.0469
     16 H4         -3.7202   31.2073   -9.5443 H         1 HFA         0.0469
     17 H5         -0.4688   30.9655  -11.0618 H         1 HFA         0.0557
     18 H6          0.0156   30.0696  -13.3101 H         1 HFA         0.0599
     19 H7         -1.6727   28.7013  -14.5237 H         1 HFA         0.0559
     20 H8         -3.8927   28.2796  -13.4427 H         1 HFA         0.0599
     21 H9         -4.3915   29.2680  -11.2563 H         1 HFA         0.0557
@<TRIPOS>BOND
     1    1    2 ar 
     2    1    3 ar 
     3    1    4 1  
     4    4    5 1  
     5    4    6 1  
     6    6    7 1  
     7    7    8 ar 
     8    7   12 ar 
     9    8    9 ar 
    10    9   10 ar 
    11   10   11 ar 
    12   11   12 ar 
    13    4   13 1  
    14    5   14 1  
    15    6   15 1  
    16    6   16 1  
    17    8   17 1  
    18    9   18 1  
    19   10   19 1  
    20   11   20 1  
    21   12   21 1  
@<TRIPOS>SUBSTRUCTURE
     1 HFA         1

