### 
### Created by X-TOOL on Mon Sep 10 21:12:54 2018
### 

@<TRIPOS>MOLECULE
2cvd_ligand
   56    59     1     0     0
SMALL
GAST_HUCK


@<TRIPOS>ATOM
      1 C1          6.7070    7.3040   36.7770 C.ar      1 HQL        -0.0685
      2 C2          6.8250    7.5880   35.2990 C.ar      1 HQL        -0.0681
      3 C3          6.6930    8.9310   34.7530 C.ar      1 HQL        -0.0559
      4 C4          6.6630   10.0950   35.6860 C.ar      1 HQL        -0.0032
      5 C5          6.6890   11.4810   35.0690 C.3       1 HQL         0.1261
      6 O1          6.0440   12.4640   35.9510 O.3       1 HQL        -0.3484
      7 C6          5.4810   13.6180   35.2560 C.3       1 HQL         0.0738
      8 C7          4.2150   13.2210   34.2720 C.3       1 HQL         0.0144
      9 C8          3.1110   12.4910   35.1560 C.3       1 HQL        -0.0295
     10 N1          2.7810   13.5780   36.2830 N.4       1 HQL         0.2355
     11 C9          1.5590   12.8680   36.8110 C.3       1 HQL        -0.0293
     12 C10         0.9290   13.4320   38.0260 C.3       1 HQL         0.0053
     13 C11        -0.4580   13.0380   37.8260 C.3       1 HQL         0.0392
     14 C12        -1.3330   13.4360   38.9060 C.2       1 HQL         0.1628
     15 N2         -2.6030   13.5900   38.7490 N.2       1 HQL        -0.2226
     16 N3         -3.1150   13.9490   39.8810 N.2       1 HQL        -0.1532
     17 N4         -2.1640   14.0130   40.7880 N.2       1 HQL        -0.0730
     18 N5         -1.0290   13.6960   40.2350 N.pl3     1 HQL        -0.1518
     19 C13         3.8710   14.1720   37.2390 C.3       1 HQL        -0.0295
     20 C14         5.1130   14.6000   36.4320 C.3       1 HQL         0.0144
     21 C15         8.1070   11.9230   34.6410 C.ar      1 HQL        -0.0032
     22 C16         8.4030   11.9560   33.1620 C.ar      1 HQL        -0.0559
     23 C17         9.7770   12.3600   32.7020 C.ar      1 HQL        -0.0681
     24 C18        10.8200   12.7780   33.7150 C.ar      1 HQL        -0.0685
     25 C19        10.5050   12.7770   35.1650 C.ar      1 HQL        -0.0681
     26 C20         9.1420   12.3900   35.6380 C.ar      1 HQL        -0.0559
     27 C21         6.5810    9.8630   37.2030 C.ar      1 HQL        -0.0559
     28 C22         6.5700    8.4430   37.7320 C.ar      1 HQL        -0.0681
     29 H1          6.7216    6.2831   37.1411 H         1 HQL         0.0561
     30 H2          7.0145    6.7636   34.6211 H         1 HQL         0.0600
     31 H3          6.6175    9.0834   33.6824 H         1 HQL         0.0561
     32 H4          6.0859   11.4309   34.1505 H         1 HQL         0.0921
     33 H5          6.2539   14.0816   34.6253 H         1 HQL         0.0604
     34 H6          4.5599   12.5463   33.4746 H         1 HQL         0.0342
     35 H7          3.7913   14.1318   33.8239 H         1 HQL         0.0342
     36 H8          3.5079   11.5669   35.6014 H         1 HQL         0.0815
     37 H9          2.2175   12.2560   34.5590 H         1 HQL         0.0815
     38 H10         2.4561   14.4026   35.8030 H         1 HQL         0.2033
     39 H11         1.8490   11.8315   37.0378 H         1 HQL         0.0816
     40 H12         0.8023   12.8707   36.0127 H         1 HQL         0.0816
     41 H13         1.0366   14.5260   38.0665 H         1 HQL         0.0347
     42 H14         1.3473   12.9882   38.9415 H         1 HQL         0.0347
     43 H15        -0.4985   11.9429   37.7310 H         1 HQL         0.0530
     44 H16        -0.8205   13.5004   36.8961 H         1 HQL         0.0530
     45 H17        -0.1044   13.6484   40.6865 H         1 HQL         0.2709
     46 H18         4.1622   13.4092   37.9761 H         1 HQL         0.0815
     47 H19         3.4579   15.0476   37.7611 H         1 HQL         0.0815
     48 H20         4.9220   15.5955   36.0048 H         1 HQL         0.0342
     49 H21         5.9704   14.6541   37.1190 H         1 HQL         0.0342
     50 H22         7.6370   11.6925   32.4416 H         1 HQL         0.0561
     51 H23        10.0196   12.3516   31.6455 H         1 HQL         0.0600
     52 H24        11.8052   13.0806   33.3789 H         1 HQL         0.0561
     53 H25        11.2665   13.0580   35.8834 H         1 HQL         0.0600
     54 H26         8.8963   12.4440   36.6924 H         1 HQL         0.0561
     55 H27         6.5317   10.7038   37.8854 H         1 HQL         0.0561
     56 H28         6.4636    8.2560   38.7944 H         1 HQL         0.0600
@<TRIPOS>BOND
     1    1    2 ar 
     2    1   28 ar 
     3    2    3 ar 
     4    3    4 ar 
     5    4    5 1  
     6    4   27 ar 
     7    5    6 1  
     8    5   21 1  
     9    6    7 1  
    10    7    8 1  
    11    7   20 1  
    12    8    9 1  
    13    9   10 1  
    14   10   11 1  
    15   10   19 1  
    16   11   12 1  
    17   12   13 1  
    18   13   14 1  
    19   14   15 2  
    20   14   18 1  
    21   15   16 1  
    22   16   17 2  
    23   17   18 1  
    24   19   20 1  
    25   21   22 ar 
    26   21   26 ar 
    27   22   23 ar 
    28   23   24 ar 
    29   24   25 ar 
    30   25   26 ar 
    31   27   28 ar 
    32    1   29 1  
    33    2   30 1  
    34    3   31 1  
    35    5   32 1  
    36    7   33 1  
    37    8   34 1  
    38    8   35 1  
    39    9   36 1  
    40    9   37 1  
    41   10   38 1  
    42   11   39 1  
    43   11   40 1  
    44   12   41 1  
    45   12   42 1  
    46   13   43 1  
    47   13   44 1  
    48   18   45 1  
    49   19   46 1  
    50   19   47 1  
    51   20   48 1  
    52   20   49 1  
    53   22   50 1  
    54   23   51 1  
    55   24   52 1  
    56   25   53 1  
    57   26   54 1  
    58   27   55 1  
    59   28   56 1  
@<TRIPOS>SUBSTRUCTURE
     1 HQL         1

