### 
### Created by X-TOOL on Mon Sep 10 21:12:53 2018
### 

@<TRIPOS>MOLECULE
2d06_ligand
   44    47     1     0     0
SMALL
GAST_HUCK


@<TRIPOS>ATOM
      1 C1        128.6100  -58.3750    1.7680 C.ar      1 EST        -0.0749
      2 C2        129.1900  -59.6810    1.8690 C.ar      1 EST        -0.0468
      3 C3        130.1020  -60.1400    0.8620 C.ar      1 EST         0.0739
      4 O3        130.6500  -61.3880    0.9750 O.3       1 EST        -0.3393
      5 C4        130.4440  -59.3160   -0.2520 C.ar      1 EST        -0.0385
      6 C5        129.8700  -57.9880   -0.3820 C.ar      1 EST        -0.0491
      7 C6        130.2510  -57.1210   -1.6040 C.3       1 EST        -0.0236
      8 C7        129.5660  -55.7180   -1.6750 C.3       1 EST        -0.0396
      9 C8        129.2790  -55.0970   -0.3010 C.3       1 EST        -0.0259
     10 C9        128.3090  -56.0720    0.5280 C.3       1 EST        -0.0116
     11 C10       128.9250  -57.4950    0.6590 C.ar      1 EST        -0.0484
     12 C11       128.0440  -55.4080    1.9220 C.3       1 EST        -0.0421
     13 C12       127.4320  -53.9810    1.8460 C.3       1 EST        -0.0433
     14 C13       128.3200  -53.0150    1.0080 C.3       1 EST        -0.0028
     15 C14       128.5750  -53.6700   -0.4250 C.3       1 EST        -0.0285
     16 C15       129.2370  -52.4930   -1.1590 C.3       1 EST        -0.0469
     17 C16       128.2450  -51.3200   -0.8390 C.3       1 EST        -0.0261
     18 C17       127.6460  -51.6760    0.5680 C.3       1 EST         0.0609
     19 O17       127.8430  -50.5550    1.4710 O.3       1 EST        -0.3912
     20 C18       129.6430  -52.6660    1.8270 C.3       1 EST        -0.0569
     21 H1        127.9224  -58.0380    2.5353 H         1 EST         0.0511
     22 H2        128.9395  -60.3221    2.7064 H         1 EST         0.0468
     23 H3        129.9569  -62.0377    0.9803 H         1 EST         0.2457
     24 H4        131.1342  -59.6823   -1.0034 H         1 EST         0.0462
     25 H5        129.9777  -57.6776   -2.5126 H         1 EST         0.0410
     26 H6        131.3397  -56.9655   -1.5827 H         1 EST         0.0410
     27 H7        128.6125  -55.8247   -2.2130 H         1 EST         0.0290
     28 H8        130.2270  -55.0374   -2.2316 H         1 EST         0.0290
     29 H9        130.2298  -54.9795    0.2396 H         1 EST         0.0326
     30 H10       127.3521  -56.1630   -0.0068 H         1 EST         0.0429
     31 H11       129.0011  -55.3439    2.4604 H         1 EST         0.0286
     32 H12       127.3499  -56.0508    2.4832 H         1 EST         0.0286
     33 H13       127.3346  -53.5805    2.8659 H         1 EST         0.0273
     34 H14       126.4374  -54.0444    1.3804 H         1 EST         0.0273
     35 H15       127.6111  -53.8634   -0.9185 H         1 EST         0.0311
     36 H16       129.3009  -52.6801   -2.2411 H         1 EST         0.0269
     37 H17       130.2422  -52.2874   -0.7624 H         1 EST         0.0269
     38 H18       127.4496  -51.2672   -1.5969 H         1 EST         0.0290
     39 H19       128.7797  -50.3594   -0.8010 H         1 EST         0.0290
     40 H20       126.5633  -51.8471    0.4755 H         1 EST         0.0599
     41 H21       127.4811  -50.7687    2.3230 H         1 EST         0.2098
     42 H22       130.1330  -53.5976    2.1463 H         1 EST         0.0236
     43 H23       129.3794  -52.0684    2.7121 H         1 EST         0.0236
     44 H24       130.3292  -52.0913    1.1876 H         1 EST         0.0236
@<TRIPOS>BOND
     1    1    2 ar 
     2    1   11 ar 
     3    2    3 ar 
     4    3    4 1  
     5    3    5 ar 
     6    5    6 ar 
     7    6    7 1  
     8    6   11 ar 
     9    7    8 1  
    10    8    9 1  
    11    9   10 1  
    12    9   15 1  
    13   10   11 1  
    14   10   12 1  
    15   12   13 1  
    16   13   14 1  
    17   14   15 1  
    18   14   18 1  
    19   14   20 1  
    20   15   16 1  
    21   16   17 1  
    22   17   18 1  
    23   18   19 1  
    24    1   21 1  
    25    2   22 1  
    26    4   23 1  
    27    5   24 1  
    28    7   25 1  
    29    7   26 1  
    30    8   27 1  
    31    8   28 1  
    32    9   29 1  
    33   10   30 1  
    34   12   31 1  
    35   12   32 1  
    36   13   33 1  
    37   13   34 1  
    38   15   35 1  
    39   16   36 1  
    40   16   37 1  
    41   17   38 1  
    42   17   39 1  
    43   18   40 1  
    44   19   41 1  
    45   20   42 1  
    46   20   43 1  
    47   20   44 1  
@<TRIPOS>SUBSTRUCTURE
     1 EST         1

