### 
### Created by X-TOOL on Mon Sep 10 21:12:54 2018
### 

@<TRIPOS>MOLECULE
2d1n_ligand
   77    77     1     0     0
SMALL
GAST_HUCK


@<TRIPOS>ATOM
      1 C1        -40.6710   20.3930  -12.0380 C.ar      1 FA4        -0.0755
      2 C2        -40.6880   21.7610  -12.4150 C.ar      1 FA4        -0.0668
      3 C3        -41.8090   22.3270  -13.1020 C.ar      1 FA4        -0.0377
      4 C4        -42.9470   21.4660  -13.4070 C.ar      1 FA4        -0.0050
      5 C5        -42.8990   20.0790  -13.0130 C.ar      1 FA4        -0.0635
      6 C6        -41.7750   19.5560  -12.3390 C.ar      1 FA4        -0.0754
      7 C7        -41.7100   23.8130  -13.4650 C.3       1 FA4        -0.0215
      8 C8        -41.0780   23.9970  -14.8630 C.3       1 FA4        -0.0443
      9 C9        -41.1350   25.4320  -15.4130 C.3       1 FA4        -0.0514
     10 C10       -42.5330   26.0040  -15.6200 C.3       1 FA4        -0.0529
     11 C11       -42.6290   27.1870  -16.5850 C.3       1 FA4        -0.0530
     12 C12       -43.8750   27.9960  -16.2290 C.3       1 FA4        -0.0529
     13 C13       -44.1100   29.2020  -17.1330 C.3       1 FA4        -0.0510
     14 C14       -43.6310   30.5060  -16.4790 C.3       1 FA4        -0.0361
     15 C15       -43.8520   31.7420  -17.3520 C.3       1 FA4         0.0374
     16 C16       -43.1840   31.6650  -18.7110 C.2       1 FA4         0.1782
     17 N17       -44.0650   31.3620  -19.7410 N.am      1 FA4        -0.2657
     18 C18       -43.6920   31.2260  -21.1700 C.3       1 FA4         0.1325
     19 O19       -41.9840   31.8470  -18.8900 O.2       1 FA4        -0.3969
     20 C20       -44.9130   31.6930  -21.9970 C.3       1 FA4        -0.0123
     21 C21       -43.3740   29.7390  -21.4490 C.2       1 FA4         0.2244
     22 N22       -42.2890   29.2500  -20.8200 N.am      1 FA4        -0.1623
     23 C23       -44.5550   32.1360  -23.4420 C.3       1 FA4        -0.0440
     24 C24       -44.9430   31.2080  -24.6190 C.3       1 FA4        -0.0124
     25 C25       -45.3310   31.9710  -25.9040 C.3       1 FA4        -0.0354
     26 N26       -44.3190   31.7620  -26.9690 N.4       1 FA4         0.2185
     27 C27       -44.1960   21.9610  -14.1240 C.3       1 FA4         0.0939
     28 N28       -45.4690   21.3370  -13.5110 N.pl3     1 FA4        -0.2620
     29 C29       -46.2350   22.1090  -12.5790 C.cat     1 FA4         0.2900
     30 N30       -45.6870   23.2750  -12.0010 N.pl3     1 FA4        -0.2847
     31 N31       -47.4240   21.7480  -12.2510 N.pl3     1 FA4        -0.2847
     32 O32       -41.9450   27.9130  -21.0660 O.3       1 FA4        -0.2717
     33 O33       -44.0360   29.0280  -22.2050 O.2       1 FA4        -0.3944
     34 H1        -39.8110   19.9866  -11.5181 H         1 FA4         0.0541
     35 H2        -39.8365   22.3888  -12.1784 H         1 FA4         0.0537
     36 H3        -43.7376   19.4299  -13.2377 H         1 FA4         0.0538
     37 H4        -41.7556   18.5113  -12.0505 H         1 FA4         0.0541
     38 H5        -41.0869   24.3258  -12.7176 H         1 FA4         0.0411
     39 H6        -42.7186   24.2520  -13.4650 H         1 FA4         0.0411
     40 H7        -41.6082   23.3393  -15.5675 H         1 FA4         0.0286
     41 H8        -40.0219   23.6951  -14.8035 H         1 FA4         0.0286
     42 H9        -40.6179   25.4430  -16.3838 H         1 FA4         0.0267
     43 H10       -40.6030   26.0863  -14.7068 H         1 FA4         0.0267
     44 H11       -42.9114   26.3345  -14.6414 H         1 FA4         0.0265
     45 H12       -43.1738   25.1985  -16.0079 H         1 FA4         0.0265
     46 H13       -42.7074   26.8186  -17.6185 H         1 FA4         0.0265
     47 H14       -41.7344   27.8197  -16.4881 H         1 FA4         0.0265
     48 H15       -43.7710   28.3543  -15.1942 H         1 FA4         0.0265
     49 H16       -44.7501   27.3335  -16.3015 H         1 FA4         0.0265
     50 H17       -45.1863   29.2842  -17.3446 H         1 FA4         0.0267
     51 H18       -43.5614   29.0535  -18.0748 H         1 FA4         0.0267
     52 H19       -42.5550   30.4157  -16.2690 H         1 FA4         0.0290
     53 H20       -44.1785   30.6439  -15.5350 H         1 FA4         0.0290
     54 H21       -43.4524   32.6176  -16.8194 H         1 FA4         0.0502
     55 H22       -44.9339   31.8683  -17.5052 H         1 FA4         0.0502
     56 H23       -45.0259   31.2248  -19.5003 H         1 FA4         0.1882
     57 H24       -42.8147   31.8469  -21.4042 H         1 FA4         0.0799
     58 H25       -45.3791   32.5437  -21.4783 H         1 FA4         0.0312
     59 H26       -45.6309   30.8617  -22.0564 H         1 FA4         0.0312
     60 H27       -41.7484   29.8190  -20.2003 H         1 FA4         0.2217
     61 H28       -43.4637   32.2684  -23.4796 H         1 FA4         0.0269
     62 H29       -45.0480   33.1038  -23.6160 H         1 FA4         0.0269
     63 H30       -45.7994   30.5915  -24.3084 H         1 FA4         0.0317
     64 H31       -44.0858   30.5571  -24.8462 H         1 FA4         0.0317
     65 H32       -45.3998   33.0454  -25.6782 H         1 FA4         0.0813
     66 H33       -46.3069   31.6075  -26.2581 H         1 FA4         0.0813
     67 H34       -44.5926   32.2684  -27.7965 H         1 FA4         0.1994
     68 H35       -44.2541   30.7791  -27.1827 H         1 FA4         0.1994
     69 H36       -43.4228   32.0967  -26.6513 H         1 FA4         0.1994
     70 H37       -44.1349   21.6832  -15.1866 H         1 FA4         0.0839
     71 H38       -44.2527   23.0558  -14.0339 H         1 FA4         0.0839
     72 H39       -45.7616   20.3834  -13.7677 H         1 FA4         0.2664
     73 H40       -46.2414   23.8272  -11.3312 H         1 FA4         0.2615
     74 H41       -44.7329   23.5733  -12.2492 H         1 FA4         0.2615
     75 H42       -47.8371   20.8998  -12.6643 H         1 FA4         0.2615
     76 H43       -47.9638   22.3069  -11.5749 H         1 FA4         0.2615
     77 H44       -41.1677   27.6903  -20.5673 H         1 FA4         0.2490
@<TRIPOS>BOND
     1    1    2 ar 
     2    1    6 ar 
     3    2    3 ar 
     4    3    4 ar 
     5    3    7 1  
     6    4    5 ar 
     7    4   27 1  
     8    5    6 ar 
     9    7    8 1  
    10    8    9 1  
    11    9   10 1  
    12   10   11 1  
    13   11   12 1  
    14   12   13 1  
    15   13   14 1  
    16   14   15 1  
    17   15   16 1  
    18   16   17 am 
    19   16   19 2  
    20   17   18 1  
    21   18   20 1  
    22   18   21 1  
    23   20   23 1  
    24   21   22 am 
    25   21   33 2  
    26   22   32 1  
    27   23   24 1  
    28   24   25 1  
    29   25   26 1  
    30   27   28 1  
    31   28   29 ar 
    32   29   30 ar 
    33   29   31 ar 
    34    1   34 1  
    35    2   35 1  
    36    5   36 1  
    37    6   37 1  
    38    7   38 1  
    39    7   39 1  
    40    8   40 1  
    41    8   41 1  
    42    9   42 1  
    43    9   43 1  
    44   10   44 1  
    45   10   45 1  
    46   11   46 1  
    47   11   47 1  
    48   12   48 1  
    49   12   49 1  
    50   13   50 1  
    51   13   51 1  
    52   14   52 1  
    53   14   53 1  
    54   15   54 1  
    55   15   55 1  
    56   17   56 1  
    57   18   57 1  
    58   20   58 1  
    59   20   59 1  
    60   22   60 1  
    61   23   61 1  
    62   23   62 1  
    63   24   63 1  
    64   24   64 1  
    65   25   65 1  
    66   25   66 1  
    67   26   67 1  
    68   26   68 1  
    69   26   69 1  
    70   27   70 1  
    71   27   71 1  
    72   28   72 1  
    73   30   73 1  
    74   30   74 1  
    75   31   75 1  
    76   31   76 1  
    77   32   77 1  
@<TRIPOS>SUBSTRUCTURE
     1 FA4         1

