### 
### Created by X-TOOL on Mon Sep 10 21:12:54 2018
### 

@<TRIPOS>MOLECULE
2d1o_ligand
   77    77     1     0     0
SMALL
GAST_HUCK


@<TRIPOS>ATOM
      1 C1         21.9090    1.3290   12.8340 C.ar      1 FA4        -0.0755
      2 C2         23.0090    1.6730   13.6770 C.ar      1 FA4        -0.0668
      3 C3         23.5620    2.9960   13.6550 C.ar      1 FA4        -0.0377
      4 C4         22.9830    3.9950   12.7490 C.ar      1 FA4        -0.0050
      5 C5         21.8750    3.6310   11.9050 C.ar      1 FA4        -0.0635
      6 C6         21.3400    2.2970   11.9460 C.ar      1 FA4        -0.0754
      7 C7         24.7240    3.3270   14.5570 C.3       1 FA4        -0.0215
      8 C8         26.0760    2.9430   13.9320 C.3       1 FA4        -0.0443
      9 C9         27.2640    3.4260   14.7650 C.3       1 FA4        -0.0514
     10 C10        27.9570    4.6480   14.1550 C.3       1 FA4        -0.0529
     11 C11        29.1400    5.1500   14.9870 C.3       1 FA4        -0.0530
     12 C12        28.7270    6.2300   15.9910 C.3       1 FA4        -0.0529
     13 C13        29.7800    7.3180   16.1690 C.3       1 FA4        -0.0510
     14 C14        30.6220    7.1250   17.4350 C.3       1 FA4        -0.0361
     15 C15        31.6880    8.2030   17.6360 C.3       1 FA4         0.0374
     16 C16        32.8660    7.9940   16.6740 C.2       1 FA4         0.1782
     17 N17        32.9050    8.9620   15.7320 N.am      1 FA4        -0.2657
     18 C18        33.9360    8.9930   14.7120 C.3       1 FA4         0.1325
     19 O19        33.6470    7.0470   16.7980 O.2       1 FA4        -0.3969
     20 C20        34.3010   10.4590   14.4670 C.3       1 FA4        -0.0123
     21 C21        33.4250    8.3210   13.4250 C.2       1 FA4         0.2244
     22 N22        34.2320    7.3570   12.9590 N.am      1 FA4        -0.1623
     23 C23        35.7530   10.7930   14.7920 C.3       1 FA4        -0.0440
     24 C24        36.0630   12.2710   14.5560 C.3       1 FA4        -0.0124
     25 C25        37.1470   12.7980   15.4980 C.3       1 FA4        -0.0354
     26 N26        37.4400   14.2090   15.2790 N.4       1 FA4         0.2185
     27 C27        23.4780    5.4270   12.6430 C.3       1 FA4         0.0939
     28 N28        22.9060    6.2660   13.7040 N.pl3     1 FA4        -0.2620
     29 C29        21.7550    6.9920   13.4820 C.cat     1 FA4         0.2900
     30 N30        20.9490    7.2680   14.5010 N.pl3     1 FA4        -0.2847
     31 N31        21.4300    7.4220   12.2540 N.pl3     1 FA4        -0.2847
     32 O32        33.8780    6.6670   11.7960 O.3       1 FA4        -0.2717
     33 O33        32.3660    8.6570   12.9050 O.2       1 FA4        -0.3944
     34 H1         21.5009    0.3253   12.8668 H         1 FA4         0.0541
     35 H2         23.4304    0.9264   14.3404 H         1 FA4         0.0537
     36 H3         21.4422    4.3657   11.2357 H         1 FA4         0.0538
     37 H4         20.5082    2.0251   11.3063 H         1 FA4         0.0541
     38 H5         24.6039    2.7800   15.5038 H         1 FA4         0.0411
     39 H6         24.7207    4.4089   14.7556 H         1 FA4         0.0411
     40 H7         26.1418    3.3921   12.9300 H         1 FA4         0.0286
     41 H8         26.1270    1.8475   13.8469 H         1 FA4         0.0286
     42 H9         27.9958    2.6083   14.8412 H         1 FA4         0.0267
     43 H10        26.9042    3.6910   15.7701 H         1 FA4         0.0267
     44 H11        27.2206    5.4606   14.0691 H         1 FA4         0.0265
     45 H12        28.3237    4.3781   13.1537 H         1 FA4         0.0265
     46 H13        29.8975    5.5690   14.3083 H         1 FA4         0.0265
     47 H14        29.5708    4.3009   15.5379 H         1 FA4         0.0265
     48 H15        28.5499    5.7520   16.9657 H         1 FA4         0.0265
     49 H16        27.7965    6.6984   15.6378 H         1 FA4         0.0265
     50 H17        29.2728    8.2922   16.2290 H         1 FA4         0.0267
     51 H18        30.4493    7.3061   15.2961 H         1 FA4         0.0267
     52 H19        31.1238    6.1481   17.3725 H         1 FA4         0.0290
     53 H20        29.9487    7.1364   18.3047 H         1 FA4         0.0290
     54 H21        32.0561    8.1570   18.6715 H         1 FA4         0.0502
     55 H22        31.2413    9.1907   17.4492 H         1 FA4         0.0502
     56 H23        32.2047    9.6758   15.7382 H         1 FA4         0.1882
     57 H24        34.8243    8.4507   15.0681 H         1 FA4         0.0799
     58 H25        33.6516   11.0878   15.0938 H         1 FA4         0.0312
     59 H26        34.1211   10.6889   13.4065 H         1 FA4         0.0312
     60 H27        35.0801    7.1335   13.4394 H         1 FA4         0.2217
     61 H28        36.4098   10.1851   14.1524 H         1 FA4         0.0269
     62 H29        35.9455   10.5533   15.8481 H         1 FA4         0.0269
     63 H30        35.1438   12.8542   14.7141 H         1 FA4         0.0317
     64 H31        36.4045   12.3989   13.5182 H         1 FA4         0.0317
     65 H32        38.0673   12.2176   15.3364 H         1 FA4         0.0813
     66 H33        36.8073   12.6654   16.5358 H         1 FA4         0.0813
     67 H34        38.1574   14.5068   15.9214 H         1 FA4         0.1994
     68 H35        36.6053   14.7531   15.4316 H         1 FA4         0.1994
     69 H36        37.7600   14.3428   14.3326 H         1 FA4         0.1994
     70 H37        23.1855    5.8364   11.6648 H         1 FA4         0.0839
     71 H38        24.5744    5.4352   12.7309 H         1 FA4         0.0839
     72 H39        23.3691    6.3125   14.6228 H         1 FA4         0.2664
     73 H40        20.0872    7.8098   14.3439 H         1 FA4         0.2615
     74 H41        21.1858    6.9402   15.4483 H         1 FA4         0.2615
     75 H42        22.0468    7.2144   11.4556 H         1 FA4         0.2615
     76 H43        20.5636    7.9599   12.1092 H         1 FA4         0.2615
     77 H44        34.5456    6.0211   11.5967 H         1 FA4         0.2490
@<TRIPOS>BOND
     1    1    2 ar 
     2    1    6 ar 
     3    2    3 ar 
     4    3    4 ar 
     5    3    7 1  
     6    4    5 ar 
     7    4   27 1  
     8    5    6 ar 
     9    7    8 1  
    10    8    9 1  
    11    9   10 1  
    12   10   11 1  
    13   11   12 1  
    14   12   13 1  
    15   13   14 1  
    16   14   15 1  
    17   15   16 1  
    18   16   17 am 
    19   16   19 2  
    20   17   18 1  
    21   18   20 1  
    22   18   21 1  
    23   20   23 1  
    24   21   22 am 
    25   21   33 2  
    26   22   32 1  
    27   23   24 1  
    28   24   25 1  
    29   25   26 1  
    30   27   28 1  
    31   28   29 ar 
    32   29   30 ar 
    33   29   31 ar 
    34    1   34 1  
    35    2   35 1  
    36    5   36 1  
    37    6   37 1  
    38    7   38 1  
    39    7   39 1  
    40    8   40 1  
    41    8   41 1  
    42    9   42 1  
    43    9   43 1  
    44   10   44 1  
    45   10   45 1  
    46   11   46 1  
    47   11   47 1  
    48   12   48 1  
    49   12   49 1  
    50   13   50 1  
    51   13   51 1  
    52   14   52 1  
    53   14   53 1  
    54   15   54 1  
    55   15   55 1  
    56   17   56 1  
    57   18   57 1  
    58   20   58 1  
    59   20   59 1  
    60   22   60 1  
    61   23   61 1  
    62   23   62 1  
    63   24   63 1  
    64   24   64 1  
    65   25   65 1  
    66   25   66 1  
    67   26   67 1  
    68   26   68 1  
    69   26   69 1  
    70   27   70 1  
    71   27   71 1  
    72   28   72 1  
    73   30   73 1  
    74   30   74 1  
    75   31   75 1  
    76   31   76 1  
    77   32   77 1  
@<TRIPOS>SUBSTRUCTURE
     1 FA4         1

