### 
### Created by X-TOOL on Mon Sep 10 21:12:54 2018
### 

@<TRIPOS>MOLECULE
2d1x_ligand
  141   146     1     0     0
SMALL
GAST_HUCK


@<TRIPOS>ATOM
      1 N           7.7230   60.2540   28.6700 N.4       1 LYS         0.2379
      2 CA          8.6340   60.7570   27.6010 C.3       1 LYS         0.0650
      3 C           7.8900   61.7460   26.7120 C.2       1 LYS         0.2267
      4 O           6.6570   61.7920   26.7190 O.2       1 LYS        -0.3907
      5 CB          9.1520   59.5880   26.7530 C.3       1 LYS         0.0080
      6 CG         10.2230   59.9630   25.7270 C.3       1 LYS        -0.0410
      7 CD         10.7420   58.7230   25.0100 C.3       1 LYS        -0.0123
      8 CE         11.7780   59.0660   23.9470 C.3       1 LYS        -0.0354
      9 NZ         13.0310   59.6490   24.5050 N.4       1 LYS         0.2185
     10 N           8.6430   62.5360   25.9520 N.am      1 ARG        -0.2610
     11 CA          8.0560   63.5250   25.0570 C.3       1 ARG         0.1314
     12 C           7.3290   62.8370   23.9160 C.2       1 ARG         0.2064
     13 O           7.5510   61.6600   23.6490 O.2       1 ARG        -0.3942
     14 CB          9.1390   64.4310   24.4720 C.3       1 ARG        -0.0092
     15 CG         10.1330   63.7160   23.5650 C.3       1 ARG        -0.0156
     16 CD         10.9930   64.7260   22.8260 C.3       1 ARG         0.0627
     17 NE         11.9990   64.1240   21.9540 N.pl3     1 ARG        -0.2723
     18 CZ         13.0670   63.4560   22.3830 C.cat     1 ARG         0.2882
     19 NH1        13.2750   63.2940   23.6820 N.pl3     1 ARG        -0.2849
     20 NH2        13.9380   62.9650   21.5120 N.pl3     1 ARG        -0.2849
     21 N           6.4460   63.5670   23.2250 N.am      1 PRO        -0.2498
     22 CA          5.7200   62.9600   22.1100 C.3       1 PRO         0.1340
     23 C           6.6460   62.8130   20.9020 C.2       1 PRO         0.2066
     24 O           7.6080   63.5610   20.7520 O.2       1 PRO        -0.3942
     25 CB          4.5920   63.9580   21.8590 C.3       1 PRO        -0.0104
     26 CG          5.2640   65.2710   22.1600 C.3       1 PRO        -0.0281
     27 CD          6.0040   64.9560   23.4490 C.3       1 PRO         0.0369
     28 N           6.3740   61.8340   20.0320 N.am      1 PRO        -0.2498
     29 CA          7.2390   61.6700   18.8620 C.3       1 PRO         0.1340
     30 C           7.0270   62.8270   17.8980 C.2       1 PRO         0.2066
     31 O           5.9660   63.4410   17.8850 O.2       1 PRO        -0.3942
     32 CB          6.7820   60.3330   18.2860 C.3       1 PRO        -0.0104
     33 CG          5.3270   60.2970   18.6450 C.3       1 PRO        -0.0281
     34 CD          5.3310   60.7920   20.0700 C.3       1 PRO         0.0369
     35 N           8.0410   63.1570   17.0910 N.am      1 PRO        -0.2498
     36 CA          7.8340   64.2650   16.1650 C.3       1 PRO         0.1340
     37 C           6.9900   63.7770   15.0040 C.2       1 PRO         0.2066
     38 O           7.0390   62.6050   14.6430 O.2       1 PRO        -0.3942
     39 CB          9.2570   64.6300   15.7480 C.3       1 PRO        -0.0104
     40 CG          9.9340   63.3110   15.7360 C.3       1 PRO        -0.0281
     41 CD          9.4220   62.6510   17.0060 C.3       1 PRO         0.0369
     42 N           6.1880   64.6640   14.4110 N.am      1 PRO        -0.2498
     43 CA          5.3690   64.2170   13.2880 C.3       1 PRO         0.1340
     44 C           6.2700   63.9170   12.0970 C.2       1 PRO         0.2066
     45 O           7.3730   64.4590   11.9940 O.2       1 PRO        -0.3942
     46 CB          4.4580   65.4160   13.0390 C.3       1 PRO        -0.0104
     47 CG          5.3510   66.5690   13.3690 C.3       1 PRO        -0.0281
     48 CD          6.0200   66.1090   14.6470 C.3       1 PRO         0.0369
     49 N           5.8260   63.0270   11.1940 N.am      1 PRO        -0.2498
     50 CA          6.6400   62.7010   10.0200 C.3       1 PRO         0.1340
     51 C           6.9630   64.0130    9.3020 C.2       1 PRO         0.2066
     52 O           6.1740   64.9540    9.3540 O.2       1 PRO        -0.3942
     53 CB          5.7090   61.8100    9.1970 C.3       1 PRO        -0.0104
     54 CG          4.8840   61.1260   10.2450 C.3       1 PRO        -0.0281
     55 CD          4.5730   62.2490   11.2040 C.3       1 PRO         0.0369
     56 N           8.1170   64.0950    8.6230 N.am      1 PRO        -0.2498
     57 CA          8.4490   65.3440    7.9290 C.3       1 PRO         0.1338
     58 C           7.4210   65.7170    6.8630 C.2       1 PRO         0.2040
     59 O           6.7670   64.8470    6.2850 O.2       1 PRO        -0.3944
     60 CB          9.8290   65.0550    7.3400 C.3       1 PRO        -0.0104
     61 CG          9.7670   63.5900    7.0640 C.3       1 PRO        -0.0281
     62 CD          9.1110   63.0510    8.3190 C.3       1 PRO         0.0369
     63 N           7.2810   67.0160    6.6140 N.am      1 GLY        -0.2650
     64 CA          6.3330   67.4790    5.6180 C.3       1 GLY         0.1312
     65 C           6.7020   67.0190    4.2200 C.2       1 GLY         0.2539
     66 O           7.7550   66.3600    4.0720 O.2       1 GLY        -0.3683
     67 O1          5.9263   67.3088    3.1792 O.3       1 GLY        -0.2912
     68 H1          8.2199   59.6005   29.2549 H         1 LYS         0.2015
     69 H2          6.9321   59.7931   28.2481 H         1 LYS         0.2015
     70 H3          7.4015   61.0284   29.2294 H         1 LYS         0.2015
     71 H4          9.4889   61.2666   28.0694 H         1 LYS         0.1098
     72 H5          8.2984   59.1529   26.2126 H         1 LYS         0.0346
     73 H6          9.5781   58.8352   27.4324 H         1 LYS         0.0346
     74 H7         11.0591   60.4579   26.2427 H         1 LYS         0.0270
     75 H8          9.7888   60.6520   24.9876 H         1 LYS         0.0270
     76 H9          9.8956   58.2118   24.5281 H         1 LYS         0.0317
     77 H10        11.2024   58.0521   25.7502 H         1 LYS         0.0317
     78 H11        11.3352   59.7937   23.2510 H         1 LYS         0.0813
     79 H12        12.0348   58.1461   23.4013 H         1 LYS         0.0813
     80 H13        13.6709   59.8522   23.7531 H         1 LYS         0.1994
     81 H14        13.4554   58.9897   25.1384 H         1 LYS         0.1994
     82 H15        12.8142   60.4995   25.0007 H         1 LYS         0.1994
     83 H16         9.6383   62.4491   25.9958 H         1 ARG         0.1884
     84 H17         7.3406   64.1378   25.6250 H         1 ARG         0.0800
     85 H18         9.6968   64.8833   25.3053 H         1 ARG         0.0313
     86 H19         8.6472   65.2225   23.8875 H         1 ARG         0.0313
     87 H20         9.5830   63.1044   22.8346 H         1 ARG         0.0301
     88 H21        10.7786   63.0668   24.1747 H         1 ARG         0.0301
     89 H22        11.5091   65.3509   23.5697 H         1 ARG         0.0689
     90 H23        10.3345   65.3567   22.2106 H         1 ARG         0.0689
     91 H24        11.8728   64.2236   20.9366 H         1 ARG         0.2642
     92 H25        14.1027   62.7764   24.0104 H         1 ARG         0.2615
     93 H26        12.6089   63.6857   24.3630 H         1 ARG         0.2615
     94 H27        13.7810   63.0882   20.5015 H         1 ARG         0.2615
     95 H28        14.7716   62.4604   21.8459 H         1 ARG         0.2615
     96 H29         5.3166   61.9741   22.3842 H         1 PRO         0.0802
     97 H30         3.7426   63.7795   22.5347 H         1 PRO         0.0313
     98 H31         4.2458   63.9160   20.8158 H         1 PRO         0.0313
     99 H32         5.9607   65.5569   21.3583 H         1 PRO         0.0287
    100 H33         4.5262   66.0733   22.3080 H         1 PRO         0.0287
    101 H34         6.8622   65.6294   23.5906 H         1 PRO         0.0524
    102 H35         5.3354   65.0260   24.3196 H         1 PRO         0.0524
    103 H36         8.2992   61.6266   19.1518 H         1 PRO         0.0802
    104 H37         7.3251   59.4958   18.7487 H         1 PRO         0.0313
    105 H38         6.9219   60.3028   17.1954 H         1 PRO         0.0313
    106 H39         4.7404   60.9623   17.9945 H         1 PRO         0.0287
    107 H40         4.9267   59.2745   18.5803 H         1 PRO         0.0287
    108 H41         4.3544   61.2145   20.3486 H         1 PRO         0.0524
    109 H42         5.5959   59.9872   20.7715 H         1 PRO         0.0524
    110 H43         7.3377   65.1166   16.6532 H         1 PRO         0.0802
    111 H44         9.7231   65.3098   16.4764 H         1 PRO         0.0313
    112 H45         9.2727   65.0943   14.7509 H         1 PRO         0.0313
    113 H46         9.6504   62.7294   14.8464 H         1 PRO         0.0287
    114 H47        11.0274   63.4278   15.7645 H         1 PRO         0.0287
    115 H48         9.4395   61.5546   16.9195 H         1 PRO         0.0524
    116 H49        10.0133   62.9593   17.8808 H         1 PRO         0.0524
    117 H50         4.7823   63.3225   13.5443 H         1 PRO         0.0802
    118 H51         3.5784   65.3918   13.6991 H         1 PRO         0.0313
    119 H52         4.1285   65.4549   11.9902 H         1 PRO         0.0313
    120 H53         6.0901   66.7401   12.5725 H         1 PRO         0.0287
    121 H54         4.7694   67.4881   13.5331 H         1 PRO         0.0287
    122 H55         6.9915   66.6051   14.7889 H         1 PRO         0.0524
    123 H56         5.3804   66.2981   15.5217 H         1 PRO         0.0524
    124 H57         7.5664   62.1722   10.2885 H         1 PRO         0.0802
    125 H58         6.2811   61.0801    8.6054 H         1 PRO         0.0313
    126 H59         5.0772   62.4110    8.5264 H         1 PRO         0.0313
    127 H60         3.9635   60.7056    9.8138 H         1 PRO         0.0287
    128 H61         5.4548   60.3271   10.7408 H         1 PRO         0.0287
    129 H62         3.7258   62.8536   10.8480 H         1 PRO         0.0524
    130 H63         4.3514   61.8637   12.2102 H         1 PRO         0.0524
    131 H64         8.5118   66.1718    8.6506 H         1 PRO         0.0802
    132 H65        10.6254   65.2894    8.0617 H         1 PRO         0.0313
    133 H66         9.9930   65.6264    6.4145 H         1 PRO         0.0313
    134 H67         9.1570   63.3782    6.1735 H         1 PRO         0.0287
    135 H68        10.7735   63.1676    6.9280 H         1 PRO         0.0287
    136 H69         8.6265   62.0815    8.1309 H         1 PRO         0.0524
    137 H70         9.8400   62.9443    9.1358 H         1 PRO         0.0524
    138 H71         7.8341   67.6795    7.1178 H         1 GLY         0.1882
    139 H72         6.3099   68.5786    5.6348 H         1 GLY         0.0780
    140 H73         5.3361   67.0874    5.8684 H         1 GLY         0.0780
    141 H74         6.4214   67.8189    2.5489 H         1 GLY         0.2540
@<TRIPOS>BOND
     1    2    1 1  
     2    2    5 1  
     3    3    2 1  
     4    3    4 2  
     5    5    6 1  
     6    6    7 1  
     7    7    8 1  
     8    8    9 1  
     9   11   10 1  
    10   11   14 1  
    11   12   11 1  
    12   12   13 2  
    13   14   15 1  
    14   15   16 1  
    15   16   17 1  
    16   17   18 ar 
    17   18   20 ar 
    18   18   19 ar 
    19   10    3 am 
    20   23   22 1  
    21   22   25 1  
    22   22   21 1  
    23   21   27 1  
    24   27   26 1  
    25   25   26 1  
    26   23   24 2  
    27   21   12 am 
    28   30   29 1  
    29   29   32 1  
    30   29   28 1  
    31   28   34 1  
    32   34   33 1  
    33   32   33 1  
    34   30   31 2  
    35   28   23 am 
    36   37   36 1  
    37   36   39 1  
    38   36   35 1  
    39   35   41 1  
    40   41   40 1  
    41   39   40 1  
    42   37   38 2  
    43   35   30 am 
    44   44   43 1  
    45   43   46 1  
    46   43   42 1  
    47   42   48 1  
    48   48   47 1  
    49   46   47 1  
    50   44   45 2  
    51   42   37 am 
    52   51   50 1  
    53   50   53 1  
    54   50   49 1  
    55   49   55 1  
    56   55   54 1  
    57   53   54 1  
    58   51   52 2  
    59   49   44 am 
    60   58   57 1  
    61   57   60 1  
    62   57   56 1  
    63   56   62 1  
    64   62   61 1  
    65   60   61 1  
    66   58   59 2  
    67   56   51 am 
    68   63   64 1  
    69   64   65 1  
    70   65   66 2  
    71   58   63 am 
    72   65   67 1  
    73    1   68 1  
    74    1   69 1  
    75    1   70 1  
    76    2   71 1  
    77    5   72 1  
    78    5   73 1  
    79    6   74 1  
    80    6   75 1  
    81    7   76 1  
    82    7   77 1  
    83    8   78 1  
    84    8   79 1  
    85    9   80 1  
    86    9   81 1  
    87    9   82 1  
    88   10   83 1  
    89   11   84 1  
    90   14   85 1  
    91   14   86 1  
    92   15   87 1  
    93   15   88 1  
    94   16   89 1  
    95   16   90 1  
    96   17   91 1  
    97   19   92 1  
    98   19   93 1  
    99   20   94 1  
   100   20   95 1  
   101   22   96 1  
   102   25   97 1  
   103   25   98 1  
   104   26   99 1  
   105   26  100 1  
   106   27  101 1  
   107   27  102 1  
   108   29  103 1  
   109   32  104 1  
   110   32  105 1  
   111   33  106 1  
   112   33  107 1  
   113   34  108 1  
   114   34  109 1  
   115   36  110 1  
   116   39  111 1  
   117   39  112 1  
   118   40  113 1  
   119   40  114 1  
   120   41  115 1  
   121   41  116 1  
   122   43  117 1  
   123   46  118 1  
   124   46  119 1  
   125   47  120 1  
   126   47  121 1  
   127   48  122 1  
   128   48  123 1  
   129   50  124 1  
   130   53  125 1  
   131   53  126 1  
   132   54  127 1  
   133   54  128 1  
   134   55  129 1  
   135   55  130 1  
   136   57  131 1  
   137   60  132 1  
   138   60  133 1  
   139   61  134 1  
   140   61  135 1  
   141   62  136 1  
   142   62  137 1  
   143   63  138 1  
   144   64  139 1  
   145   64  140 1  
   146   67  141 1  
@<TRIPOS>SUBSTRUCTURE
     1 LYS         1

