### 
### Created by X-TOOL on Sun Sep  9 21:50:23 2018
### 

@<TRIPOS>MOLECULE
2d2v_ligand
   45    46     1     0     0
SMALL
GAST_HUCK


@<TRIPOS>ATOM
      1 C1         45.9320    2.5020   95.2100 C.3       1 NON         0.1884
      2 C2         45.0380    2.4090   93.9550 C.3       1 NON         0.1341
      3 C3         45.3490    1.1020   93.1930 C.3       1 NON         0.1141
      4 C4         46.8600    1.2160   92.7690 C.3       1 NON         0.1119
      5 C5         47.7290    1.2620   94.0570 C.3       1 NON         0.1130
      6 C6         49.2470    1.3870   93.8740 C.3       1 NON         0.0730
      7 O1         45.5980    1.4210   96.1210 O.3       1 NON        -0.3401
      8 O2         43.7100    2.5120   94.4390 O.3       1 NON        -0.3841
      9 O3         44.5130    1.0640   92.0670 O.3       1 NON        -0.3864
     10 O4         47.2660    0.1150   92.0650 O.3       1 NON        -0.3865
     11 O5         47.3370    2.3910   94.8880 O.3       1 NON        -0.3405
     12 O6         49.5320    2.5250   93.0890 O.3       1 NON        -0.3924
     13 C1'        45.0120    0.3800  100.2370 C.3       1 NON         0.1854
     14 C2'        43.9090    1.0620   99.3900 C.3       1 NON         0.1339
     15 C3'        43.9660    0.8820   97.8480 C.3       1 NON         0.1144
     16 C4'        45.3760    1.4970   97.5170 C.3       1 NON         0.1184
     17 C5'        46.5170    0.7270   98.3390 C.3       1 NON         0.1134
     18 C6'        48.0530    1.1800   98.2100 C.3       1 NON         0.0730
     19 O1'        44.8620   -0.6940  100.1970 O.3       1 NON        -0.3649
     20 O2'        42.6560    0.5980   99.7870 O.3       1 NON        -0.3841
     21 O3'        42.8530    1.5740   97.1560 O.3       1 NON        -0.3864
     22 O5'        46.3350    0.7830   99.8120 O.3       1 NON        -0.3407
     23 O6'        47.9370    2.6700   98.3760 O.3       1 NON        -0.3924
     24 H1         45.7515    3.4691   95.7021 H         1 NON         0.0938
     25 H2         45.2414    3.2552   93.2823 H         1 NON         0.0671
     26 H3         45.1848    0.2162   93.8241 H         1 NON         0.0648
     27 H4         47.0087    2.1247   92.1672 H         1 NON         0.0647
     28 H5         47.5350    0.3281   94.6049 H         1 NON         0.0647
     29 H6         49.6313    0.4879   93.3701 H         1 NON         0.0584
     30 H7         49.7281    1.4899   94.8578 H         1 NON         0.0584
     31 H8         43.1038    2.4687   93.7088 H         1 NON         0.2101
     32 H9         44.7378    0.3116   91.5323 H         1 NON         0.2100
     33 H10        46.7583    0.0472   91.2649 H         1 NON         0.2100
     34 H11        49.1157    2.4349   92.2398 H         1 NON         0.2095
     35 H12        44.8913    0.7006  101.2823 H         1 NON         0.0935
     36 H13        43.9736    2.1404   99.5972 H         1 NON         0.0671
     37 H14        43.9350   -0.1839   97.5782 H         1 NON         0.0648
     38 H15        45.3841    2.5551   97.8174 H         1 NON         0.0651
     39 H16        46.4509   -0.3207   98.0105 H         1 NON         0.0647
     40 H17        48.4693    0.9158   97.2267 H         1 NON         0.0584
     41 H18        48.6721    0.7338   99.0022 H         1 NON         0.0584
     42 H19        43.9807   -0.9005  100.4854 H         1 NON         0.2126
     43 H20        42.5704    0.6870  100.7289 H         1 NON         0.2101
     44 H21        42.9801    1.5147   96.2164 H         1 NON         0.2100
     45 H22        47.5565    2.8643   99.2244 H         1 NON         0.2095
@<TRIPOS>BOND
     1    1    2 1  
     2    7    1 1  
     3    1   11 1  
     4    2    3 1  
     5    2    8 1  
     6    3    4 1  
     7    3    9 1  
     8    5    4 1  
     9    4   10 1  
    10    5    6 1  
    11   11    5 1  
    12    6   12 1  
    13   16    7 1  
    14   14   13 1  
    15   13   19 1  
    16   13   22 1  
    17   15   14 1  
    18   14   20 1  
    19   15   16 1  
    20   15   21 1  
    21   16   17 1  
    22   17   18 1  
    23   17   22 1  
    24   18   23 1  
    25    1   24 1  
    26    2   25 1  
    27    3   26 1  
    28    4   27 1  
    29    5   28 1  
    30    6   29 1  
    31    6   30 1  
    32    8   31 1  
    33    9   32 1  
    34   10   33 1  
    35   12   34 1  
    36   13   35 1  
    37   14   36 1  
    38   15   37 1  
    39   16   38 1  
    40   17   39 1  
    41   18   40 1  
    42   18   41 1  
    43   19   42 1  
    44   20   43 1  
    45   21   44 1  
    46   23   45 1  
@<TRIPOS>SUBSTRUCTURE
     1 NON         1

