### 
### Created by X-TOOL on Mon Sep 10 21:12:54 2018
### 

@<TRIPOS>MOLECULE
2d3u_ligand
   40    42     1     0     0
SMALL
GAST_HUCK


@<TRIPOS>ATOM
      1 C1         12.9300   30.8710   73.5550 C.ar      1 CCT        -0.0292
      2 C2         12.9040   29.5940   72.9150 C.ar      1 CCT         0.0919
      3 C3         11.6750   28.8760   72.8760 C.ar      1 CCT        -0.0292
      4 C4         10.5040   29.4160   73.4550 C.ar      1 CCT        -0.0447
      5 C5         10.5200   30.6920   74.0920 C.ar      1 CCT        -0.0014
      6 C6         11.7530   31.4110   74.1340 C.ar      1 CCT        -0.0447
      7 C7          6.8840   31.7970   75.1110 C.2       1 CCT         0.0659
      8 C8          7.7330   32.3920   76.0330 C.2       1 CCT         0.0654
      9 C9          9.1080   32.0610   75.7680 C.2       1 CCT        -0.0309
     10 C10         9.2770   31.2340   74.6690 C.2       1 CCT         0.0389
     11 S11         7.7570   30.8740   73.9820 S.3       1 CCT        -0.0497
     12 C12        14.0830   29.0400   72.3180 C.1       1 CCT         0.0956
     13 N13        15.0430   28.5810   71.8110 N.1       1 CCT        -0.3326
     14 C14         5.4020   31.9440   75.1070 C.2       1 CCT         0.0483
     15 O15         4.7680   31.2300   74.3130 O.co2     1 CCT        -0.5727
     16 O16         4.8680   32.7870   75.8710 O.co2     1 CCT        -0.5727
     17 N17         7.3010   33.2370   77.1370 N.am      1 CCT        -0.1970
     18 S18         8.2820   34.5020   77.6890 S.o2      1 CCT         0.0842
     19 C19         7.7750   36.4670   75.7110 C.ar      1 CCT        -0.0191
     20 C20         8.7330   35.6820   76.4270 C.ar      1 CCT         0.1144
     21 C21        10.1250   35.8300   76.1460 C.ar      1 CCT        -0.0414
     22 C22        10.5780   36.7400   75.1660 C.ar      1 CCT        -0.0669
     23 C23         9.6350   37.5250   74.4500 C.ar      1 CCT        -0.0685
     24 C24         8.2460   37.3870   74.7200 C.ar      1 CCT        -0.0587
     25 C25         6.2860   36.3670   75.9520 C.3       1 CCT        -0.0292
     26 O26         9.4810   33.8970   78.2520 O.2       1 CCT        -0.1463
     27 O27         7.4830   35.1830   78.6860 O.2       1 CCT        -0.1463
     28 H1         13.8566   31.4318   73.5985 H         1 CCT         0.0708
     29 H2         11.6370   27.9044   72.3969 H         1 CCT         0.0708
     30 H3          9.5795   28.8515   73.4142 H         1 CCT         0.0633
     31 H4         11.7900   32.3820   74.6145 H         1 CCT         0.0633
     32 H5          9.9367   32.4256   76.3733 H         1 CCT         0.0467
     33 H6          6.4170   33.0689   77.5732 H         1 CCT         0.2106
     34 H7         10.8458   35.2340   76.6940 H         1 CCT         0.0619
     35 H8         11.6379   36.8389   74.9614 H         1 CCT         0.0560
     36 H9          9.9742   38.2286   73.6984 H         1 CCT         0.0599
     37 H10         7.5326   37.9874   74.1672 H         1 CCT         0.0557
     38 H11         6.0909   35.6219   76.7373 H         1 CCT         0.0391
     39 H12         5.7839   36.0602   75.0226 H         1 CCT         0.0391
     40 H13         5.8997   37.3461   76.2715 H         1 CCT         0.0391
@<TRIPOS>BOND
     1    1    2 ar 
     2    6    1 ar 
     3    3    2 ar 
     4    2   12 1  
     5    4    3 ar 
     6    5    4 ar 
     7    5    6 ar 
     8   10    5 1  
     9    8    7 2  
    10    7   11 1  
    11    7   14 1  
    12    9    8 1  
    13    8   17 1  
    14    9   10 2  
    15   10   11 1  
    16   12   13 3  
    17   14   15 ar 
    18   14   16 ar 
    19   17   18 am 
    20   18   20 1  
    21   18   26 2  
    22   18   27 2  
    23   20   19 ar 
    24   19   24 ar 
    25   19   25 1  
    26   20   21 ar 
    27   21   22 ar 
    28   22   23 ar 
    29   23   24 ar 
    30    1   28 1  
    31    3   29 1  
    32    4   30 1  
    33    6   31 1  
    34    9   32 1  
    35   17   33 1  
    36   21   34 1  
    37   22   35 1  
    38   23   36 1  
    39   24   37 1  
    40   25   38 1  
    41   25   39 1  
    42   25   40 1  
@<TRIPOS>SUBSTRUCTURE
     1 CCT         1

