### 
### Created by X-TOOL on Mon Sep 10 21:12:54 2018
### 

@<TRIPOS>MOLECULE
2d3z_ligand
   39    41     1     0     0
SMALL
GAST_HUCK


@<TRIPOS>ATOM
      1 C1         13.1800   31.3790   73.3040 C.ar      1 FIH        -0.0275
      2 C2         13.1300   30.3960   72.2700 C.ar      1 FIH         0.1328
      3 C3         11.8850   29.7900   71.9620 C.ar      1 FIH        -0.0275
      4 C4         10.7110   30.1540   72.6660 C.ar      1 FIH        -0.0550
      5 C5         10.7390   31.1360   73.7000 C.ar      1 FIH        -0.0115
      6 C6         11.9960   31.7470   74.0120 C.ar      1 FIH        -0.0550
      7 C7          7.0760   31.9050   74.9850 C.2       1 FIH         0.0605
      8 C8          7.9150   32.2730   76.0280 C.2       1 FIH         0.0599
      9 C9          9.2970   32.0410   75.6900 C.2       1 FIH        -0.0366
     10 C10         9.4820   31.5070   74.4150 C.2       1 FIH         0.0307
     11 S11         7.9570   31.3000   73.6670 S.3       1 FIH        -0.0551
     12 F12        14.2100   30.0530   71.6110 F         1 FIH        -0.1829
     13 C14         5.5950   32.0130   74.9890 C.2       1 FIH         0.0447
     14 O15         4.9690   31.4060   74.0950 O.co2     1 FIH        -0.5742
     15 O16         5.0480   32.7110   75.8690 O.co2     1 FIH        -0.5742
     16 N17         7.4610   32.8240   77.3080 N.am      1 FIH        -0.1980
     17 S18         8.1820   34.1980   78.0070 S.o2      1 FIH         0.0837
     18 C19         7.3500   36.3870   76.4550 C.ar      1 FIH        -0.0415
     19 C20         8.4490   35.5690   76.8630 C.ar      1 FIH         0.1065
     20 C21         9.7580   35.8370   76.3620 C.ar      1 FIH        -0.0415
     21 C22         9.9680   36.9150   75.4580 C.ar      1 FIH        -0.0587
     22 C23         8.8750   37.7290   75.0520 C.ar      1 FIH        -0.0460
     23 C24         7.5670   37.4640   75.5520 C.ar      1 FIH        -0.0587
     24 C25         9.1030   38.8670   74.0940 C.3       1 FIH        -0.0311
     25 O26         9.4660   33.7560   78.5380 O.2       1 FIH        -0.1460
     26 O27         7.2740   34.6330   79.0650 O.2       1 FIH        -0.1460
     27 H1         14.1241   31.8496   73.5535 H         1 FIH         0.0605
     28 H2         11.8315   29.0410   71.1802 H         1 FIH         0.0605
     29 H3          9.7714   29.6761   72.4135 H         1 FIH         0.0611
     30 H4         12.0491   32.4964   74.7935 H         1 FIH         0.0611
     31 H5         10.1204   32.2622   76.3675 H         1 FIH         0.0422
     32 H6          6.7037   32.3786   77.7856 H         1 FIH         0.2106
     33 H7          6.3539   36.1869   76.8329 H         1 FIH         0.0619
     34 H8         10.5931   35.2185   76.6706 H         1 FIH         0.0619
     35 H9         10.9630   37.1163   75.0779 H         1 FIH         0.0557
     36 H10         6.7345   38.0856   75.2429 H         1 FIH         0.0557
     37 H11        10.1684   38.9110   73.8238 H         1 FIH         0.0391
     38 H12         8.8064   39.8128   74.5709 H         1 FIH         0.0391
     39 H13         8.5010   38.7090   73.1870 H         1 FIH         0.0391
@<TRIPOS>BOND
     1    1    2 ar 
     2    6    1 ar 
     3    3    2 ar 
     4    2   12 1  
     5    4    3 ar 
     6    5    4 ar 
     7    5    6 ar 
     8   10    5 1  
     9    8    7 2  
    10    7   11 1  
    11    7   13 1  
    12    9    8 1  
    13    8   16 1  
    14    9   10 2  
    15   10   11 1  
    16   13   14 ar 
    17   13   15 ar 
    18   16   17 am 
    19   17   19 1  
    20   17   25 2  
    21   17   26 2  
    22   19   18 ar 
    23   18   23 ar 
    24   19   20 ar 
    25   20   21 ar 
    26   21   22 ar 
    27   22   23 ar 
    28   22   24 1  
    29    1   27 1  
    30    3   28 1  
    31    4   29 1  
    32    6   30 1  
    33    9   31 1  
    34   16   32 1  
    35   18   33 1  
    36   20   34 1  
    37   21   35 1  
    38   23   36 1  
    39   24   37 1  
    40   24   38 1  
    41   24   39 1  
@<TRIPOS>SUBSTRUCTURE
     1 FIH         1

