### 
### Created by X-TOOL on Mon Sep 10 21:12:54 2018
### 

@<TRIPOS>MOLECULE
2d41_ligand
   44    46     1     0     0
SMALL
GAST_HUCK


@<TRIPOS>ATOM
      1 C1          9.0610   32.4490   72.4310 C.2       1 SNH         0.0450
      2 C2          8.8610   33.1760   73.5840 C.2       1 SNH        -0.0338
      3 C3          7.4890   33.5370   73.8300 C.2       1 SNH         0.0624
      4 C4          6.6630   33.0540   72.8140 C.2       1 SNH         0.0632
      5 S5          7.5930   32.1870   71.6260 S.3       1 SNH        -0.0527
      6 C6          5.1930   33.2310   72.7220 C.2       1 SNH         0.0468
      7 O7          4.6080   32.7310   71.7430 O.co2     1 SNH        -0.5733
      8 O8          4.5800   33.8640   73.6070 O.co2     1 SNH        -0.5733
      9 N9          7.0370   34.2700   74.9450 N.am      1 SNH        -0.1983
     10 S11         7.8650   35.5180   75.7150 S.o2      1 SNH         0.0812
     11 O12         7.0040   36.1520   76.6860 O.2       1 SNH        -0.1471
     12 O13         9.0630   34.9350   76.3010 O.2       1 SNH        -0.1471
     13 C14         8.3010   36.7670   74.4830 C.ar      1 SNH         0.1074
     14 C15         9.6810   36.9320   74.1700 C.ar      1 SNH        -0.0481
     15 C16        10.1080   37.8840   73.2120 C.ar      1 SNH        -0.0657
     16 C17         9.1630   38.6990   72.5400 C.ar      1 SNH        -0.0528
     17 C18         7.7820   38.5350   72.8510 C.ar      1 SNH        -0.0578
     18 C19         7.3250   37.5810   73.8130 C.ar      1 SNH        -0.0259
     19 C20         5.8310   37.4860   74.0660 C.3       1 SNH        -0.0308
     20 C21         9.5970   39.7140   71.5210 C.3       1 SNH        -0.0327
     21 C22        10.3490   31.9400   71.9220 C.2       1 SNH         0.0512
     22 C23        10.4980   30.8230   71.1280 C.2       1 SNH        -0.0566
     23 C24        11.8410   30.5560   70.7840 C.2       1 SNH        -0.0532
     24 C25        12.7230   31.4800   71.3220 C.2       1 SNH         0.0815
     25 S26        11.8710   32.6570   72.2370 S.3       1 SNH        -0.0240
     26 C27        14.2080   31.4610   71.1380 C.2       1 SNH         0.1317
     27 C28        14.8470   30.3610   70.2990 C.3       1 SNH         0.0092
     28 O29        14.9220   32.3130   71.6490 O.2       1 SNH        -0.3866
     29 H1          9.6732   33.4545   74.2538 H         1 SNH         0.0437
     30 H2          6.1401   34.0263   75.3139 H         1 SNH         0.2103
     31 H3         10.4180   36.3176   74.6744 H         1 SNH         0.0601
     32 H4         11.1640   37.9899   72.9915 H         1 SNH         0.0500
     33 H5          7.0532   39.1545   72.3409 H         1 SNH         0.0494
     34 H6          5.6361   36.7143   74.8252 H         1 SNH         0.0390
     35 H7          5.3170   37.2185   73.1310 H         1 SNH         0.0390
     36 H8          5.4575   38.4563   74.4252 H         1 SNH         0.0390
     37 H9         10.6923   39.6893   71.4223 H         1 SNH         0.0390
     38 H10         9.2805   40.7166   71.8443 H         1 SNH         0.0390
     39 H11         9.1361   39.4792   70.5502 H         1 SNH         0.0390
     40 H12         9.6623   30.2073   70.7986 H         1 SNH         0.0466
     41 H13        12.1501   29.7159   70.1638 H         1 SNH         0.0533
     42 H14        15.9372   30.5054   70.2741 H         1 SNH         0.0443
     43 H15        14.4482   30.4026   69.2747 H         1 SNH         0.0443
     44 H16        14.6170   29.3810   70.7426 H         1 SNH         0.0443
@<TRIPOS>BOND
     1    1    2 2  
     2    1    5 1  
     3    1   21 1  
     4    2    3 1  
     5    3    4 2  
     6    3    9 1  
     7    4    5 1  
     8    4    6 1  
     9    6    7 ar 
    10    6    8 ar 
    11    9   10 am 
    12   10   11 2  
    13   10   12 2  
    14   10   13 1  
    15   13   14 ar 
    16   13   18 ar 
    17   14   15 ar 
    18   15   16 ar 
    19   16   17 ar 
    20   16   20 1  
    21   17   18 ar 
    22   18   19 1  
    23   21   22 2  
    24   21   25 1  
    25   22   23 1  
    26   23   24 2  
    27   24   25 1  
    28   24   26 1  
    29   26   27 1  
    30   26   28 2  
    31    2   29 1  
    32    9   30 1  
    33   14   31 1  
    34   15   32 1  
    35   17   33 1  
    36   19   34 1  
    37   19   35 1  
    38   19   36 1  
    39   20   37 1  
    40   20   38 1  
    41   20   39 1  
    42   22   40 1  
    43   23   41 1  
    44   27   42 1  
    45   27   43 1  
    46   27   44 1  
@<TRIPOS>SUBSTRUCTURE
     1 SNH         1

