### 
### Created by X-TOOL on Mon Sep 10 21:12:45 2018
### 

@<TRIPOS>MOLECULE
2dbl_ligand
   67    70     1     0     0
SMALL
GAST_HUCK


@<TRIPOS>ATOM
      1 C1        -19.6090   43.2120  -15.0920 C.3       1 S5H        -0.0444
      2 C2        -18.2840   42.9280  -15.8780 C.3       1 S5H        -0.0216
      3 C3        -17.0210   43.6270  -15.3230 C.3       1 S5H         0.0879
      4 O3        -15.8150   43.1030  -15.9000 O.3       1 S5H        -0.2734
      5 C4        -17.0020   43.4450  -13.7690 C.3       1 S5H        -0.0188
      6 C5        -18.1920   44.1920  -13.1820 C.3       1 S5H        -0.0327
      7 C6        -18.0910   44.3490  -11.6990 C.3       1 S5H        -0.0493
      8 C7        -19.2540   45.1550  -11.1500 C.3       1 S5H        -0.0494
      9 C8        -20.6460   44.6780  -11.6080 C.3       1 S5H        -0.0342
     10 C9        -20.6780   44.4100  -13.1300 C.3       1 S5H        -0.0322
     11 C10       -19.5160   43.4610  -13.5270 C.3       1 S5H        -0.0260
     12 C11       -22.0670   43.9550  -13.5650 C.3       1 S5H        -0.0488
     13 C12       -23.2140   44.8570  -13.0210 C.3       1 S5H        -0.0447
     14 C13       -23.0010   45.2830  -11.5450 C.3       1 S5H        -0.0104
     15 C14       -21.6360   45.7790  -11.3530 C.3       1 S5H        -0.0300
     16 C15       -21.6730   46.4880  -10.0120 C.3       1 S5H        -0.0469
     17 C16       -23.1430   46.9640   -9.8590 C.3       1 S5H        -0.0335
     18 C17       -23.9250   46.3880  -11.0620 C.3       1 S5H         0.0379
     19 C18       -23.1810   44.0340  -10.6790 C.3       1 S5H        -0.0569
     20 C19       -19.6290   42.1340  -12.7500 C.3       1 S5H        -0.0590
     21 C20       -25.3060   45.9000  -10.7100 C.2       1 S5H         0.1055
     22 O20       -25.5100   45.1730   -9.7510 O.2       1 S5H        -0.3916
     23 C21       -26.4650   46.2830  -11.5540 C.3       1 S5H         0.0097
     24 CH1       -15.7850   42.3040  -16.8680 C.2       1 S5H         0.2356
     25 OH1       -16.1250   42.6330  -18.0320 O.2       1 S5H        -0.3703
     26 CH2       -15.2480   40.8890  -16.6710 C.3       1 S5H         0.0602
     27 CH3       -13.7450   40.8590  -16.6750 C.3       1 S5H         0.0184
     28 CH4       -13.1960   41.4700  -15.4050 C.2       1 S5H         0.0371
     29 OH4       -13.9720   41.4280  -14.3970 O.co2     1 S5H        -0.5688
     30 OH5       -12.0220   41.9830  -15.4060 O.co2     1 S5H        -0.5688
     31 H1        -20.2707   42.3468  -15.2455 H         1 S5H         0.0272
     32 H2        -20.0667   44.1074  -15.5377 H         1 S5H         0.0272
     33 H3        -18.4274   43.2609  -16.9166 H         1 S5H         0.0294
     34 H4        -18.1059   41.8426  -15.8621 H         1 S5H         0.0294
     35 H5        -17.0792   44.6999  -15.5587 H         1 S5H         0.0649
     36 H6        -16.0673   43.8547  -13.3585 H         1 S5H         0.0296
     37 H7        -17.0747   42.3762  -13.5194 H         1 S5H         0.0296
     38 H8        -18.2179   45.1951  -13.6326 H         1 S5H         0.0307
     39 H9        -17.1507   44.8657  -11.4564 H         1 S5H         0.0268
     40 H10       -18.0931   43.3530  -11.2321 H         1 S5H         0.0268
     41 H11       -19.1279   46.1995  -11.4709 H         1 S5H         0.0268
     42 H12       -19.2186   45.1020  -10.0519 H         1 S5H         0.0268
     43 H13       -20.9257   43.7678  -11.0573 H         1 S5H         0.0306
     44 H14       -20.4896   45.3669  -13.6387 H         1 S5H         0.0309
     45 H15       -22.2277   42.9296  -13.2006 H         1 S5H         0.0268
     46 H16       -22.1082   43.9642  -14.6642 H         1 S5H         0.0268
     47 H17       -24.1608   44.3016  -13.0924 H         1 S5H         0.0272
     48 H18       -23.2725   45.7628  -13.6424 H         1 S5H         0.0272
     49 H19       -21.4271   46.5480  -12.1113 H         1 S5H         0.0310
     50 H20       -20.9849   47.3462  -10.0077 H         1 S5H         0.0270
     51 H21       -21.4025   45.7969   -9.2001 H         1 S5H         0.0270
     52 H22       -23.1884   48.0630   -9.8687 H         1 S5H         0.0293
     53 H23       -23.5670   46.5878   -8.9163 H         1 S5H         0.0293
     54 H24       -24.0306   47.1566  -11.8418 H         1 S5H         0.0535
     55 H25       -22.5084   43.2402  -11.0361 H         1 S5H         0.0237
     56 H26       -24.2233   43.6888  -10.7454 H         1 S5H         0.0237
     57 H27       -22.9406   44.2752   -9.6331 H         1 S5H         0.0237
     58 H28       -18.8016   41.4688  -13.0381 H         1 S5H         0.0235
     59 H29       -20.5880   41.6504  -12.9877 H         1 S5H         0.0235
     60 H30       -19.5779   42.3360  -11.6699 H         1 S5H         0.0235
     61 H31       -27.3818   45.8355  -11.1427 H         1 S5H         0.0459
     62 H32       -26.3077   45.9189  -12.5800 H         1 S5H         0.0459
     63 H33       -26.5647   47.3784  -11.5648 H         1 S5H         0.0459
     64 H34       -15.6194   40.2501  -17.4858 H         1 S5H         0.0536
     65 H35       -15.6097   40.5014  -15.7072 H         1 S5H         0.0536
     66 H36       -13.3745   41.4291  -17.5397 H         1 S5H         0.0456
     67 H37       -13.4046   39.8157  -16.7505 H         1 S5H         0.0456
@<TRIPOS>BOND
     1    1    2 1  
     2    1   11 1  
     3    2    3 1  
     4    3    4 1  
     5    3    5 1  
     6    4   24 1  
     7    5    6 1  
     8    6    7 1  
     9    6   11 1  
    10    7    8 1  
    11    8    9 1  
    12    9   10 1  
    13    9   15 1  
    14   10   11 1  
    15   10   12 1  
    16   11   20 1  
    17   12   13 1  
    18   13   14 1  
    19   14   15 1  
    20   14   18 1  
    21   14   19 1  
    22   15   16 1  
    23   16   17 1  
    24   17   18 1  
    25   18   21 1  
    26   21   22 2  
    27   21   23 1  
    28   24   25 2  
    29   24   26 1  
    30   26   27 1  
    31   27   28 1  
    32   28   29 ar 
    33   28   30 ar 
    34    1   31 1  
    35    1   32 1  
    36    2   33 1  
    37    2   34 1  
    38    3   35 1  
    39    5   36 1  
    40    5   37 1  
    41    6   38 1  
    42    7   39 1  
    43    7   40 1  
    44    8   41 1  
    45    8   42 1  
    46    9   43 1  
    47   10   44 1  
    48   12   45 1  
    49   12   46 1  
    50   13   47 1  
    51   13   48 1  
    52   15   49 1  
    53   16   50 1  
    54   16   51 1  
    55   17   52 1  
    56   17   53 1  
    57   18   54 1  
    58   19   55 1  
    59   19   56 1  
    60   19   57 1  
    61   20   58 1  
    62   20   59 1  
    63   20   60 1  
    64   23   61 1  
    65   23   62 1  
    66   23   63 1  
    67   26   64 1  
    68   26   65 1  
    69   27   66 1  
    70   27   67 1  
@<TRIPOS>SUBSTRUCTURE
     1 S5H         1

