### 
### Created by X-TOOL on Mon Sep 10 21:12:54 2018
### 

@<TRIPOS>MOLECULE
2ddf_ligand
   67    66     1     0     0
SMALL
GAST_HUCK


@<TRIPOS>ATOM
      1 N1          6.6900    6.1150   24.3260 N.am      1 INN        -0.2648
      2 C2          6.9540    8.2940   28.8890 C.3       1 INN        -0.0625
      3 O2          7.7780    3.6270   25.0580 O.2       1 INN        -0.3944
      4 N3          6.5750   -0.5610   25.2380 N.am      1 INN        -0.2800
      5 C4          5.9330    7.1070   24.7930 C.2       1 INN         0.1836
      6 O4          6.6690   13.0290   24.9480 O.3       1 INN        -0.2717
      7 C5          6.0960    4.8380   23.9740 C.3       1 INN         0.1357
      8 C6          6.2860    4.5320   22.4680 C.3       1 INN         0.0026
      9 C8          5.5240    5.5360   21.5980 C.3       1 INN        -0.0558
     10 C9          5.8050    3.1130   22.1060 C.3       1 INN        -0.0558
     11 C10         6.5750    3.7070   24.8370 C.2       1 INN         0.2044
     12 C11         6.0000    1.6660   26.0770 C.3       1 INN         0.1280
     13 C12         5.2280    1.4980   27.3760 C.3       1 INN        -0.0244
     14 N           6.0920   11.7800   24.8010 N.am      1 INN        -0.1641
     15 C           6.7270   10.7850   24.2030 C.2       1 INN         0.2013
     16 O           7.8230   10.8830   23.6990 O.2       1 INN        -0.3968
     17 C0          5.9850    9.4640   24.1220 C.3       1 INN         0.0585
     18 CA          6.6540    8.4200   25.0290 C.3       1 INN         0.0657
     19 CB          6.5220    8.8400   26.4960 C.3       1 INN        -0.0288
     20 C1          7.2290    7.8710   27.4360 C.3       1 INN        -0.0443
     21 C3          8.7250    7.8040   27.1640 C.3       1 INN        -0.0625
     22 O1          4.7530    7.0060   25.0140 O.2       1 INN        -0.3965
     23 C7          7.7630    4.5700   22.0520 C.3       1 INN        -0.0558
     24 N2          5.6560    2.8510   25.2970 N.am      1 INN        -0.2640
     25 C13         5.7250    0.4590   25.2010 C.2       1 INN         0.2015
     26 O3          4.7490    0.4090   24.4670 O.2       1 INN        -0.3945
     27 C14         6.3620   -1.7420   24.3930 C.3       1 INN         0.0708
     28 C15         6.6190   -1.4500   22.9170 C.3       1 INN        -0.0148
     29 N4          5.3400   -1.2050   22.2540 N.4       1 INN         0.2200
     30 H1          7.6747    6.2511   24.2172 H         1 INN         0.1883
     31 H2          7.4609    7.5996   29.5752 H         1 INN         0.0232
     32 H3          5.8707    8.2715   29.0787 H         1 INN         0.0232
     33 H4          7.3338    9.3133   29.0523 H         1 INN         0.0232
     34 H5          7.3672   -0.5239   25.8471 H         1 INN         0.1853
     35 H6          6.8698   13.3867   24.0911 H         1 INN         0.2490
     36 H7          5.0142    4.9318   24.1499 H         1 INN         0.0805
     37 H8          5.6784    5.2926   20.5364 H         1 INN         0.0237
     38 H9          5.8956    6.5516   21.7991 H         1 INN         0.0237
     39 H10         4.4507    5.4849   21.8335 H         1 INN         0.0237
     40 H11         6.3416    2.3759   22.7214 H         1 INN         0.0237
     41 H12         6.0056    2.9180   21.0422 H         1 INN         0.0237
     42 H13         4.7246    3.0324   22.2962 H         1 INN         0.0237
     43 H14         7.0718    1.7116   26.3202 H         1 INN         0.0797
     44 H15         5.5604    0.5807   27.8840 H         1 INN         0.0277
     45 H16         4.1525    1.4265   27.1567 H         1 INN         0.0277
     46 H17         5.4126    2.3652   28.0271 H         1 INN         0.0277
     47 H18         5.1702   11.6251   25.1563 H         1 INN         0.2216
     48 H19         5.9982    9.1035   23.0828 H         1 INN         0.0529
     49 H20         4.9442    9.6120   24.4456 H         1 INN         0.0529
     50 H21         7.7184    8.3191   24.7704 H         1 INN         0.0563
     51 H22         5.4548    8.8752   26.7602 H         1 INN         0.0296
     52 H23         6.9636    9.8398   26.6197 H         1 INN         0.0296
     53 H24         6.8097    6.8664   27.2780 H         1 INN         0.0297
     54 H25         9.1933    7.0953   27.8629 H         1 INN         0.0232
     55 H26         9.1678    8.8015   27.3017 H         1 INN         0.0232
     56 H27         8.8951    7.4667   26.1309 H         1 INN         0.0232
     57 H28         8.1828    5.5608   22.2803 H         1 INN         0.0237
     58 H29         7.8449    4.3771   20.9722 H         1 INN         0.0237
     59 H30         8.3198    3.7995   22.6054 H         1 INN         0.0237
     60 H31         4.6925    3.0303   25.0982 H         1 INN         0.1883
     61 H32         5.3216   -2.0790   24.5113 H         1 INN         0.0573
     62 H33         7.0453   -2.5395   24.7203 H         1 INN         0.0573
     63 H34         7.1172   -2.3129   22.4510 H         1 INN         0.0833
     64 H35         7.2602   -0.5613   22.8225 H         1 INN         0.0833
     65 H36         5.4994   -1.0110   21.2778 H         1 INN         0.1995
     66 H37         4.8847   -0.4149   22.6836 H         1 INN         0.1995
     67 H38         4.7537   -2.0201   22.3432 H         1 INN         0.1995
@<TRIPOS>BOND
     1    5    1 am 
     2    1    7 1  
     3   20    2 1  
     4   11    3 2  
     5   25    4 am 
     6    4   27 1  
     7   18    5 1  
     8    5   22 2  
     9   14    6 1  
    10    7    8 1  
    11    7   11 1  
    12    8    9 1  
    13    8   10 1  
    14    8   23 1  
    15   11   24 am 
    16   12   13 1  
    17   24   12 1  
    18   12   25 1  
    19   15   14 am 
    20   15   16 2  
    21   17   15 1  
    22   18   17 1  
    23   19   18 1  
    24   19   20 1  
    25   20   21 1  
    26   25   26 2  
    27   27   28 1  
    28   28   29 1  
    29    1   30 1  
    30    2   31 1  
    31    2   32 1  
    32    2   33 1  
    33    4   34 1  
    34    6   35 1  
    35    7   36 1  
    36    9   37 1  
    37    9   38 1  
    38    9   39 1  
    39   10   40 1  
    40   10   41 1  
    41   10   42 1  
    42   12   43 1  
    43   13   44 1  
    44   13   45 1  
    45   13   46 1  
    46   14   47 1  
    47   17   48 1  
    48   17   49 1  
    49   18   50 1  
    50   19   51 1  
    51   19   52 1  
    52   20   53 1  
    53   21   54 1  
    54   21   55 1  
    55   21   56 1  
    56   23   57 1  
    57   23   58 1  
    58   23   59 1  
    59   24   60 1  
    60   27   61 1  
    61   27   62 1  
    62   28   63 1  
    63   28   64 1  
    64   29   65 1  
    65   29   66 1  
    66   29   67 1  
@<TRIPOS>SUBSTRUCTURE
     1 INN         1

