### 
### Created by X-TOOL on Mon Sep 10 21:12:54 2018
### 

@<TRIPOS>MOLECULE
2doo_ligand
   54    55     1     0     0
SMALL
GAST_HUCK


@<TRIPOS>ATOM
      1 C1         29.6070   45.8040   33.4710 C.ar      1 C4H         0.0095
      2 C2         28.8450   44.6830   32.9420 C.ar      1 C4H        -0.0544
      3 C3         30.2050   46.9530   32.6940 C.ar      1 C4H         0.0537
      4 N4         30.1240   47.1320   31.1460 N.pl3     1 C4H        -0.3105
      5 C5         28.9900   47.7580   30.8110 C.3       1 C4H         0.0171
      6 C6         30.3060   46.1350   30.4870 C.3       1 C4H         0.0171
      7 C7         30.9150   47.9550   33.4300 C.ar      1 C4H        -0.0457
      8 C8         31.0680   47.9150   34.8450 C.ar      1 C4H        -0.0783
      9 C9         30.5070   46.8380   35.5810 C.ar      1 C4H        -0.0696
     10 C10        29.7670   45.7720   34.9400 C.ar      1 C4H        -0.0026
     11 C11        29.2020   44.6540   35.7550 C.ar      1 C4H         0.1102
     12 C12        28.4680   43.6060   35.1070 C.ar      1 C4H        -0.0380
     13 C13        28.3030   43.6310   33.7190 C.ar      1 C4H        -0.0621
     14 S14        29.4140   44.6000   37.5190 S.o2      1 C4H         0.0672
     15 N15        30.8320   44.4080   37.9770 N.am      1 C4H        -0.2478
     16 C16        31.8760   43.8390   37.0940 C.3       1 C4H         0.0266
     17 C17        32.5270   42.5660   37.7580 C.3       1 C4H        -0.0343
     18 C18        33.0550   42.9310   39.2220 C.3       1 C4H        -0.0313
     19 C19        33.7680   41.7850   39.9060 C.3       1 C4H         0.0309
     20 N20        33.9520   42.0030   41.3800 N.am      1 C4H        -0.2869
     21 C21        33.1670   41.1300   42.3080 C.2       1 C4H         0.1767
     22 O22        32.4080   40.2780   41.8450 O.2       1 C4H        -0.3971
     23 C23        33.3510   41.3770   43.8440 C.3       1 C4H         0.0460
     24 C24        32.1730   40.9190   44.6920 C.3       1 C4H         0.0075
     25 S25        30.6760   41.9520   44.8060 S.3       1 C4H        -0.1759
     26 O26        28.5580   43.5070   38.1010 O.2       1 C4H        -0.1507
     27 O27        29.0090   45.9080   38.0760 O.2       1 C4H        -0.1507
     28 H1         28.6797   44.6509   31.8712 H         1 C4H         0.0631
     29 H2         28.9461   47.8774   29.7184 H         1 C4H         0.0483
     30 H3         28.9626   48.7481   31.2894 H         1 C4H         0.0483
     31 H4         28.1289   47.1632   31.1497 H         1 C4H         0.0483
     32 H5         31.2467   45.6569   30.7976 H         1 C4H         0.0483
     33 H6         30.3661   46.4050   29.4224 H         1 C4H         0.0483
     34 H7         29.4709   45.4359   30.6414 H         1 C4H         0.0483
     35 H8         31.3562   48.7818   32.8851 H         1 C4H         0.0463
     36 H9         31.6095   48.7020   35.3574 H         1 C4H         0.0573
     37 H10        30.6371   46.8134   36.6569 H         1 C4H         0.0468
     38 H11        28.0429   42.7978   35.6911 H         1 C4H         0.0632
     39 H12        27.7528   42.8344   33.2313 H         1 C4H         0.0586
     40 H13        31.0791   44.6732   38.9090 H         1 C4H         0.1672
     41 H14        32.6555   44.5956   36.9209 H         1 C4H         0.0475
     42 H15        31.4219   43.5540   36.1335 H         1 C4H         0.0475
     43 H16        33.3701   42.2225   37.1406 H         1 C4H         0.0281
     44 H17        31.7752   41.7663   37.8296 H         1 C4H         0.0281
     45 H18        32.1939   43.2247   39.8402 H         1 C4H         0.0285
     46 H19        33.7532   43.7770   39.1401 H         1 C4H         0.0285
     47 H20        34.7586   41.6629   39.4437 H         1 C4H         0.0520
     48 H21        33.1789   40.8679   39.7585 H         1 C4H         0.0520
     49 H22        34.5746   42.7039   41.7280 H         1 C4H         0.1850
     50 H23        33.4946   42.4555   44.0058 H         1 C4H         0.0510
     51 H24        34.2479   40.8337   44.1764 H         1 C4H         0.0510
     52 H25        32.5502   40.7924   45.7175 H         1 C4H         0.0398
     53 H26        31.8560   39.9434   44.2948 H         1 C4H         0.0398
     54 H27        30.0022   41.5002   45.4043 H         1 C4H         0.1018
@<TRIPOS>BOND
     1    1    2 ar 
     2    1    3 ar 
     3    1   10 ar 
     4    2   13 ar 
     5    3    4 1  
     6    3    7 ar 
     7    4    5 1  
     8    4    6 1  
     9    7    8 ar 
    10    8    9 ar 
    11    9   10 ar 
    12   10   11 ar 
    13   11   12 ar 
    14   11   14 1  
    15   12   13 ar 
    16   14   15 am 
    17   14   26 2  
    18   14   27 2  
    19   15   16 1  
    20   16   17 1  
    21   17   18 1  
    22   18   19 1  
    23   19   20 1  
    24   20   21 am 
    25   21   22 2  
    26   21   23 1  
    27   23   24 1  
    28   24   25 1  
    29    2   28 1  
    30    5   29 1  
    31    5   30 1  
    32    5   31 1  
    33    6   32 1  
    34    6   33 1  
    35    6   34 1  
    36    7   35 1  
    37    8   36 1  
    38    9   37 1  
    39   12   38 1  
    40   13   39 1  
    41   15   40 1  
    42   16   41 1  
    43   16   42 1  
    44   17   43 1  
    45   17   44 1  
    46   18   45 1  
    47   18   46 1  
    48   19   47 1  
    49   19   48 1  
    50   20   49 1  
    51   23   50 1  
    52   23   51 1  
    53   24   52 1  
    54   24   53 1  
    55   25   54 1  
@<TRIPOS>SUBSTRUCTURE
     1 C4H         1

