### 
### Created by X-TOOL on Fri Nov 18 11:55:14 2016
### 

@<TRIPOS>MOLECULE
2drc_ligand
   53    55     1     0     0
SMALL
GAST_HUCK


@<TRIPOS>ATOM
      1 N1         16.6570   65.1860   45.8690 N.ar      1 MTX        -0.2668
      2 C2         15.9390   65.3410   47.0480 C.ar      1 MTX         0.1670
      3 NA2        14.7480   64.9240   47.1720 N.pl3     1 MTX        -0.3051
      4 N3         16.6830   66.0210   48.0560 N.ar      1 MTX        -0.2298
      5 C4         17.9500   66.5140   47.9490 C.ar      1 MTX         0.1540
      6 NA4        18.6220   67.2120   49.0070 N.pl3     1 MTX        -0.3052
      7 C4A        18.5740   66.2980   46.6440 C.ar      1 MTX         0.1326
      8 N5         19.8060   66.9530   46.4290 N.ar      1 MTX        -0.2616
      9 C6         20.2960   66.7900   45.1840 C.ar      1 MTX         0.0826
     10 C7         19.7040   66.0900   44.2970 C.ar      1 MTX         0.0478
     11 N8         18.6370   65.5810   44.4620 N.ar      1 MTX        -0.2649
     12 C8A        18.0300   65.7100   45.7690 C.ar      1 MTX         0.1183
     13 C9         21.7350   67.5440   45.0040 C.3       1 MTX         0.0825
     14 N10        22.0740   67.7220   43.5320 N.pl3     1 MTX        -0.2945
     15 CM         23.1480   66.8860   43.0500 C.3       1 MTX         0.0191
     16 C11        19.7860   69.8970   41.1110 C.ar      1 MTX         0.0362
     17 C12        20.8260   69.1570   40.6820 C.ar      1 MTX        -0.0535
     18 C13        21.4810   68.5360   41.4320 C.ar      1 MTX        -0.0379
     19 C14        21.1780   68.5390   42.7840 C.ar      1 MTX         0.0476
     20 C15        20.1490   69.2830   43.3400 C.ar      1 MTX        -0.0379
     21 C16        19.4550   69.9110   42.4680 C.ar      1 MTX        -0.0535
     22 C          18.9730   70.6500   40.1990 C.2       1 MTX         0.1968
     23 O          19.5050   71.1000   39.0300 O.2       1 MTX        -0.3908
     24 N          17.6620   70.9510   40.4590 N.am      1 MTX        -0.2725
     25 CA         16.9590   71.9360   39.7490 C.3       1 MTX         0.0951
     26 CT         16.3050   72.8880   40.7170 C.2       1 MTX         0.0601
     27 O1         16.0800   72.6090   41.9590 O.co2     1 MTX        -0.5666
     28 O2         15.8230   73.9840   40.1980 O.co2     1 MTX        -0.5666
     29 CB         15.6700   71.3490   39.1600 C.3       1 MTX        -0.0064
     30 CG         15.9940   70.3640   38.1380 C.3       1 MTX         0.0038
     31 CD         16.0860   71.0030   36.7380 C.2       1 MTX         0.0350
     32 OE1        16.8950   70.2420   35.8920 O.co2     1 MTX        -0.5690
     33 OE2        15.4690   72.2270   36.4290 O.co2     1 MTX        -0.5690
     34 H1         14.2872   64.4410   46.3876 H         1 MTX         0.1844
     35 H2         14.2413   65.0683   48.0571 H         1 MTX         0.1844
     36 H3         19.5806   67.5615   48.8659 H         1 MTX         0.1886
     37 H4         18.1459   67.3637   49.9077 H         1 MTX         0.1886
     38 H5         20.1966   65.9498   43.3416 H         1 MTX         0.0952
     39 H6         22.5200   66.9412   45.4840 H         1 MTX         0.0719
     40 H7         21.6863   68.5323   45.4844 H         1 MTX         0.0719
     41 H8         23.3174   67.0863   41.9817 H         1 MTX         0.0482
     42 H9         22.8788   65.8282   43.1865 H         1 MTX         0.0482
     43 H10        24.0660   67.1066   43.6145 H         1 MTX         0.0482
     44 H11        21.0625   69.1345   39.6244 H         1 MTX         0.0636
     45 H12        22.3234   67.9598   41.0669 H         1 MTX         0.0530
     46 H13        19.9525   69.3281   44.4051 H         1 MTX         0.0530
     47 H14        18.5847   70.4703   42.7916 H         1 MTX         0.0636
     48 H15        17.1879   70.4494   41.1826 H         1 MTX         0.1864
     49 H16        17.6026   72.4284   39.0051 H         1 MTX         0.0726
     50 H17        15.0734   72.1569   38.7113 H         1 MTX         0.0323
     51 H18        15.0903   70.8663   39.9606 H         1 MTX         0.0323
     52 H19        15.2108   69.5917   38.1264 H         1 MTX         0.0432
     53 H20        16.9615   69.9015   38.3828 H         1 MTX         0.0432
@<TRIPOS>BOND
     1   12    1 ar 
     2    1    2 ar 
     3    2    4 ar 
     4    2    3 1  
     5    4    5 ar 
     6    5    7 ar 
     7    5    6 1  
     8    7   12 ar 
     9    7    8 ar 
    10    8    9 ar 
    11    9   13 1  
    12    9   10 ar 
    13   10   11 ar 
    14   11   12 ar 
    15   13   14 1  
    16   14   19 1  
    17   14   15 1  
    18   19   20 ar 
    19   19   18 ar 
    20   18   17 ar 
    21   17   16 ar 
    22   16   22 1  
    23   16   21 ar 
    24   21   20 ar 
    25   22   24 am 
    26   22   23 2  
    27   24   25 1  
    28   25   29 1  
    29   25   26 1  
    30   26   28 ar 
    31   26   27 ar 
    32   29   30 1  
    33   30   31 1  
    34   31   33 ar 
    35   31   32 ar 
    36    3   34 1  
    37    3   35 1  
    38    6   36 1  
    39    6   37 1  
    40   10   38 1  
    41   13   39 1  
    42   13   40 1  
    43   15   41 1  
    44   15   42 1  
    45   15   43 1  
    46   17   44 1  
    47   18   45 1  
    48   20   46 1  
    49   21   47 1  
    50   24   48 1  
    51   25   49 1  
    52   29   50 1  
    53   29   51 1  
    54   30   52 1  
    55   30   53 1  
@<TRIPOS>SUBSTRUCTURE
     1 MTX         1

