### 
### Created by X-TOOL on Mon Sep 10 21:12:45 2018
### 

@<TRIPOS>MOLECULE
2dri_ligand
   20    20     1     0     0
SMALL
GAST_HUCK


@<TRIPOS>ATOM
      1 C1         50.1440   33.6000   44.1560 C.3       1 RIP         0.1850
      2 C2         49.4580   33.0880   45.4190 C.3       1 RIP         0.1339
      3 C3         49.0810   34.2650   46.3280 C.3       1 RIP         0.1137
      4 C4         50.3330   35.1100   46.6080 C.3       1 RIP         0.1069
      5 C5         50.9730   35.5300   45.2930 C.3       1 RIP         0.0792
      6 O1         50.5540   32.5410   43.3290 O.3       1 RIP        -0.3649
      7 O2         48.3010   32.3610   45.0800 O.3       1 RIP        -0.3841
      8 O3         48.0780   35.0500   45.6860 O.3       1 RIP        -0.3864
      9 O4         50.0130   36.2510   47.3700 O.3       1 RIP        -0.3869
     10 O5         51.2830   34.3700   44.5110 O.3       1 RIP        -0.3462
     11 H1         49.4362   34.2329   43.6007 H         1 RIP         0.0935
     12 H2         50.1516   32.4264   45.9586 H         1 RIP         0.0671
     13 H3         48.6848   33.8807   47.2795 H         1 RIP         0.0647
     14 H4         51.0509   34.4988   47.1746 H         1 RIP         0.0643
     15 H5         51.8977   36.0890   45.4991 H         1 RIP         0.0587
     16 H6         50.2741   36.1703   44.7349 H         1 RIP         0.0587
     17 H7         51.1774   31.9980   43.7972 H         1 RIP         0.2126
     18 H8         48.5390   31.6335   44.5174 H         1 RIP         0.2101
     19 H9         47.8391   35.7778   46.2480 H         1 RIP         0.2100
     20 H10        49.6141   35.9818   48.1891 H         1 RIP         0.2100
@<TRIPOS>BOND
     1    1    2 1  
     2    1    6 1  
     3    1   10 1  
     4    2    3 1  
     5    2    7 1  
     6    3    4 1  
     7    3    8 1  
     8    4    5 1  
     9    4    9 1  
    10    5   10 1  
    11    1   11 1  
    12    2   12 1  
    13    3   13 1  
    14    4   14 1  
    15    5   15 1  
    16    5   16 1  
    17    6   17 1  
    18    7   18 1  
    19    8   19 1  
    20    9   20 1  
@<TRIPOS>SUBSTRUCTURE
     1 RIP         1

