### 
### Created by X-TOOL on Mon Sep 10 21:12:56 2018
### 

@<TRIPOS>MOLECULE
2ds1_ligand
   54    59     1     0     0
SMALL
GAST_HUCK


@<TRIPOS>ATOM
      1 C1         -6.7810   10.0080   12.8240 C.3       1 1CD        -0.0215
      2 N2         -6.9360    8.2690   14.5930 N.4       1 1CD         0.2408
      3 C3         -7.6640    6.9900   14.3740 C.3       1 1CD        -0.0006
      4 C4         -8.1390    7.0520   12.9180 C.3       1 1CD         0.1221
      5 C5         -6.7440    7.4970   12.5030 C.3       1 1CD         0.0252
      6 C6         -6.2410    8.6700   13.3410 C.3       1 1CD        -0.0207
      7 C7        -10.4200    9.5770   11.5360 C.ar      1 1CD         0.0931
      8 C8         -9.7580    8.2790   11.5480 C.ar      1 1CD         0.0969
      9 C9        -11.2410    9.9780   10.3760 C.ar      1 1CD         0.0774
     10 N10       -10.2140   10.3950   12.6260 N.pl3     1 1CD        -0.3036
     11 C11        -9.8580    7.3430   10.4130 C.ar      1 1CD        -0.0592
     12 O12        -9.1010    8.0920   12.7620 O.3       1 1CD        -0.3197
     13 C13       -11.3400    9.0350    9.2620 C.ar      1 1CD        -0.0626
     14 N14       -11.7780   11.2250   10.5350 N.am      1 1CD        -0.2380
     15 C15       -10.6960   11.6760   12.8380 C.3       1 1CD         0.1571
     16 C16       -10.6590    7.7260    9.2510 C.ar      1 1CD        -0.0965
     17 C17       -11.5920   12.0950   11.6420 C.2       1 1CD         0.2336
     18 C18       -10.1150   12.5160   13.9300 C.ar      1 1CD         0.0265
     19 O19       -12.1290   13.1970   11.7080 O.2       1 1CD        -0.3817
     20 C20        -9.1810   11.8710   14.9830 C.ar      1 1CD         0.0898
     21 C21       -10.2300   13.9710   13.8410 C.ar      1 1CD        -0.0627
     22 C22        -8.3650   12.7480   15.8740 C.ar      1 1CD         0.0652
     23 N23        -8.7960   10.6110   15.3440 N.pl3     1 1CD        -0.2177
     24 C24        -9.4210   14.7740   14.7440 C.ar      1 1CD        -0.0757
     25 C25        -7.5560   11.8010   16.6560 C.2       1 1CD         0.2182
     26 C26        -8.5010   14.2040   15.7380 C.ar      1 1CD        -0.0600
     27 N27        -7.8330   10.4980   16.3140 N.am      1 1CD        -0.1716
     28 C28        -7.2100    9.2910   16.8760 C.3       1 1CD         0.0973
     29 O29        -6.7310   12.1390   17.5080 O.2       1 1CD        -0.3902
     30 C30        -6.2780    8.6110   15.8740 C.3       1 1CD        -0.0085
     31 H1         -6.2531   10.2837   11.8992 H         1 1CD         0.0284
     32 H2         -6.6200   10.7867   13.5841 H         1 1CD         0.0284
     33 H3         -7.8574    9.9139   12.6176 H         1 1CD         0.0284
     34 H4         -7.7040    8.9211   14.6232 H         1 1CD         0.2038
     35 H5         -8.5218    6.9107   15.0580 H         1 1CD         0.0844
     36 H6         -6.9931    6.1317   14.5261 H         1 1CD         0.0844
     37 H7         -8.4886    6.1054   12.4801 H         1 1CD         0.0700
     38 H8         -6.7687    7.8012   11.4462 H         1 1CD         0.0350
     39 H9         -6.0512    6.6514   12.6251 H         1 1CD         0.0350
     40 H10        -5.1455    8.7050   13.4345 H         1 1CD         0.0849
     41 H11        -9.6278   10.0045   13.3775 H         1 1CD         0.1727
     42 H12        -9.3466    6.3876   10.4395 H         1 1CD         0.0386
     43 H13       -11.9422    9.3109    8.4039 H         1 1CD         0.0378
     44 H14       -12.3622   11.5592    9.7954 H         1 1CD         0.2212
     45 H15       -11.5460   11.3754   13.4681 H         1 1CD         0.0920
     46 H16       -10.7506    7.0620    8.3991 H         1 1CD         0.0444
     47 H17       -10.8972   14.4363   13.1245 H         1 1CD         0.0559
     48 H18        -9.2129    9.7779   14.9046 H         1 1CD         0.2072
     49 H19        -9.5011   15.8532   14.6803 H         1 1CD         0.0501
     50 H20        -7.9197   14.8616   16.3742 H         1 1CD         0.0578
     51 H21        -8.0015    8.5829   17.1625 H         1 1CD         0.0598
     52 H22        -6.6296    9.5724   17.7670 H         1 1CD         0.0598
     53 H23        -5.4383    9.2897   15.6637 H         1 1CD         0.0835
     54 H24        -5.8960    7.6845   16.3274 H         1 1CD         0.0835
@<TRIPOS>BOND
     1    6    1 1  
     2    3    2 1  
     3    6    2 1  
     4    2   30 1  
     5    4    3 1  
     6    4    5 1  
     7   12    4 1  
     8    5    6 1  
     9    8    7 ar 
    10    7    9 ar 
    11    7   10 1  
    12    8   11 ar 
    13    8   12 1  
    14    9   13 ar 
    15    9   14 1  
    16   10   15 1  
    17   11   16 ar 
    18   13   16 ar 
    19   14   17 am 
    20   15   17 1  
    21   15   18 1  
    22   17   19 2  
    23   18   20 ar 
    24   18   21 ar 
    25   20   22 ar 
    26   20   23 1  
    27   21   24 ar 
    28   22   25 1  
    29   22   26 ar 
    30   23   27 1  
    31   24   26 ar 
    32   25   27 am 
    33   25   29 2  
    34   27   28 1  
    35   28   30 1  
    36    1   31 1  
    37    1   32 1  
    38    1   33 1  
    39    2   34 1  
    40    3   35 1  
    41    3   36 1  
    42    4   37 1  
    43    5   38 1  
    44    5   39 1  
    45    6   40 1  
    46   10   41 1  
    47   11   42 1  
    48   13   43 1  
    49   14   44 1  
    50   15   45 1  
    51   16   46 1  
    52   21   47 1  
    53   23   48 1  
    54   24   49 1  
    55   26   50 1  
    56   28   51 1  
    57   28   52 1  
    58   30   53 1  
    59   30   54 1  
@<TRIPOS>SUBSTRUCTURE
     1 1CD         1

