### 
### Created by X-TOOL on Sun Sep  9 21:50:20 2018
### 

@<TRIPOS>MOLECULE
2dua_ligand
    6     5     1     0     0
SMALL
GAST_HUCK


@<TRIPOS>ATOM
      1 C1         53.4390   25.1270   41.0560 C.2       1 NON         0.0999
      2 C2         53.4160   23.7870   40.4390 C.2       1 NON         0.0999
      3 O1         54.4310   25.9250   40.7940 O.co2     1 NON        -0.5500
      4 O2         52.3250   23.1400   40.4560 O.co2     1 NON        -0.5500
      5 O3         52.4770   25.4200   41.7960 O.co2     1 NON        -0.5500
      6 O4         54.4540   23.3490   39.8990 O.co2     1 NON        -0.5500
@<TRIPOS>BOND
     1    1    2 1  
     2    1    3 ar 
     3    1    5 ar 
     4    2    4 ar 
     5    2    6 ar 
@<TRIPOS>SUBSTRUCTURE
     1 NON         1

