### 
### Created by X-TOOL on Mon Sep 10 21:12:56 2018
### 

@<TRIPOS>MOLECULE
2duv_ligand
   45    48     1     0     0
SMALL
GAST_HUCK


@<TRIPOS>ATOM
      1 O1         26.7820   29.0830   26.8430 O.3       1 371        -0.2631
      2 C1         27.3150   30.3250   27.1130 C.2       1 371         0.1496
      3 C2         26.7270   31.1880   28.0230 C.2       1 371         0.1615
      4 C3         25.4570   30.7340   28.7240 C.2       1 371         0.1494
      5 C4         23.7360   28.8650   28.9870 C.ar      1 371        -0.0689
      6 C5         23.2560   27.5740   28.6410 C.ar      1 371        -0.0680
      7 C6         23.9780   26.7840   27.6850 C.ar      1 371        -0.0467
      8 C7         25.1690   27.2930   27.0840 C.ar      1 371         0.1018
      9 C8         25.6240   28.5910   27.4430 C.ar      1 371         0.1493
     10 C9         24.9140   29.3780   28.3940 C.ar      1 371         0.0419
     11 O2         24.9810   31.5560   29.5170 O.2       1 371        -0.4078
     12 C10        28.5350   30.6160   26.3370 C.ar      1 371        -0.0057
     13 C11        28.8470   31.9240   25.8360 C.ar      1 371        -0.0719
     14 C12        30.0220   32.1400   25.0780 C.ar      1 371        -0.0407
     15 C13        30.8760   31.0490   24.8190 C.ar      1 371         0.1168
     16 C14        30.5740   29.7360   25.3140 C.ar      1 371         0.1159
     17 C15        29.4110   29.5290   26.0660 C.ar      1 371        -0.0330
     18 C16        21.9930   27.0560   29.2860 C.3       1 371        -0.0389
     19 O3         27.1770   32.4440   28.3640 O.3       1 371        -0.3405
     20 O4         31.4670   28.7080   25.0110 O.3       1 371        -0.3370
     21 O5         32.0230   31.2020   24.0840 O.3       1 371        -0.3362
     22 C17        26.5620   25.5410   24.0630 C.3       1 371        -0.0084
     23 C18        25.4590   26.3660   24.7790 C.3       1 371         0.0555
     24 N1         25.9100   26.5850   26.1550 N.am      1 371        -0.1792
     25 S1         27.3570   25.8980   26.4190 S.o2      1 371         0.0612
     26 C19        27.9000   25.8740   24.7420 C.3       1 371         0.0919
     27 O7         27.0860   24.5620   26.8660 O.2       1 371        -0.1499
     28 O6         28.1790   26.7660   27.2180 O.2       1 371        -0.1499
     29 H1         23.1952   29.4628   29.7118 H         1 371         0.0417
     30 H2         23.6178   25.7970   27.4181 H         1 371         0.0414
     31 H3         28.1779   32.7522   26.0397 H         1 371         0.0497
     32 H4         30.2615   33.1283   24.7026 H         1 371         0.0514
     33 H5         29.1782   28.5393   26.4419 H         1 371         0.0496
     34 H6         21.6003   27.8117   29.9822 H         1 371         0.0370
     35 H7         22.2157   26.1304   29.8370 H         1 371         0.0370
     36 H8         21.2428   26.8486   28.5087 H         1 371         0.0370
     37 H9         26.5098   33.0864   28.1527 H         1 371         0.2416
     38 H10        32.1854   29.0557   24.4957 H         1 371         0.2442
     39 H11        31.9808   30.6471   23.3141 H         1 371         0.2450
     40 H12        26.6031   25.8131   22.9980 H         1 371         0.0303
     41 H13        26.3492   24.4661   24.1589 H         1 371         0.0303
     42 H14        24.5103   25.8093   24.7770 H         1 371         0.0551
     43 H15        25.3191   27.3309   24.2698 H         1 371         0.0551
     44 H16        28.2939   26.8498   24.4217 H         1 371         0.0524
     45 H17        28.6577   25.0966   24.5646 H         1 371         0.0524
@<TRIPOS>BOND
     1    1    2 1  
     2    9    1 1  
     3    2    3 2  
     4    2   12 1  
     5    4    3 1  
     6    3   19 1  
     7   10    4 1  
     8    4   11 2  
     9    6    5 ar 
    10   10    5 ar 
    11    7    6 ar 
    12    6   18 1  
    13    8    7 ar 
    14    8    9 ar 
    15   24    8 1  
    16    9   10 ar 
    17   12   13 ar 
    18   12   17 ar 
    19   13   14 ar 
    20   14   15 ar 
    21   16   15 ar 
    22   15   21 1  
    23   17   16 ar 
    24   16   20 1  
    25   23   22 1  
    26   22   26 1  
    27   23   24 1  
    28   24   25 am 
    29   25   26 1  
    30   25   27 2  
    31   25   28 2  
    32    5   29 1  
    33    7   30 1  
    34   13   31 1  
    35   14   32 1  
    36   17   33 1  
    37   18   34 1  
    38   18   35 1  
    39   18   36 1  
    40   19   37 1  
    41   20   38 1  
    42   21   39 1  
    43   22   40 1  
    44   22   41 1  
    45   23   42 1  
    46   23   43 1  
    47   26   44 1  
    48   26   45 1  
@<TRIPOS>SUBSTRUCTURE
     1 371         1

