### 
### Created by X-TOOL on Mon Sep 10 21:12:55 2018
### 

@<TRIPOS>MOLECULE
2dw7_ligand
   14    13     1     0     0
SMALL
GAST_HUCK


@<TRIPOS>ATOM
      1 O1         10.2440   36.1510    9.1120 O.co2     1 SRT        -0.5662
      2 O11         9.5590   35.7970   11.1670 O.co2     1 SRT        -0.5662
      3 C1          9.5580   35.4350    9.9860 C.2       1 SRT         0.0677
      4 C2          8.8000   34.2380    9.4600 C.3       1 SRT         0.1445
      5 O2          9.4200   33.7600    8.2910 O.3       1 SRT        -0.3733
      6 C3          8.7190   33.0500   10.4370 C.3       1 SRT         0.1445
      7 O3          8.7410   33.4950   11.7720 O.3       1 SRT        -0.3733
      8 C4          7.4490   32.3030   10.2250 C.2       1 SRT         0.0677
      9 O4          7.4830   31.0720   10.2080 O.co2     1 SRT        -0.5662
     10 O41         6.2720   32.9380   10.0460 O.co2     1 SRT        -0.5662
     11 H1          7.7764   34.5642    9.2239 H         1 SRT         0.0809
     12 H2         10.3134   33.5053    8.4892 H         1 SRT         0.2126
     13 H3          9.5745   32.3815   10.2601 H         1 SRT         0.0809
     14 H4          9.5483   33.9692   11.9333 H         1 SRT         0.2126
@<TRIPOS>BOND
     1    1    3 ar 
     2    3    2 ar 
     3    3    4 1  
     4    4    5 1  
     5    4    6 1  
     6    6    7 1  
     7    6    8 1  
     8    8    9 ar 
     9    8   10 ar 
    10    4   11 1  
    11    5   12 1  
    12    6   13 1  
    13    7   14 1  
@<TRIPOS>SUBSTRUCTURE
     1 SRT         1

