### 
### Created by X-TOOL on Mon Sep 10 21:12:54 2018
### 

@<TRIPOS>MOLECULE
2dxs_ligand
   62    66     1     0     0
SMALL
GAST_HUCK


@<TRIPOS>ATOM
      1 C1        -18.2950   -5.9650    2.1880 C.3       1 JTP        -0.0346
      2 C2        -17.1200   -5.1140    1.6440 C.3       1 JTP         0.0918
      3 N3        -16.1110   -4.8420    2.7030 N.am      1 JTP        -0.2788
      4 C4        -15.2500   -5.7360    3.3080 C.2       1 JTP         0.1963
      5 C5        -14.3830   -5.1880    4.3870 C.ar      1 JTP         0.0338
      6 C6        -13.4140   -6.0480    4.9890 C.ar      1 JTP        -0.0607
      7 C7        -12.5740   -5.5720    6.0210 C.ar      1 JTP        -0.0699
      8 C8        -12.6680   -4.2500    6.4780 C.ar      1 JTP        -0.0143
      9 C9        -13.6410   -3.3680    5.8810 C.ar      1 JTP         0.0685
     10 N10       -13.5230   -2.1290    6.5120 N.pl3     1 JTP        -0.2640
     11 C11       -12.5230   -2.2060    7.4750 C.2       1 JTP         0.0646
     12 C12       -12.1770   -0.9930    8.3190 C.ar      1 JTP         0.0295
     13 C13       -12.0050    0.2560    7.6500 C.ar      1 JTP         0.1010
     14 C14       -11.6830    1.4300    8.3750 C.ar      1 JTP        -0.0338
     15 C15       -11.5300    1.3760    9.7800 C.ar      1 JTP        -0.0728
     16 C16       -11.7020    0.1400   10.4510 C.ar      1 JTP        -0.0748
     17 C17       -12.0230   -1.0320    9.7280 C.ar      1 JTP        -0.0631
     18 O18       -12.1550    0.3400    6.2580 O.3       1 JTP        -0.3137
     19 C19       -13.5150    0.3300    5.7880 C.3       1 JTP         0.0964
     20 C20       -14.3530   -0.9200    6.1910 C.3       1 JTP         0.0758
     21 C21       -11.9480   -3.4990    7.5060 C.2       1 JTP        -0.0294
     22 C22       -10.8130   -4.0070    8.4250 C.3       1 JTP        -0.0210
     23 C23        -9.5310   -4.4170    7.6450 C.3       1 JTP        -0.0449
     24 C24        -8.4400   -4.9250    8.6190 C.3       1 JTP        -0.0516
     25 C25        -8.9490   -6.0890    9.4890 C.3       1 JTP        -0.0528
     26 C26       -10.2090   -5.6800   10.2710 C.3       1 JTP        -0.0516
     27 C27       -11.3320   -5.1560    9.3450 C.3       1 JTP        -0.0449
     28 C28       -14.4780   -3.8350    4.8540 C.ar      1 JTP        -0.0241
     29 O29       -15.2060   -6.9230    2.9850 O.2       1 JTP        -0.3888
     30 C30       -16.4560   -5.7790    0.3780 C.2       1 JTP         0.0725
     31 O31       -16.6000   -7.1300    0.3430 O.co2     1 JTP        -0.5454
     32 O32       -15.8580   -5.1730   -0.4650 O.co2     1 JTP        -0.5454
     33 C33       -17.6670   -3.7310    1.2430 C.3       1 JTP        -0.0346
     34 H1        -19.0203   -6.1468    1.3812 H         1 JTP         0.0247
     35 H2        -18.7885   -5.4258    3.0100 H         1 JTP         0.0247
     36 H3        -17.9104   -6.9265    2.5589 H         1 JTP         0.0247
     37 H4        -16.0486   -3.8941    3.0154 H         1 JTP         0.1836
     38 H5        -13.3223   -7.0740    4.6514 H         1 JTP         0.0551
     39 H6        -11.8454   -6.2397    6.4663 H         1 JTP         0.0546
     40 H7        -11.5538    2.3707    7.8522 H         1 JTP         0.0533
     41 H8        -11.2834    2.2719   10.3383 H         1 JTP         0.0569
     42 H9        -11.5865    0.0925   11.5278 H         1 JTP         0.0520
     43 H10       -12.1527   -1.9697   10.2562 H         1 JTP         0.0568
     44 H11       -13.4947    0.3850    4.6896 H         1 JTP         0.0642
     45 H12       -14.0196    1.2207    6.1905 H         1 JTP         0.0642
     46 H13       -14.9514   -0.6648    7.0780 H         1 JTP         0.0616
     47 H14       -15.0236   -1.1716    5.3562 H         1 JTP         0.0616
     48 H15       -10.5298   -3.1692    9.0791 H         1 JTP         0.0399
     49 H16        -9.1474   -3.5446    7.0957 H         1 JTP         0.0284
     50 H17        -9.7813   -5.2174    6.9332 H         1 JTP         0.0284
     51 H18        -8.1346   -4.0968    9.2753 H         1 JTP         0.0267
     52 H19        -7.5734   -5.2690    8.0353 H         1 JTP         0.0267
     53 H20        -8.1615   -6.3778   10.2006 H         1 JTP         0.0265
     54 H21        -9.1894   -6.9447    8.8409 H         1 JTP         0.0265
     55 H22        -9.9404   -4.8870   10.9845 H         1 JTP         0.0267
     56 H23       -10.5840   -6.5561   10.8205 H         1 JTP         0.0267
     57 H24       -11.6944   -5.9830    8.7168 H         1 JTP         0.0284
     58 H25       -12.1586   -4.7755    9.9630 H         1 JTP         0.0284
     59 H26       -15.2045   -3.1648    4.4090 H         1 JTP         0.0596
     60 H27       -16.8461   -3.1109    0.8536 H         1 JTP         0.0247
     61 H28       -18.1097   -3.2424    2.1235 H         1 JTP         0.0247
     62 H29       -18.4357   -3.8520    0.4656 H         1 JTP         0.0247
@<TRIPOS>BOND
     1    1    2 1  
     2    2    3 1  
     3    2   30 1  
     4    2   33 1  
     5    3    4 am 
     6    4    5 1  
     7    4   29 2  
     8    5    6 ar 
     9    5   28 ar 
    10    6    7 ar 
    11    7    8 ar 
    12    8    9 ar 
    13    8   21 1  
    14    9   10 1  
    15    9   28 ar 
    16   10   11 1  
    17   10   20 1  
    18   11   12 1  
    19   11   21 2  
    20   12   13 ar 
    21   12   17 ar 
    22   13   14 ar 
    23   13   18 1  
    24   14   15 ar 
    25   15   16 ar 
    26   16   17 ar 
    27   18   19 1  
    28   19   20 1  
    29   21   22 1  
    30   22   23 1  
    31   22   27 1  
    32   23   24 1  
    33   24   25 1  
    34   25   26 1  
    35   26   27 1  
    36   30   31 ar 
    37   30   32 ar 
    38    1   34 1  
    39    1   35 1  
    40    1   36 1  
    41    3   37 1  
    42    6   38 1  
    43    7   39 1  
    44   14   40 1  
    45   15   41 1  
    46   16   42 1  
    47   17   43 1  
    48   19   44 1  
    49   19   45 1  
    50   20   46 1  
    51   20   47 1  
    52   22   48 1  
    53   23   49 1  
    54   23   50 1  
    55   24   51 1  
    56   24   52 1  
    57   25   53 1  
    58   25   54 1  
    59   26   55 1  
    60   26   56 1  
    61   27   57 1  
    62   27   58 1  
    63   28   59 1  
    64   33   60 1  
    65   33   61 1  
    66   33   62 1  
@<TRIPOS>SUBSTRUCTURE
     1 JTP         1

