### 
### Created by X-TOOL on Mon Sep 10 21:12:54 2018
### 

@<TRIPOS>MOLECULE
2e1w_ligand
   45    47     1     0     0
SMALL
GAST_HUCK


@<TRIPOS>ATOM
      1 C1         51.5270   54.5190   20.9790 C.2       1 FR6         0.0642
      2 N2         51.4640   55.5440   22.0340 N.pl3     1 FR6        -0.2365
      3 C3         51.3380   54.9180   23.2050 C.2       1 FR6         0.1035
      4 N4         51.4810   53.5840   23.0650 N.2       1 FR6        -0.3095
      5 C5         51.5360   53.3320   21.6090 C.2       1 FR6         0.0902
      6 C8         51.5700   51.9650   21.0070 C.2       1 FR6         0.1892
      7 O9         52.0650   51.6940   19.9230 O.2       1 FR6        -0.3981
      8 N10        51.1200   50.9800   21.7510 N.am      1 FR6        -0.3040
      9 C13        51.5520   56.9910   21.8560 C.3       1 FR6         0.0995
     10 C14        53.0510   57.5330   21.8270 C.3       1 FR6         0.0840
     11 O15        53.9690   57.2110   22.9310 O.3       1 FR6        -0.3889
     12 C18        50.6710   57.4600   20.6780 C.3       1 FR6        -0.0083
     13 C19        49.1300   57.3580   20.8840 C.3       1 FR6        -0.0139
     14 C22        48.4170   57.8360   19.6260 C.ar      1 FR6        -0.0323
     15 C25        48.0220   59.1820   19.5170 C.ar      1 FR6        -0.0607
     16 C26        47.5180   59.7000   18.3220 C.ar      1 FR6        -0.0707
     17 C27        47.5040   58.9030   17.1760 C.ar      1 FR6        -0.0631
     18 C28        47.9030   57.5590   17.2590 C.ar      1 FR6        -0.0243
     19 C29        48.3880   57.0270   18.4650 C.ar      1 FR6        -0.0122
     20 C2         47.7620   56.7650   16.1080 C.ar      1 FR6        -0.0569
     21 C4         48.6780   55.6420   18.5240 C.ar      1 FR6        -0.0548
     22 C6         48.0980   55.4130   16.1710 C.ar      1 FR6        -0.0629
     23 C7         48.5200   54.8420   17.3770 C.ar      1 FR6        -0.0625
     24 C9         53.8140   57.3180   20.4920 C.3       1 FR6        -0.0359
     25 H1         51.5597   54.6887   19.9038 H         1 FR6         0.0990
     26 H2         51.1446   55.4193   24.1522 H         1 FR6         0.1238
     27 H3         51.1203   50.0450   21.3963 H         1 FR6         0.1799
     28 H4         50.7772   51.1653   22.6720 H         1 FR6         0.1799
     29 H5         51.1025   57.4339   22.7570 H         1 FR6         0.0694
     30 H6         52.9143   58.6218   21.9028 H         1 FR6         0.0623
     31 H7         53.6159   57.5515   23.7445 H         1 FR6         0.2099
     32 H8         50.9327   56.8504   19.8005 H         1 FR6         0.0321
     33 H9         50.9131   58.5141   20.4776 H         1 FR6         0.0321
     34 H10        48.8315   57.9866   21.7359 H         1 FR6         0.0440
     35 H11        48.8555   56.3122   21.0861 H         1 FR6         0.0440
     36 H12        48.1109   59.8317   20.3802 H         1 FR6         0.0530
     37 H13        47.1398   60.7152   18.2846 H         1 FR6         0.0595
     38 H14        47.1867   59.3194   16.2268 H         1 FR6         0.0542
     39 H15        47.3969   57.1977   15.1836 H         1 FR6         0.0609
     40 H16        49.0213   55.1986   19.4517 H         1 FR6         0.0628
     41 H17        48.0318   54.8000   15.2794 H         1 FR6         0.0616
     42 H18        48.7260   53.7790   17.4279 H         1 FR6         0.0601
     43 H19        54.8315   57.7264   20.5813 H         1 FR6         0.0255
     44 H20        53.2822   57.8333   19.6786 H         1 FR6         0.0255
     45 H21        53.8690   56.2420   20.2703 H         1 FR6         0.0255
@<TRIPOS>BOND
     1    2    1 1  
     2    1    5 2  
     3    2    3 1  
     4    2    9 1  
     5    3    4 2  
     6    4    5 1  
     7    5    6 1  
     8    6    7 2  
     9    6    8 am 
    10    9   10 1  
    11    9   12 1  
    12   10   11 1  
    13   10   24 1  
    14   12   13 1  
    15   13   14 1  
    16   14   15 ar 
    17   14   19 ar 
    18   15   16 ar 
    19   16   17 ar 
    20   17   18 ar 
    21   19   18 ar 
    22   18   20 ar 
    23   19   21 ar 
    24   20   22 ar 
    25   21   23 ar 
    26   22   23 ar 
    27    1   25 1  
    28    3   26 1  
    29    8   27 1  
    30    8   28 1  
    31    9   29 1  
    32   10   30 1  
    33   11   31 1  
    34   12   32 1  
    35   12   33 1  
    36   13   34 1  
    37   13   35 1  
    38   15   36 1  
    39   16   37 1  
    40   17   38 1  
    41   20   39 1  
    42   21   40 1  
    43   22   41 1  
    44   23   42 1  
    45   24   43 1  
    46   24   44 1  
    47   24   45 1  
@<TRIPOS>SUBSTRUCTURE
     1 FR6         1

