### 
### Created by X-TOOL on Mon Sep 10 21:12:55 2018
### 

@<TRIPOS>MOLECULE
2e27_ligand
   45    47     1     0     0
SMALL
GAST_HUCK


@<TRIPOS>ATOM
      1 C22        -2.2050   -2.9410   18.9140 C.3       1 AB0         0.0392
      2 O21        -1.0870   -3.6720   19.4260 O.3       1 AB0        -0.3572
      3 C20        -1.3900   -4.1940   20.7280 C.3       1 AB0         0.1482
      4 O17        -1.5150   -3.1340   21.6890 O.3       1 AB0        -0.3481
      5 C14        -0.2330   -2.6080   22.0680 C.3       1 AB0         0.0914
      6 C15         0.1340   -1.3940   21.2070 C.3       1 AB0         0.0052
      7 C10         1.4110   -0.7280   21.7300 C.3       1 AB0         0.0929
      8 O11         1.6520    0.4950   21.0170 O.3       1 AB0        -0.3565
      9 C05         2.8510    1.1860   21.4090 C.3       1 AB0         0.1142
     10 C06         2.8700    2.3690   20.4330 C.2       1 AB0        -0.0650
     11 C07         3.7270    3.4360   20.6800 C.2       1 AB0        -0.0965
     12 C01         4.5240    3.7730   21.7690 C.2       1 AB0        -0.0659
     13 C02         4.7330    3.1130   22.9740 C.2       1 AB0         0.0548
     14 O03         4.1480    1.8520   23.3380 O.3       1 AB0        -0.3098
     15 C04         2.8170    1.5470   22.8920 C.3       1 AB0         0.1464
     16 C08         2.4630    0.2960   23.7020 C.3       1 AB0         0.1194
     17 O16         2.2950    0.6460   25.0780 O.3       1 AB0        -0.3858
     18 C09         1.1870   -0.3740   23.1920 C.3       1 AB0         0.1146
     19 O12         0.9310   -1.5780   23.9310 O.3       1 AB0        -0.3638
     20 C13        -0.3150   -2.1620   23.5210 C.3       1 AB0         0.0968
     21 C18        -0.6360   -3.3540   24.4250 C.3       1 AB0         0.0290
     22 C19        -0.7520   -2.9070   25.8830 C.2       1 AB0         0.0373
     23 O23        -1.4540   -1.9430   26.1840 O.co2     1 AB0        -0.5689
     24 O24        -0.1350   -3.5040   26.7660 O.co2     1 AB0        -0.5689
     25 H1         -1.9597   -2.5468   17.9168 H         1 AB0         0.0524
     26 H2         -2.4383   -2.1061   19.5911 H         1 AB0         0.0524
     27 H3         -3.0766   -3.6080   18.8404 H         1 AB0         0.0524
     28 H4         -0.5817   -4.8709   21.0417 H         1 AB0         0.0871
     29 H5         -2.3373   -4.7511   20.6811 H         1 AB0         0.0871
     30 H6          0.5352   -3.3870   21.9538 H         1 AB0         0.0625
     31 H7         -0.6910   -0.6670   21.2367 H         1 AB0         0.0317
     32 H8          0.2963   -1.7222   20.1698 H         1 AB0         0.0317
     33 H9          2.2681   -1.4088   21.6212 H         1 AB0         0.0626
     34 H10         3.7344    0.5535   21.2373 H         1 AB0         0.0781
     35 H11         2.2212    2.3733   19.5584 H         1 AB0         0.0541
     36 H12         3.7857    4.1485   19.8585 H         1 AB0         0.0383
     37 H13         5.0740    4.7065   21.6595 H         1 AB0         0.0322
     38 H14         5.3917    3.5887   23.6991 H         1 AB0         0.1046
     39 H15         2.1173    2.3750   23.0787 H         1 AB0         0.0740
     40 H16         3.2925   -0.4211   23.6143 H         1 AB0         0.0654
     41 H17         1.5948    1.2830   25.1584 H         1 AB0         0.2100
     42 H18         0.3336    0.3128   23.2924 H         1 AB0         0.0649
     43 H19        -1.1134   -1.4117   23.6187 H         1 AB0         0.0640
     44 H20         0.1675   -4.1003   24.3384 H         1 AB0         0.0457
     45 H21        -1.5889   -3.8025   24.1074 H         1 AB0         0.0457
@<TRIPOS>BOND
     1    1    2 1  
     2    2    3 1  
     3    3    4 1  
     4    4    5 1  
     5    5    6 1  
     6    5   20 1  
     7    6    7 1  
     8    7    8 1  
     9    7   18 1  
    10    8    9 1  
    11    9   10 1  
    12    9   15 1  
    13   10   11 2  
    14   11   12 1  
    15   12   13 2  
    16   13   14 1  
    17   14   15 1  
    18   15   16 1  
    19   16   17 1  
    20   16   18 1  
    21   18   19 1  
    22   19   20 1  
    23   20   21 1  
    24   21   22 1  
    25   22   23 ar 
    26   22   24 ar 
    27    1   25 1  
    28    1   26 1  
    29    1   27 1  
    30    3   28 1  
    31    3   29 1  
    32    5   30 1  
    33    6   31 1  
    34    6   32 1  
    35    7   33 1  
    36    9   34 1  
    37   10   35 1  
    38   11   36 1  
    39   12   37 1  
    40   13   38 1  
    41   15   39 1  
    42   16   40 1  
    43   17   41 1  
    44   18   42 1  
    45   20   43 1  
    46   21   44 1  
    47   21   45 1  
@<TRIPOS>SUBSTRUCTURE
     1 AB0         1

