### 
### Created by X-TOOL on Mon Sep 10 21:12:56 2018
### 

@<TRIPOS>MOLECULE
2e2b_ligand
   75    79     1     0     0
SMALL
GAST_HUCK


@<TRIPOS>ATOM
      1 C1         15.6550   50.5460   16.6180 C.ar      1 406         0.0778
      2 C2         16.7720   49.6800   16.8410 C.ar      1 406        -0.0206
      3 C3         16.6580   48.5680   17.7030 C.ar      1 406        -0.0192
      4 C4         15.4080   48.2740   18.3950 C.ar      1 406         0.0395
      5 C5         14.2470   49.1670   18.1710 C.ar      1 406         0.0603
      6 C6         14.4220   50.2630   17.2900 C.ar      1 406        -0.0166
      7 C7         12.8320   49.0030   18.8360 C.3       1 406         0.3722
      8 F8         12.9460   49.1650   20.1830 F         1 406        -0.2259
      9 F9         12.3190   47.7720   18.5830 F         1 406        -0.2259
     10 F10        11.9420   49.9650   18.4300 F         1 406        -0.2259
     11 C11        15.4200   47.0200   19.3230 C.3       1 406         0.0188
     12 N12        16.6820   46.6270   20.0070 N.4       1 406         0.2572
     13 C13        16.6770   45.3040   20.6620 C.3       1 406        -0.0241
     14 C14        17.1820   45.5670   22.0850 C.3       1 406         0.0355
     15 C15        18.0920   46.7950   21.8390 C.3       1 406         0.0244
     16 C16        17.1450   47.6240   21.0090 C.3       1 406         0.0145
     17 N17        18.6280   47.5080   23.0830 N.4       1 406         0.2370
     18 C18        19.5410   46.7250   23.9420 C.3       1 406        -0.0429
     19 C19        19.2540   48.8230   22.6890 C.3       1 406        -0.0429
     20 N20        11.5450   62.0160   12.1620 N.ar      1 406        -0.2580
     21 C21        10.6260   61.3800   11.4130 C.ar      1 406         0.0931
     22 N22        10.6700   60.1010   11.0160 N.ar      1 406        -0.2580
     23 C23        11.7450   59.3640   11.4040 C.ar      1 406         0.0428
     24 C24        12.8520   59.9020   12.2290 C.ar      1 406         0.0565
     25 C25        12.6290   61.3150   12.5630 C.ar      1 406         0.0428
     26 C26        13.9470   59.1190   12.6150 C.ar      1 406         0.0676
     27 N27        13.9940   57.8030   12.2150 N.ar      1 406        -0.2443
     28 C28        15.0140   57.0320   12.5580 C.ar      1 406         0.2100
     29 N29        16.0610   57.4220   13.2720 N.ar      1 406        -0.2510
     30 C30        16.1060   58.7230   13.7210 C.ar      1 406         0.0152
     31 C31        15.0700   59.6490   13.4250 C.ar      1 406        -0.0142
     32 N32        14.9480   55.7250   12.0930 N.pl3     1 406        -0.2474
     33 C33        15.7000   53.8490   13.3820 C.ar      1 406        -0.0244
     34 C34        16.6380   52.7710   13.6250 C.ar      1 406         0.0495
     35 C35        17.7250   52.5870   12.7390 C.ar      1 406        -0.0588
     36 C36        17.8950   53.4590   11.6120 C.ar      1 406        -0.0821
     37 C37        16.9640   54.5200   11.3800 C.ar      1 406        -0.0358
     38 C38        15.8750   54.6970   12.2750 C.ar      1 406         0.0547
     39 C39        17.2370   55.3920   10.1560 C.3       1 406        -0.0401
     40 N40        16.5330   51.8610   14.7350 N.am      1 406        -0.2396
     41 C41        15.6600   51.7530   15.7370 C.2       1 406         0.2333
     42 O42        14.8550   52.6550   15.9710 O.2       1 406        -0.3756
     43 H1         17.7142   49.8797   16.3435 H         1 406         0.0879
     44 H2         17.5146   47.9210   17.8534 H         1 406         0.0648
     45 H3         13.5789   50.9216   17.1155 H         1 406         0.0882
     46 H4         15.1096   46.1631   18.7071 H         1 406         0.1070
     47 H5         14.6714   47.1966   20.1094 H         1 406         0.1070
     48 H6         17.3811   46.5874   19.2819 H         1 406         0.2058
     49 H7         17.3476   44.6089   20.1356 H         1 406         0.0817
     50 H8         15.6596   44.8865   20.6834 H         1 406         0.0817
     51 H9         17.7514   44.7120   22.4784 H         1 406         0.0374
     52 H10        16.3561   45.8047   22.7716 H         1 406         0.0374
     53 H11        18.9652   46.4982   21.2395 H         1 406         0.0906
     54 H12        16.3086   48.0051   21.6134 H         1 406         0.0871
     55 H13        17.6637   48.4665   20.5282 H         1 406         0.0871
     56 H14        17.8242   47.7193   23.6534 H         1 406         0.2033
     57 H15        19.8567   47.3399   24.7977 H         1 406         0.0778
     58 H16        20.4249   46.4251   23.3601 H         1 406         0.0778
     59 H17        19.0208   45.8274   24.3076 H         1 406         0.0778
     60 H18        18.5557   49.3851   22.0515 H         1 406         0.0778
     61 H19        20.1854   48.6344   22.1350 H         1 406         0.0778
     62 H20        19.4773   49.4083   23.5932 H         1 406         0.0778
     63 H21         9.7650   61.9594   11.0998 H         1 406         0.1150
     64 H22        11.7947   58.3268   11.0929 H         1 406         0.0976
     65 H23        13.3744   61.8233   13.1639 H         1 406         0.0976
     66 H24        16.9525   59.0485   14.3148 H         1 406         0.0895
     67 H25        15.0987   60.6765   13.7691 H         1 406         0.0681
     68 H26        14.1099   55.4838   11.5450 H         1 406         0.2158
     69 H27        14.8633   54.0012   14.0543 H         1 406         0.0399
     70 H28        18.4325   51.7841   12.9119 H         1 406         0.0394
     71 H29        18.7297   53.3135   10.9359 H         1 406         0.0490
     72 H30        18.1418   55.0325    9.6441 H         1 406         0.0342
     73 H31        17.3855   56.4344   10.4742 H         1 406         0.0342
     74 H32        16.3804   55.3370    9.4682 H         1 406         0.0342
     75 H33        17.2586   51.1734   14.7597 H         1 406         0.2227
@<TRIPOS>BOND
     1    1    2 ar 
     2    1    6 ar 
     3   41    1 1  
     4    2    3 ar 
     5    3    4 ar 
     6    5    4 ar 
     7    4   11 1  
     8    6    5 ar 
     9    5    7 1  
    10    7    8 1  
    11    7    9 1  
    12    7   10 1  
    13   11   12 1  
    14   12   13 1  
    15   12   16 1  
    16   13   14 1  
    17   15   14 1  
    18   16   15 1  
    19   15   17 1  
    20   17   18 1  
    21   17   19 1  
    22   20   21 ar 
    23   25   20 ar 
    24   22   21 ar 
    25   23   22 ar 
    26   24   23 ar 
    27   24   25 ar 
    28   26   24 1  
    29   27   26 ar 
    30   26   31 ar 
    31   28   27 ar 
    32   28   29 ar 
    33   32   28 1  
    34   29   30 ar 
    35   30   31 ar 
    36   38   32 1  
    37   34   33 ar 
    38   33   38 ar 
    39   34   35 ar 
    40   40   34 1  
    41   35   36 ar 
    42   36   37 ar 
    43   38   37 ar 
    44   37   39 1  
    45   40   41 am 
    46   41   42 2  
    47    2   43 1  
    48    3   44 1  
    49    6   45 1  
    50   11   46 1  
    51   11   47 1  
    52   12   48 1  
    53   13   49 1  
    54   13   50 1  
    55   14   51 1  
    56   14   52 1  
    57   15   53 1  
    58   16   54 1  
    59   16   55 1  
    60   17   56 1  
    61   18   57 1  
    62   18   58 1  
    63   18   59 1  
    64   19   60 1  
    65   19   61 1  
    66   19   62 1  
    67   21   63 1  
    68   23   64 1  
    69   25   65 1  
    70   30   66 1  
    71   31   67 1  
    72   32   68 1  
    73   33   69 1  
    74   35   70 1  
    75   36   71 1  
    76   39   72 1  
    77   39   73 1  
    78   39   74 1  
    79   40   75 1  
@<TRIPOS>SUBSTRUCTURE
     1 406         1

