### 
### Created by X-TOOL on Mon Sep 10 21:12:55 2018
### 

@<TRIPOS>MOLECULE
2e2r_ligand
   33    34     1     0     0
SMALL
GAST_HUCK


@<TRIPOS>ATOM
      1 O2        -15.4450   -8.5040  -26.0930 O.3       1 2OH        -0.3144
      2 C13       -15.7110   -7.2250  -26.3890 C.ar      1 2OH         0.1160
      3 C12       -14.9260   -6.5570  -27.3240 C.ar      1 2OH        -0.0082
      4 C11       -15.1840   -5.2140  -27.6120 C.ar      1 2OH        -0.0588
      5 C14       -16.7690   -6.5360  -25.7910 C.ar      1 2OH        -0.0082
      6 C15       -17.0320   -5.1930  -26.0930 C.ar      1 2OH        -0.0588
      7 C4        -16.2410   -4.5020  -27.0230 C.ar      1 2OH        -0.0886
      8 C2        -16.4780   -3.0370  -27.3560 C.3       1 2OH        -0.0588
      9 C3        -17.8150   -2.5040  -26.8370 C.3       1 2OH        -0.1042
     10 C5        -15.4060   -2.2610  -26.5980 C.3       1 2OH        -0.1042
     11 C1        -16.4130   -2.8260  -28.8560 C.ar      1 2OH        -0.0886
     12 C10       -17.4580   -3.3050  -29.6390 C.ar      1 2OH        -0.0588
     13 C9        -17.4560   -3.1530  -31.0140 C.ar      1 2OH        -0.0082
     14 C6        -15.3450   -2.1930  -29.4950 C.ar      1 2OH        -0.0588
     15 C7        -15.3570   -2.0410  -30.8900 C.ar      1 2OH        -0.0082
     16 C8        -16.4030   -2.5220  -31.6510 C.ar      1 2OH         0.1160
     17 O1        -16.4200   -2.3820  -32.9910 O.3       1 2OH        -0.3144
     18 H1        -16.0653   -8.8131  -25.4433 H         1 2OH         0.2593
     19 H2        -14.1180   -7.0761  -27.8267 H         1 2OH         0.0623
     20 H3        -14.5419   -4.7012  -28.3189 H         1 2OH         0.0758
     21 H4        -17.4009   -7.0519  -25.0771 H         1 2OH         0.0623
     22 H5        -17.8541   -4.6835  -25.6035 H         1 2OH         0.0758
     23 H6        -17.8714   -2.6528  -25.7486 H         1 2OH         0.0064
     24 H7        -18.6395   -3.0451  -27.3242 H         1 2OH         0.0064
     25 H8        -17.8953   -1.4309  -27.0649 H         1 2OH         0.0064
     26 H9        -14.4106   -2.5965  -26.9246 H         1 2OH         0.0064
     27 H10       -15.5175   -2.4407  -25.5185 H         1 2OH         0.0064
     28 H11       -15.5165   -1.1862  -26.8042 H         1 2OH         0.0064
     29 H12       -18.2914   -3.8079  -29.1619 H         1 2OH         0.0758
     30 H13       -18.2873   -3.5319  -31.5975 H         1 2OH         0.0623
     31 H14       -14.5087   -1.8199  -28.9149 H         1 2OH         0.0758
     32 H15       -14.5306   -1.5372  -31.3782 H         1 2OH         0.0623
     33 H16       -17.2131   -2.7722  -33.3390 H         1 2OH         0.2593
@<TRIPOS>BOND
     1    1    2 1  
     2    2    3 ar 
     3    2    5 ar 
     4    3    4 ar 
     5    4    7 ar 
     6    5    6 ar 
     7    6    7 ar 
     8    7    8 1  
     9    8    9 1  
    10    8   10 1  
    11    8   11 1  
    12   11   12 ar 
    13   11   14 ar 
    14   12   13 ar 
    15   13   16 ar 
    16   14   15 ar 
    17   15   16 ar 
    18   16   17 1  
    19    1   18 1  
    20    3   19 1  
    21    4   20 1  
    22    5   21 1  
    23    6   22 1  
    24    9   23 1  
    25    9   24 1  
    26    9   25 1  
    27   10   26 1  
    28   10   27 1  
    29   10   28 1  
    30   12   29 1  
    31   13   30 1  
    32   14   31 1  
    33   15   32 1  
    34   17   33 1  
@<TRIPOS>SUBSTRUCTURE
     1 2OH         1

