### 
### Created by X-TOOL on Mon Sep 10 21:12:59 2018
### 

@<TRIPOS>MOLECULE
2e9n_ligand
   62    67     1     0     0
SMALL
GAST_HUCK


@<TRIPOS>ATOM
      1 O1        -13.4960    9.4900  -13.8670 O.3       1 76A        -0.3319
      2 C2         -9.6580    9.3950  -16.0270 C.ar      1 76A        -0.0286
      3 C3        -10.3360    8.1260  -15.6120 C.ar      1 76A        -0.0618
      4 C4        -11.6250    8.1580  -14.8870 C.ar      1 76A        -0.0315
      5 C5        -12.2860    9.4560  -14.5480 C.ar      1 76A         0.0894
      6 C6        -11.6410   10.7100  -14.9420 C.ar      1 76A        -0.0315
      7 C7        -10.3660   10.6880  -15.6600 C.ar      1 76A        -0.0618
      8 C8         -5.7140    9.6140  -18.3310 C.ar      1 76A        -0.0149
      9 C9         -6.1180    8.3060  -17.6850 C.ar      1 76A        -0.0565
     10 C10        -7.3940    8.2220  -16.9350 C.ar      1 76A        -0.0574
     11 C11        -8.2980    9.4160  -16.8020 C.ar      1 76A        -0.0258
     12 C12        -7.8550   10.6720  -17.4560 C.ar      1 76A        -0.0574
     13 C13        -6.6180   10.7760  -18.1890 C.ar      1 76A        -0.0565
     14 C14        -4.4200    9.8530  -19.1240 C.2       1 76A         0.0494
     15 N15        -4.2420   10.5910  -20.2580 N.2       1 76A        -0.2125
     16 N16        -2.9630   10.6280  -20.7230 N.pl3     1 76A        -0.2221
     17 C17        -2.2310    9.8610  -19.8500 C.2       1 76A         0.0873
     18 C18        -3.1120    9.3620  -18.8240 C.2       1 76A         0.0014
     19 C19        -0.9270    9.4350  -19.6310 C.ar      1 76A         0.0074
     20 C20        -0.9940    8.6030  -18.3890 C.ar      1 76A        -0.0226
     21 C21        -2.3500    8.5850  -17.9410 C.3       1 76A         0.0070
     22 C22         0.3570    9.6330  -20.3260 C.ar      1 76A        -0.0574
     23 C23         1.6120    8.9950  -19.7760 C.ar      1 76A        -0.0515
     24 C24         1.5530    8.1490  -18.5110 C.ar      1 76A         0.0405
     25 C25         0.2170    7.9750  -17.8480 C.ar      1 76A        -0.0410
     26 C26         2.7020    7.5290  -17.9170 C.2       1 76A         0.2011
     27 N27         3.5980    6.8640  -18.7560 N.am      1 76A        -0.2837
     28 O28         2.9080    7.5990  -16.6860 O.2       1 76A        -0.3864
     29 C29         4.8400    6.2040  -18.2460 C.3       1 76A         0.0416
     30 C30         4.9170    4.6690  -18.5860 C.3       1 76A        -0.0276
     31 C31         6.2470    3.9840  -18.0630 C.3       1 76A        -0.0248
     32 C32         7.6020    4.7180  -18.4660 C.3       1 76A         0.0554
     33 C33         7.4890    6.3300  -18.2950 C.3       1 76A        -0.0248
     34 C34         6.1300    6.9430  -18.8160 C.3       1 76A        -0.0276
     35 O35         8.6830    4.2490  -17.5860 O.3       1 76A        -0.3918
     36 H1        -14.1564    9.0325  -14.3740 H         1 76A         0.2490
     37 H2         -9.8767    7.1723  -15.8457 H         1 76A         0.0599
     38 H3        -12.0976    7.2265  -14.5970 H         1 76A         0.0548
     39 H4        -12.1093   11.6575  -14.7011 H         1 76A         0.0548
     40 H5         -9.9094   11.6302  -15.9407 H         1 76A         0.0599
     41 H6         -5.4777    7.4355  -17.7703 H         1 76A         0.0608
     42 H7         -7.6802    7.2834  -16.4745 H         1 76A         0.0606
     43 H8         -8.4883   11.5485  -17.3794 H         1 76A         0.0606
     44 H9         -6.3458   11.7216  -18.6437 H         1 76A         0.0608
     45 H10        -2.6169   11.1267  -21.5551 H         1 76A         0.2496
     46 H11        -2.7264    7.5514  -17.9342 H         1 76A         0.0583
     47 H12        -2.4127    9.0047  -16.9262 H         1 76A         0.0583
     48 H13         0.4014   10.2334  -21.2275 H         1 76A         0.0594
     49 H14         2.5584    9.1403  -20.2843 H         1 76A         0.0602
     50 H15         0.1455    7.3722  -16.9499 H         1 76A         0.0612
     51 H16         3.4020    6.8274  -19.7359 H         1 76A         0.1846
     52 H17         4.8417    6.3032  -17.1505 H         1 76A         0.0555
     53 H18         4.8674    4.5491  -19.6783 H         1 76A         0.0288
     54 H19         4.0570    4.1638  -18.1222 H         1 76A         0.0288
     55 H20         6.2827    2.9614  -18.4668 H         1 76A         0.0291
     56 H21         6.1977    3.9431  -16.9649 H         1 76A         0.0291
     57 H22         7.8420    4.4792  -19.5126 H         1 76A         0.0593
     58 H23         8.3140    6.7949  -18.8547 H         1 76A         0.0291
     59 H24         7.5890    6.5713  -17.2265 H         1 76A         0.0291
     60 H25         6.0870    8.0002  -18.5152 H         1 76A         0.0288
     61 H26         6.1148    6.8731  -19.9137 H         1 76A         0.0288
     62 H27         8.4766    4.4724  -16.6860 H         1 76A         0.2098
@<TRIPOS>BOND
     1    5    1 1  
     2    2    3 ar 
     3    2    7 ar 
     4   11    2 1  
     5    3    4 ar 
     6    4    5 ar 
     7    6    5 ar 
     8    7    6 ar 
     9    9    8 ar 
    10    8   13 ar 
    11    8   14 1  
    12   10    9 ar 
    13   10   11 ar 
    14   11   12 ar 
    15   12   13 ar 
    16   14   15 2  
    17   14   18 1  
    18   15   16 1  
    19   16   17 1  
    20   17   18 2  
    21   17   19 1  
    22   18   21 1  
    23   19   20 ar 
    24   19   22 ar 
    25   20   21 1  
    26   20   25 ar 
    27   22   23 ar 
    28   23   24 ar 
    29   24   25 ar 
    30   24   26 1  
    31   26   27 am 
    32   26   28 2  
    33   27   29 1  
    34   29   30 1  
    35   29   34 1  
    36   30   31 1  
    37   31   32 1  
    38   32   33 1  
    39   32   35 1  
    40   33   34 1  
    41    1   36 1  
    42    3   37 1  
    43    4   38 1  
    44    6   39 1  
    45    7   40 1  
    46    9   41 1  
    47   10   42 1  
    48   12   43 1  
    49   13   44 1  
    50   16   45 1  
    51   21   46 1  
    52   21   47 1  
    53   22   48 1  
    54   23   49 1  
    55   25   50 1  
    56   27   51 1  
    57   29   52 1  
    58   30   53 1  
    59   30   54 1  
    60   31   55 1  
    61   31   56 1  
    62   32   57 1  
    63   33   58 1  
    64   33   59 1  
    65   34   60 1  
    66   34   61 1  
    67   35   62 1  
@<TRIPOS>SUBSTRUCTURE
     1 76A         1

