### 
### Created by X-TOOL on Mon Sep 10 21:12:59 2018
### 

@<TRIPOS>MOLECULE
2e9o_ligand
   57    61     1     0     0
SMALL
GAST_HUCK


@<TRIPOS>ATOM
      1 C1          3.0080    2.9230  -22.7750 C.3       1 A58        -0.0624
      2 C2          3.1670    5.9420  -20.4040 C.3       1 A58        -0.0212
      3 C3          3.0850    4.4450  -19.9610 C.3       1 A58        -0.0095
      4 C4          4.1400    3.5350  -20.6800 C.3       1 A58        -0.0454
      5 C5          4.1630    3.6650  -22.2410 C.3       1 A58        -0.0435
      6 C6          4.1830    5.2180  -22.6670 C.3       1 A58        -0.0454
      7 C7          3.0790    6.0660  -21.9610 C.3       1 A58        -0.0095
      8 N8          2.0320    6.7120  -19.7640 N.4       1 A58         0.2412
      9 C9          2.2110    8.1770  -19.6710 C.3       1 A58        -0.0014
     10 C10         0.9070    8.9250  -19.8020 C.ar      1 A58        -0.0055
     11 C11        -0.2510    8.4520  -19.0310 C.ar      1 A58        -0.0530
     12 C12        -1.5190    9.1080  -19.1170 C.ar      1 A58        -0.0349
     13 C13        -1.6660   10.2810  -19.9980 C.ar      1 A58        -0.0184
     14 C14        -0.5430   10.7690  -20.7650 C.ar      1 A58        -0.0678
     15 C15         0.7520   10.0950  -20.6750 C.ar      1 A58        -0.0619
     16 C16        -2.7960    8.8560  -18.4800 C.3       1 A58         0.0045
     17 C17        -3.7050    9.8410  -18.9530 C.2       1 A58         0.0001
     18 C18        -2.9930   10.6720  -19.8550 C.2       1 A58         0.0396
     19 C19        -5.0410   10.3910  -18.9290 C.2       1 A58         0.0930
     20 N20        -5.0860   11.4740  -19.7740 N.pl3     1 A58        -0.2215
     21 N21        -3.8370   11.6120  -20.3130 N.2       1 A58        -0.2192
     22 C22        -6.2170    9.8790  -18.1000 C.ar      1 A58         0.0054
     23 C23        -7.4020   10.7280  -17.9740 C.ar      1 A58        -0.0519
     24 C24        -8.5540   10.3070  -17.1840 C.ar      1 A58        -0.0501
     25 C25        -8.5440    9.0030  -16.4920 C.ar      1 A58         0.0072
     26 C26        -7.3590    8.1460  -16.6170 C.ar      1 A58        -0.0501
     27 C27        -6.2230    8.5820  -17.4050 C.ar      1 A58        -0.0519
     28 C28        -9.6960    8.5740  -15.6940 C.2       1 A58         0.0609
     29 O29       -10.7960    9.3360  -15.7400 O.co2     1 A58        -0.5615
     30 O30        -9.6480    7.5760  -15.0240 O.co2     1 A58        -0.5615
     31 H1          3.0610    1.8751  -22.4448 H         1 A58         0.0232
     32 H2          3.0233    2.9622  -23.8742 H         1 A58         0.0232
     33 H3          2.0772    3.3775  -22.4048 H         1 A58         0.0232
     34 H4          4.1255    6.3634  -20.0669 H         1 A58         0.0851
     35 H5          2.0789    4.0654  -20.1926 H         1 A58         0.0320
     36 H6          3.2567    4.3906  -18.8759 H         1 A58         0.0320
     37 H7          3.9181    2.4878  -20.4269 H         1 A58         0.0270
     38 H8          5.1373    3.8007  -20.2996 H         1 A58         0.0270
     39 H9          5.0815    3.1976  -22.6256 H         1 A58         0.0298
     40 H10         4.0316    5.2837  -23.7545 H         1 A58         0.0270
     41 H11         5.1657    5.6387  -22.4075 H         1 A58         0.0270
     42 H12         3.2047    7.1218  -22.2429 H         1 A58         0.0320
     43 H13         2.0912    5.7131  -22.2922 H         1 A58         0.0320
     44 H14         1.9077    6.3570  -18.8288 H         1 A58         0.2030
     45 H15         1.1986    6.5372  -20.3033 H         1 A58         0.2030
     46 H16         2.8871    8.5021  -20.4754 H         1 A58         0.0978
     47 H17         2.6595    8.4170  -18.6957 H         1 A58         0.0978
     48 H18        -0.1421    7.5889  -18.3843 H         1 A58         0.0498
     49 H19        -0.6602   11.6345  -21.4071 H         1 A58         0.0580
     50 H20         1.5950   10.4585  -21.2514 H         1 A58         0.0507
     51 H21        -2.6934    8.9320  -17.3874 H         1 A58         0.0561
     52 H22        -3.1575    7.8516  -18.7454 H         1 A58         0.0561
     53 H23        -5.9050   12.0687  -19.9650 H         1 A58         0.2527
     54 H24        -7.4244   11.6879  -18.4771 H         1 A58         0.0608
     55 H25        -9.4202   10.9539  -17.1049 H         1 A58         0.0643
     56 H26        -7.3332    7.1838  -16.1184 H         1 A58         0.0643
     57 H27        -5.3560    7.9362  -17.4843 H         1 A58         0.0608
@<TRIPOS>BOND
     1    5    1 1  
     2    3    2 1  
     3    2    7 1  
     4    2    8 1  
     5    4    3 1  
     6    4    5 1  
     7    5    6 1  
     8    6    7 1  
     9    8    9 1  
    10    9   10 1  
    11   10   11 ar 
    12   10   15 ar 
    13   11   12 ar 
    14   12   13 ar 
    15   12   16 1  
    16   13   14 ar 
    17   13   18 1  
    18   14   15 ar 
    19   16   17 1  
    20   17   18 1  
    21   17   19 2  
    22   18   21 2  
    23   19   20 1  
    24   19   22 1  
    25   20   21 1  
    26   22   23 ar 
    27   22   27 ar 
    28   23   24 ar 
    29   24   25 ar 
    30   25   26 ar 
    31   25   28 1  
    32   26   27 ar 
    33   28   29 ar 
    34   28   30 ar 
    35    1   31 1  
    36    1   32 1  
    37    1   33 1  
    38    2   34 1  
    39    3   35 1  
    40    3   36 1  
    41    4   37 1  
    42    4   38 1  
    43    5   39 1  
    44    6   40 1  
    45    6   41 1  
    46    7   42 1  
    47    7   43 1  
    48    8   44 1  
    49    8   45 1  
    50    9   46 1  
    51    9   47 1  
    52   11   48 1  
    53   14   49 1  
    54   15   50 1  
    55   16   51 1  
    56   16   52 1  
    57   20   53 1  
    58   23   54 1  
    59   24   55 1  
    60   26   56 1  
    61   27   57 1  
@<TRIPOS>SUBSTRUCTURE
     1 A58         1

