### 
### Created by X-TOOL on Mon Sep 10 21:12:59 2018
### 

@<TRIPOS>MOLECULE
2e9u_ligand
   41    43     1     0     0
SMALL
GAST_HUCK


@<TRIPOS>ATOM
      1 C1         -0.7220    8.0620  -18.4090 C.ar      1 A25        -0.0454
      2 C2         -2.0890    8.4990  -18.2990 C.ar      1 A25         0.1128
      3 C3         -2.5220    9.6350  -19.0550 C.ar      1 A25         0.0981
      4 C4         -1.5840   10.3100  -19.9000 C.ar      1 A25        -0.0357
      5 C5         -0.2530    9.8530  -19.9820 C.ar      1 A25         0.0148
      6 C6          0.1910    8.7380  -19.2490 C.ar      1 A25        -0.0723
      7 CL7         0.8580   10.6870  -21.0100 Cl        1 A25        -0.0850
      8 O8         -3.0670    7.8880  -17.4890 O.3       1 A25        -0.3240
      9 C9         -2.6230    7.1160  -16.3810 C.3       1 A25         0.0674
     10 N10        -3.8570   10.0630  -18.9460 N.am      1 A25        -0.2157
     11 C11        -4.4910   11.0210  -19.7270 C.2       1 A25         0.3209
     12 N12        -5.7980   11.2770  -19.4340 N.am      1 A25        -0.1943
     13 O13        -3.9380   11.6280  -20.6380 O.2       1 A25        -0.3787
     14 C14        -6.6400   10.7530  -18.4770 C.ar      1 A25         0.1569
     15 N15        -6.3130    9.5120  -17.9960 N.ar      1 A25        -0.2376
     16 C16        -7.1220    8.9440  -17.0440 C.ar      1 A25         0.1751
     17 C17        -8.2790    9.6390  -16.5680 C.ar      1 A25         0.0522
     18 N18        -8.6090   10.8730  -17.0400 N.ar      1 A25        -0.2993
     19 C19        -7.7980   11.4260  -17.9880 C.ar      1 A25         0.0489
     20 O20        -6.7120    7.6720  -16.6140 O.3       1 A25        -0.2955
     21 C21        -6.7320    7.3930  -15.2070 C.3       1 A25         0.0756
     22 C22        -5.4230    7.8650  -14.5490 C.3       1 A25        -0.0242
     23 C23        -3.7500    6.2040  -15.9100 C.3       1 A25        -0.0254
     24 C24        -4.3770    6.7850  -14.6370 C.3       1 A25        -0.0482
     25 H1         -0.3883    7.2022  -17.8394 H         1 A25         0.0496
     26 H2         -1.8973   11.1726  -20.4768 H         1 A25         0.0471
     27 H3          1.2187    8.4021  -19.3273 H         1 A25         0.0466
     28 H4         -2.3285    7.7876  -15.5611 H         1 A25         0.0608
     29 H5         -1.7594    6.5051  -16.6828 H         1 A25         0.0608
     30 H6         -4.4079    9.6325  -18.2311 H         1 A25         0.2230
     31 H7         -6.2215   11.9692  -20.0184 H         1 A25         0.2344
     32 H8         -8.9058    9.1734  -15.8160 H         1 A25         0.0708
     33 H9         -8.0415   12.4064  -18.3811 H         1 A25         0.0714
     34 H10        -6.8448    6.3096  -15.0536 H         1 A25         0.0622
     35 H11        -7.5804    7.9191  -14.7449 H         1 A25         0.0622
     36 H12        -5.6127    8.1016  -13.4916 H         1 A25         0.0292
     37 H13        -5.0601    8.7651  -15.0668 H         1 A25         0.0292
     38 H14        -3.3472    5.2029  -15.6967 H         1 A25         0.0291
     39 H15        -4.5160    6.1312  -16.6961 H         1 A25         0.0291
     40 H16        -4.8192    5.9206  -14.1200 H         1 A25         0.0267
     41 H17        -3.5270    7.1666  -14.0523 H         1 A25         0.0267
@<TRIPOS>BOND
     1    1    2 ar 
     2    1    6 ar 
     3    2    3 ar 
     4    2    8 1  
     5    3    4 ar 
     6    3   10 1  
     7    4    5 ar 
     8    5    6 ar 
     9    5    7 1  
    10    8    9 1  
    11    9   23 1  
    12   10   11 am 
    13   11   12 am 
    14   11   13 2  
    15   12   14 1  
    16   14   15 ar 
    17   14   19 ar 
    18   15   16 ar 
    19   16   17 ar 
    20   16   20 1  
    21   17   18 ar 
    22   18   19 ar 
    23   20   21 1  
    24   21   22 1  
    25   22   24 1  
    26   23   24 1  
    27    1   25 1  
    28    4   26 1  
    29    6   27 1  
    30    9   28 1  
    31    9   29 1  
    32   10   30 1  
    33   12   31 1  
    34   17   32 1  
    35   19   33 1  
    36   21   34 1  
    37   21   35 1  
    38   22   36 1  
    39   22   37 1  
    40   23   38 1  
    41   23   39 1  
    42   24   40 1  
    43   24   41 1  
@<TRIPOS>SUBSTRUCTURE
     1 A25         1

