### 
### Created by X-TOOL on Mon Sep 10 21:12:59 2018
### 

@<TRIPOS>MOLECULE
2e9v_ligand
   56    59     1     0     0
SMALL
GAST_HUCK


@<TRIPOS>ATOM
      1 C1          3.6190   13.7660   -3.7700 C.ar      1 85A        -0.0269
      2 C2          2.4230   13.4460   -2.9350 C.ar      1 85A         0.1029
      3 C3          2.4330   13.8180   -1.5040 C.ar      1 85A         0.0854
      4 C4          3.6280   14.4960   -0.9690 C.ar      1 85A        -0.0463
      5 C5          4.7420   14.7810   -1.8030 C.ar      1 85A         0.0319
      6 C6          4.7690   14.4320   -3.2050 C.ar      1 85A         0.0302
      7 N7          5.8510   14.7210   -3.9870 N.pl3     1 85A        -0.3189
      8 CL8         6.0630   15.5660   -1.0870 Cl        1 85A        -0.0954
      9 C9         -4.7440   10.5340   -0.5340 C.1       1 85A         0.1057
     10 N10        -5.6800    9.9510   -0.8460 N.1       1 85A        -0.3391
     11 N11         1.2860   13.5200   -0.6860 N.am      1 85A        -0.2224
     12 C12         0.9260   14.0250    0.5960 C.2       1 85A         0.3213
     13 N13        -0.2790   13.6620    1.1160 N.am      1 85A        -0.1888
     14 O14         1.6310   14.7770    1.2690 O.2       1 85A        -0.3785
     15 C15        -1.3510   12.8810    0.7120 C.ar      1 85A         0.1683
     16 N16        -1.4380   12.4490   -0.6630 N.ar      1 85A        -0.2245
     17 C17        -2.5580   11.6660   -1.0910 C.ar      1 85A         0.2125
     18 C18        -3.5970   11.3160   -0.1010 C.ar      1 85A         0.2089
     19 N19        -3.4810   11.7440    1.2200 N.ar      1 85A        -0.2642
     20 C20        -2.3920   12.5050    1.6290 C.ar      1 85A         0.0621
     21 O21         1.2390   12.8080   -3.3940 O.3       1 85A        -0.3266
     22 C22         1.3660   11.5560   -4.0420 C.3       1 85A         0.0672
     23 C23        -1.5420   10.0890   -4.4050 C.3       1 85A        -0.0237
     24 C24        -1.7530   10.1650   -2.8680 C.3       1 85A         0.0786
     25 O25        -2.5350   11.3100   -2.4830 O.3       1 85A        -0.2862
     26 C26         0.5050   11.5270   -5.3190 C.3       1 85A        -0.0254
     27 C27        -0.7810   11.4470   -4.4630 C.3       1 85A        -0.0481
     28 C28         5.8610   15.6510   -5.0760 C.3       1 85A         0.0623
     29 C29         7.2570   16.1210   -5.3700 C.ar      1 85A        -0.0022
     30 C30         7.9810   15.6030   -6.4740 C.ar      1 85A        -0.0306
     31 C31         9.2950   16.0750   -6.7090 C.ar      1 85A         0.0031
     32 N32         9.8940   17.0130   -5.9090 N.ar      1 85A        -0.3066
     33 C33         9.1910   17.5080   -4.8480 C.ar      1 85A         0.0031
     34 C34         7.8750   17.0910   -4.5430 C.ar      1 85A        -0.0306
     35 H1          3.6240   13.4934   -4.8192 H         1 85A         0.0401
     36 H2          3.6569   14.7812    0.0764 H         1 85A         0.0442
     37 H3          6.7316   14.2300   -3.7762 H         1 85A         0.1745
     38 H4          0.6458   12.8588   -1.0771 H         1 85A         0.2189
     39 H5         -0.4292   14.0607    2.0207 H         1 85A         0.2392
     40 H6         -2.3264   12.8222    2.6635 H         1 85A         0.0765
     41 H7          1.0325   10.7591   -3.3610 H         1 85A         0.0609
     42 H8          2.4199   11.3914   -4.3108 H         1 85A         0.0609
     43 H9         -2.4832   10.0929   -4.9743 H         1 85A         0.0292
     44 H10        -0.9275    9.2321   -4.7182 H         1 85A         0.0292
     45 H11        -0.7701   10.2263   -2.3780 H         1 85A         0.0629
     46 H12        -2.2720    9.2537   -2.5361 H         1 85A         0.0629
     47 H13         0.6756   10.6450   -5.9538 H         1 85A         0.0291
     48 H14         0.5798   12.4386   -5.9300 H         1 85A         0.0291
     49 H15        -0.5033   11.7099   -3.4316 H         1 85A         0.0267
     50 H16        -1.4822   12.1976   -4.8566 H         1 85A         0.0267
     51 H17         5.2372   16.5183   -4.8141 H         1 85A         0.0697
     52 H18         5.4505   15.1610   -5.9712 H         1 85A         0.0697
     53 H19         7.5366   14.8595   -7.1258 H         1 85A         0.0652
     54 H20         9.8481   15.6797   -7.5533 H         1 85A         0.0803
     55 H21         9.6611   18.2509   -4.2139 H         1 85A         0.0803
     56 H22         7.3482   17.5062   -3.6914 H         1 85A         0.0652
@<TRIPOS>BOND
     1    2    1 ar 
     2    1    6 ar 
     3    3    2 ar 
     4    2   21 1  
     5    3    4 ar 
     6   11    3 1  
     7    4    5 ar 
     8    5    6 ar 
     9    5    8 1  
    10    6    7 1  
    11    7   28 1  
    12    9   10 3  
    13   18    9 1  
    14   12   11 am 
    15   13   12 am 
    16   12   14 2  
    17   15   13 1  
    18   16   15 ar 
    19   15   20 ar 
    20   17   16 ar 
    21   17   18 ar 
    22   25   17 1  
    23   18   19 ar 
    24   19   20 ar 
    25   21   22 1  
    26   22   26 1  
    27   24   23 1  
    28   23   27 1  
    29   24   25 1  
    30   26   27 1  
    31   28   29 1  
    32   29   30 ar 
    33   29   34 ar 
    34   30   31 ar 
    35   31   32 ar 
    36   32   33 ar 
    37   33   34 ar 
    38    1   35 1  
    39    4   36 1  
    40    7   37 1  
    41   11   38 1  
    42   13   39 1  
    43   20   40 1  
    44   22   41 1  
    45   22   42 1  
    46   23   43 1  
    47   23   44 1  
    48   24   45 1  
    49   24   46 1  
    50   26   47 1  
    51   26   48 1  
    52   27   49 1  
    53   27   50 1  
    54   28   51 1  
    55   28   52 1  
    56   30   53 1  
    57   31   54 1  
    58   33   55 1  
    59   34   56 1  
@<TRIPOS>SUBSTRUCTURE
     1 85A         1

