### 
### Created by X-TOOL on Mon Sep 10 21:12:58 2018
### 

@<TRIPOS>MOLECULE
2ea2_ligand
   38    39     1     0     0
SMALL
GAST_HUCK


@<TRIPOS>ATOM
      1 C1         19.9380   34.1400   16.4480 C.3       1 F77        -0.0586
      2 C2         19.0920   33.5110   15.3240 C.3       1 F77        -0.0316
      3 C3         18.1750   32.4030   15.8190 C.ar      1 F77        -0.0542
      4 C4         16.7760   32.6880   16.0440 C.ar      1 F77        -0.0791
      5 C5         15.8790   31.6690   16.5100 C.ar      1 F77        -0.0543
      6 C6         16.3490   30.3280   16.7710 C.ar      1 F77         0.0647
      7 C7         17.7540   30.0170   16.5550 C.ar      1 F77         0.0212
      8 C8         18.6610   31.0510   16.0750 C.ar      1 F77        -0.0444
      9 C9         20.1560   30.7190   15.8360 C.3       1 F77        -0.0348
     10 C10        18.2950   28.6650   16.8110 C.2       1 F77         0.0473
     11 O11        17.8230   27.6520   16.0710 O.co2     1 F77        -0.5686
     12 O12        19.0990   28.4970   17.6750 O.co2     1 F77        -0.5686
     13 N13        15.4730   29.3430   17.2220 N.am      1 F77        -0.1896
     14 S14        14.8530   29.1810   18.7260 S.o2      1 F77         0.0873
     15 O15        13.9540   28.0640   18.6920 O.2       1 F77        -0.1452
     16 O16        14.2850   30.4760   19.0650 O.2       1 F77        -0.1452
     17 C17        16.1930   28.8130   19.8010 C.ar      1 F77         0.1100
     18 C18        16.6840   27.4840   19.8840 C.ar      1 F77        -0.0365
     19 C19        17.7690   27.1900   20.7450 C.ar      1 F77        -0.0263
     20 C20        18.3340   28.2370   21.5030 C.ar      1 F77         0.1325
     21 C21        17.8560   29.5530   21.4310 C.ar      1 F77        -0.0263
     22 C22        16.7760   29.8410   20.5710 C.ar      1 F77        -0.0365
     23 F23        19.3510   27.9740   22.3150 F         1 F77        -0.1834
     24 H1         20.5768   34.9306   16.0274 H         1 F77         0.0247
     25 H2         20.5687   33.3658   16.9093 H         1 F77         0.0247
     26 H3         19.2725   34.5726   17.2095 H         1 F77         0.0247
     27 H4         19.7711   33.0918   14.5669 H         1 F77         0.0378
     28 H5         18.4749   34.2987   14.8672 H         1 F77         0.0378
     29 H6         16.3983   33.6869   15.8579 H         1 F77         0.0519
     30 H7         14.8338   31.9090   16.6684 H         1 F77         0.0419
     31 H8         20.6784   31.6181   15.4772 H         1 F77         0.0382
     32 H9         20.2387   29.9218   15.0826 H         1 F77         0.0382
     33 H10        20.6119   30.3816   16.7785 H         1 F77         0.0382
     34 H11        15.1918   28.6579   16.5500 H         1 F77         0.2157
     35 H12        16.2306   26.6978   19.2912 H         1 F77         0.0627
     36 H13        18.1576   26.1808   20.8201 H         1 F77         0.0604
     37 H14        18.3094   30.3368   22.0270 H         1 F77         0.0604
     38 H15        16.3937   30.8530   20.5017 H         1 F77         0.0627
@<TRIPOS>BOND
     1    1    2 1  
     2    2    3 1  
     3    3    4 ar 
     4    3    8 ar 
     5    4    5 ar 
     6    5    6 ar 
     7    6    7 ar 
     8    6   13 1  
     9    7    8 ar 
    10    7   10 1  
    11    8    9 1  
    12   10   11 ar 
    13   10   12 ar 
    14   13   14 am 
    15   14   15 2  
    16   14   16 2  
    17   14   17 1  
    18   17   18 ar 
    19   17   22 ar 
    20   18   19 ar 
    21   19   20 ar 
    22   20   21 ar 
    23   20   23 1  
    24   21   22 ar 
    25    1   24 1  
    26    1   25 1  
    27    1   26 1  
    28    2   27 1  
    29    2   28 1  
    30    4   29 1  
    31    5   30 1  
    32    9   31 1  
    33    9   32 1  
    34    9   33 1  
    35   13   34 1  
    36   18   35 1  
    37   19   36 1  
    38   21   37 1  
    39   22   38 1  
@<TRIPOS>SUBSTRUCTURE
     1 F77         1

