### 
### Created by X-TOOL on Fri Sep 26 17:34:36 2014
### 

@<TRIPOS>MOLECULE
2eg7_ligand
   17    17     1     0     0
SMALL
GAST_HUCK


@<TRIPOS>ATOM
      1 N1         26.3330   38.8610   73.3320 N.am      1 OTD        -0.2472
      2 N3         24.7630   40.3600   72.2640 N.am      1 OTD        -0.2261
      3 C4         25.5910   41.4710   72.5010 C.2       1 OTD         0.0858
      4 C5         26.7890   41.3490   73.1630 C.2       1 OTD        -0.0353
      5 C6         27.1900   39.9630   73.7130 C.3       1 OTD         0.1070
      6 O61        28.9890   38.6480   72.8760 O.co2     1 OTD        -0.5647
      7 C61        28.6510   39.6490   73.5420 C.2       1 OTD         0.0656
      8 O62        29.3680   40.4210   74.1490 O.co2     1 OTD        -0.5647
      9 C41        25.1280   42.8190   72.0260 C.2       1 OTD         0.0776
     10 O42        25.8460   43.8340   72.2450 O.co2     1 OTD        -0.5617
     11 O41        24.0210   42.7850   71.4300 O.co2     1 OTD        -0.5617
     12 C2         25.1320   39.0690   72.6790 C.2       1 OTD         0.2874
     13 O2         24.4370   38.0750   72.4690 O.2       1 OTD        -0.3914
     14 H1         26.6162   37.9262   73.5462 H         1 OTD         0.1895
     15 H2         23.8924   40.4911   71.7898 H         1 OTD         0.2223
     16 H3         27.4412   42.2108   73.2968 H         1 OTD         0.0362
     17 H4         27.0485   40.0540   74.8000 H         1 OTD         0.0814
@<TRIPOS>BOND
     1    1    5 1  
     2   12    1 am 
     3    2    3 am 
     4    2   12 am 
     5    3    4 2  
     6    3    9 1  
     7    4    5 1  
     8    5    7 1  
     9    7    6 ar 
    10    7    8 ar 
    11    9   10 ar 
    12    9   11 ar 
    13   12   13 2  
    14    1   14 1  
    15    2   15 1  
    16    4   16 1  
    17    5   17 1  
@<TRIPOS>SUBSTRUCTURE
     1 OTD         1

