### 
### Created by X-TOOL on Fri Sep 26 17:34:35 2014
### 

@<TRIPOS>MOLECULE
2eg8_ligand
   14    14     1     0     0
SMALL
GAST_HUCK


@<TRIPOS>ATOM
      1 C2         25.7090   39.1610   72.5410 C.2       1 FOT         0.3237
      2 C6         27.8520   39.9840   72.0690 C.2       1 FOT         0.2287
      3 C5         27.3000   41.3380   71.9450 C.2       1 FOT         0.2124
      4 O2         24.9640   38.1850   72.7980 O.2       1 FOT        -0.3838
      5 N3         25.1360   40.3720   72.4330 N.am      1 FOT        -0.1986
      6 N1         27.0290   38.9700   72.3740 N.am      1 FOT        -0.1835
      7 O6         29.0720   39.8380   71.9110 O.2       1 FOT        -0.4028
      8 F5         28.0770   42.3880   71.6310 F         1 FOT        -0.2073
      9 C4         25.8480   41.4600   72.1500 C.2       1 FOT         0.1534
     10 C41        25.2220   42.7910   72.0010 C.2       1 FOT         0.1014
     11 O42        25.9010   43.7520   72.3850 O.co2     1 FOT        -0.5545
     12 O41        24.0950   42.8860   71.4440 O.co2     1 FOT        -0.5545
     13 H1         24.1490   40.4576   72.5688 H         1 FOT         0.2394
     14 H2         27.4063   38.0500   72.4797 H         1 FOT         0.2261
@<TRIPOS>BOND
     1    1    4 2  
     2    1    5 am 
     3    6    1 am 
     4    2    3 1  
     5    2    6 am 
     6    2    7 2  
     7    3    8 1  
     8    3    9 2  
     9    5    9 1  
    10    9   10 1  
    11   10   11 ar 
    12   10   12 ar 
    13    5   13 1  
    14    6   14 1  
@<TRIPOS>SUBSTRUCTURE
     1 FOT         1

