### 
### Created by X-TOOL on Mon Sep 10 21:12:58 2018
### 

@<TRIPOS>MOLECULE
2ei6_ligand
   59    63     1     0     0
SMALL
GAST_HUCK


@<TRIPOS>ATOM
      1 CL1        14.0770    7.7180   26.5680 Cl        1 D92        -0.0811
      2 C16        12.3270    7.8370   26.5040 C.ar      1 D92         0.0253
      3 C17        11.6240    7.5030   27.6670 C.ar      1 D92        -0.0600
      4 C18        10.2400    7.5420   27.7080 C.ar      1 D92        -0.0398
      5 C12         9.5830    7.9160   26.5340 C.ar      1 D92         0.0680
      6 N11         8.2360    8.0270   26.3520 N.pl3     1 D92        -0.2669
      7 C15        11.7000    8.2250   25.3240 C.ar      1 D92        -0.0571
      8 C13        10.2930    8.2640   25.3350 C.ar      1 D92        -0.0169
      9 C14         9.3760    8.5820   24.3380 C.2       1 D92        -0.0391
     10 C10         8.1160    8.4280   24.9900 C.2       1 D92         0.1322
     11 C9          6.7270    8.7670   24.4790 C.2       1 D92         0.2271
     12 O19         5.7740    8.6560   25.2400 O.2       1 D92        -0.3840
     13 N7          6.5760    9.1670   23.2220 N.am      1 D92        -0.2797
     14 C1          5.2150    9.1900   22.6150 C.3       1 D92         0.0642
     15 C6          5.3070    9.8700   21.2070 C.3       1 D92        -0.0278
     16 C5          4.2090    9.4060   20.2050 C.3       1 D92        -0.0508
     17 C4          2.9310    8.9470   20.9560 C.3       1 D92        -0.0508
     18 C3          3.1650    7.7310   21.9360 C.3       1 D92        -0.0278
     19 C2          4.6070    7.7120   22.5180 C.3       1 D92         0.0644
     20 N8          5.3980    6.7500   21.7000 N.am      1 D92        -0.2779
     21 C20         5.4950    5.4190   21.8810 C.2       1 D92         0.2376
     22 O31         4.9370    4.8300   22.7780 O.2       1 D92        -0.3784
     23 C21         6.3900    4.6510   20.9340 C.2       1 D92         0.1749
     24 S25         6.5400    2.9290   21.0340 S.3       1 D92         0.0090
     25 C24         7.6460    3.0170   19.7250 C.2       1 D92         0.0791
     26 C26         8.3200    1.7890   19.1180 C.3       1 D92         0.0124
     27 N27         8.9010    2.0930   17.7690 N.4       1 D92         0.2469
     28 C30         9.7450    1.0050   17.2170 C.3       1 D92        -0.0415
     29 C28         9.5740    3.4330   17.5840 C.3       1 D92        -0.0248
     30 C29         8.8020    4.6480   18.1630 C.3       1 D92         0.0177
     31 C23         7.8530    4.3070   19.3040 C.2       1 D92         0.0193
     32 N22         7.1460    5.2510   19.9800 N.2       1 D92        -0.2999
     33 H1         12.1735    7.2078   28.5535 H         1 D92         0.0556
     34 H2          9.6922    7.2936   28.6098 H         1 D92         0.0550
     35 H3          7.4843    7.8606   27.0362 H         1 D92         0.2262
     36 H4         12.2682    8.4849   24.4382 H         1 D92         0.0564
     37 H5          9.5725    8.8772   23.3084 H         1 D92         0.0400
     38 H6          7.3708    9.4512   22.6857 H         1 D92         0.1846
     39 H7          4.5524    9.7924   23.2538 H         1 D92         0.0578
     40 H8          6.2909    9.6365   20.7740 H         1 D92         0.0288
     41 H9          5.2144   10.9578   21.3418 H         1 D92         0.0288
     42 H10         4.5970    8.5670   19.6088 H         1 D92         0.0266
     43 H11         3.9536   10.2426   19.5380 H         1 D92         0.0266
     44 H12         2.1789    8.6505   20.2101 H         1 D92         0.0266
     45 H13         2.5506    9.7961   21.5428 H         1 D92         0.0266
     46 H14         2.9934    6.7945   21.3852 H         1 D92         0.0288
     47 H15         2.4487    7.8038   22.7676 H         1 D92         0.0288
     48 H16         4.5626    7.3183   23.5442 H         1 D92         0.0578
     49 H17         5.9126    7.1344   20.9335 H         1 D92         0.1849
     50 H18         7.5747    0.9867   19.0139 H         1 D92         0.0990
     51 H19         9.1264    1.4558   19.7878 H         1 D92         0.0990
     52 H20         8.0952    2.1322   17.1647 H         1 D92         0.2047
     53 H21        10.1308    1.3045   16.2314 H         1 D92         0.0778
     54 H22         9.1425    0.0906   17.1125 H         1 D92         0.0778
     55 H23        10.5875    0.8132   17.8977 H         1 D92         0.0778
     56 H24         9.7095    3.5993   16.5051 H         1 D92         0.0831
     57 H25        10.5575    3.3901   18.0748 H         1 D92         0.0831
     58 H26         8.2142    5.1005   17.3508 H         1 D92         0.0421
     59 H27         9.5372    5.3773   18.5339 H         1 D92         0.0421
@<TRIPOS>BOND
     1    1    2 1  
     2    2    3 ar 
     3    2    7 ar 
     4    3    4 ar 
     5    4    5 ar 
     6    5    6 1  
     7    5    8 ar 
     8    6   10 1  
     9    7    8 ar 
    10    8    9 1  
    11    9   10 2  
    12   10   11 1  
    13   11   12 2  
    14   11   13 am 
    15   13   14 1  
    16   14   15 1  
    17   14   19 1  
    18   15   16 1  
    19   16   17 1  
    20   17   18 1  
    21   18   19 1  
    22   19   20 1  
    23   20   21 am 
    24   21   22 2  
    25   21   23 1  
    26   23   24 1  
    27   23   32 2  
    28   24   25 1  
    29   25   26 1  
    30   25   31 2  
    31   26   27 1  
    32   27   28 1  
    33   27   29 1  
    34   29   30 1  
    35   30   31 1  
    36   31   32 1  
    37    3   33 1  
    38    4   34 1  
    39    6   35 1  
    40    7   36 1  
    41    9   37 1  
    42   13   38 1  
    43   14   39 1  
    44   15   40 1  
    45   15   41 1  
    46   16   42 1  
    47   16   43 1  
    48   17   44 1  
    49   17   45 1  
    50   18   46 1  
    51   18   47 1  
    52   19   48 1  
    53   20   49 1  
    54   26   50 1  
    55   26   51 1  
    56   27   52 1  
    57   28   53 1  
    58   28   54 1  
    59   28   55 1  
    60   29   56 1  
    61   29   57 1  
    62   30   58 1  
    63   30   59 1  
@<TRIPOS>SUBSTRUCTURE
     1 D92         1

