### 
### Created by X-TOOL on Mon Sep 10 21:12:57 2018
### 

@<TRIPOS>MOLECULE
2epn_ligand
   27    28     1     0     0
SMALL
GAST_HUCK


@<TRIPOS>ATOM
      1 C1         23.2810    6.4870   40.3750 C.3       1 NGT         0.1382
      2 C2         24.7020    6.7500   39.8140 C.3       1 NGT         0.0652
      3 C3         25.3080    8.0190   40.3920 C.3       1 NGT         0.0954
      4 C4         24.3770    9.2570   40.3220 C.3       1 NGT         0.1101
      5 C5         23.0910    8.8210   41.0270 C.3       1 NGT         0.1116
      6 C6         22.0420    9.9350   41.0520 C.3       1 NGT         0.0730
      7 C7         25.0690    5.1380   41.5210 C.2       1 NGT         0.0728
      8 C8         25.7220    4.0330   42.3000 C.3       1 NGT         0.0106
      9 N2         25.5010    5.6390   40.3670 N.2       1 NGT        -0.3502
     10 S1         23.5370    5.7540   42.0370 S.3       1 NGT        -0.0199
     11 O3         26.5790    8.3580   39.7100 O.3       1 NGT        -0.3883
     12 O4         24.9680   10.4030   40.9640 O.3       1 NGT        -0.3866
     13 O5         22.5000    7.6720   40.3910 O.3       1 NGT        -0.3535
     14 O6         21.6320   10.2300   39.7260 O.3       1 NGT        -0.3924
     15 H1         22.7663    5.7539   39.7365 H         1 NGT         0.0761
     16 H2         24.7055    6.7730   38.7143 H         1 NGT         0.0431
     17 H3         25.5249    7.8222   41.4523 H         1 NGT         0.0628
     18 H4         24.1650    9.5103   39.2728 H         1 NGT         0.0646
     19 H5         23.3474    8.5571   42.0636 H         1 NGT         0.0646
     20 H6         22.4752   10.8361   41.5106 H         1 NGT         0.0584
     21 H7         21.1723    9.6063   41.6399 H         1 NGT         0.0584
     22 H8         26.6815    3.7707   41.8303 H         1 NGT         0.0521
     23 H9         25.0643    3.1513   42.3074 H         1 NGT         0.0521
     24 H10        25.8987    4.3674   43.3329 H         1 NGT         0.0521
     25 H11        27.1638    7.6101   39.7426 H         1 NGT         0.2099
     26 H12        24.3535   11.1272   40.9449 H         1 NGT         0.2100
     27 H13        21.2579    9.4513   39.3308 H         1 NGT         0.2095
@<TRIPOS>BOND
     1    2    1 1  
     2    1   10 1  
     3    1   13 1  
     4    2    3 1  
     5    9    2 1  
     6    3    4 1  
     7    3   11 1  
     8    4    5 1  
     9    4   12 1  
    10    5    6 1  
    11   13    5 1  
    12    6   14 1  
    13    7    8 1  
    14    7    9 2  
    15    7   10 1  
    16    1   15 1  
    17    2   16 1  
    18    3   17 1  
    19    4   18 1  
    20    5   19 1  
    21    6   20 1  
    22    6   21 1  
    23    8   22 1  
    24    8   23 1  
    25    8   24 1  
    26   11   25 1  
    27   12   26 1  
    28   14   27 1  
@<TRIPOS>SUBSTRUCTURE
     1 NGT         1

