### 
### Created by X-TOOL on Sun Sep  9 21:50:19 2018
### 

@<TRIPOS>MOLECULE
2esm_ligand
   38    40     1     0     0
SMALL
GAST_HUCK


@<TRIPOS>ATOM
      1 O1         -0.8920  138.7790   19.7160 O.2       1 NON        -0.1499
      2 S1         -1.3530  137.4920   20.1620 S.o2      1 NON         0.0730
      3 O2         -0.9840  137.3570   21.5460 O.2       1 NON        -0.1499
      4 N4         -2.8780  137.3870   20.0410 N.am      1 NON        -0.2286
      5 C22        -3.5680  136.2000   20.5490 C.3       1 NON         0.0695
      6 C21        -4.1360  136.5480   21.9250 C.3       1 NON        -0.0162
      7 N17        -4.9840  137.7260   21.8840 N.4       1 NON         0.2282
      8 C16        -4.3730  139.0440   21.8310 C.3       1 NON        -0.0321
      9 C20        -4.0450  139.5290   20.4130 C.3       1 NON         0.0045
     10 C15        -3.6640  138.4420   19.3950 C.3       1 NON         0.0347
     11 C5         -0.6590  136.3250   19.3000 C.ar      1 NON         0.1236
     12 C6         -0.3290  135.1140   19.9190 C.ar      1 NON        -0.0287
     13 C7          0.2710  134.0620   19.2200 C.ar      1 NON        -0.0534
     14 C8          0.5770  134.1480   17.8600 C.ar      1 NON        -0.0451
     15 C9          0.2950  135.3100   17.1460 C.ar      1 NON         0.0110
     16 C10        -0.3440  136.4640   17.8400 C.ar      1 NON         0.0243
     17 C11        -0.6130  137.6050   17.0850 C.ar      1 NON        -0.0294
     18 C14         0.5890  135.4210   15.7900 C.ar      1 NON         0.0199
     19 N13         0.2990  136.5580   15.1300 N.ar      1 NON        -0.2974
     20 C12        -0.2770  137.6190   15.7290 C.ar      1 NON         0.0077
     21 H1         -2.8595  135.3632   20.6366 H         1 NON         0.0531
     22 H2         -4.3839  135.9198   19.8666 H         1 NON         0.0531
     23 H3         -3.3012  136.7359   22.6162 H         1 NON         0.0830
     24 H4         -4.7293  135.6965   22.2895 H         1 NON         0.0830
     25 H5         -5.5596  137.7023   22.7112 H         1 NON         0.2014
     26 H6         -5.5671  137.6397   21.0663 H         1 NON         0.2014
     27 H7         -3.4383  139.0144   22.4102 H         1 NON         0.0814
     28 H8         -5.0662  139.7642   22.2901 H         1 NON         0.0814
     29 H9         -3.2016  140.2315   20.4853 H         1 NON         0.0333
     30 H10        -4.9293  140.0563   20.0257 H         1 NON         0.0333
     31 H11        -4.5806  138.0039   18.9732 H         1 NON         0.0480
     32 H12        -3.0688  138.8944   18.5881 H         1 NON         0.0480
     33 H13        -0.5454  134.9875   20.9736 H         1 NON         0.0675
     34 H14         0.5069  133.1477   19.7523 H         1 NON         0.0645
     35 H15         1.0369  133.3050   17.3570 H         1 NON         0.0659
     36 H16        -1.0770  138.4703   17.5444 H         1 NON         0.0716
     37 H17         1.0512  134.5924   15.2657 H         1 NON         0.0870
     38 H18        -0.4851  138.5069   15.1431 H         1 NON         0.0775
@<TRIPOS>BOND
     1    1    2 2  
     2    2    3 2  
     3    2    4 am 
     4    2   11 1  
     5    4    5 1  
     6    4   10 1  
     7    5    6 1  
     8    6    7 1  
     9    7    8 1  
    10    8    9 1  
    11    9   10 1  
    12   11   12 ar 
    13   11   16 ar 
    14   12   13 ar 
    15   13   14 ar 
    16   14   15 ar 
    17   15   16 ar 
    18   15   18 ar 
    19   16   17 ar 
    20   17   20 ar 
    21   18   19 ar 
    22   19   20 ar 
    23    5   21 1  
    24    5   22 1  
    25    6   23 1  
    26    6   24 1  
    27    7   25 1  
    28    7   26 1  
    29    8   27 1  
    30    8   28 1  
    31    9   29 1  
    32    9   30 1  
    33   10   31 1  
    34   10   32 1  
    35   12   33 1  
    36   13   34 1  
    37   14   35 1  
    38   17   36 1  
    39   18   37 1  
    40   20   38 1  
@<TRIPOS>SUBSTRUCTURE
     1 NON         1

