### 
### Created by X-TOOL on Mon Sep 10 21:12:53 2018
### 

@<TRIPOS>MOLECULE
2etk_ligand
   39    41     1     0     0
SMALL
GAST_HUCK


@<TRIPOS>ATOM
      1 O1         50.1370   98.4500   24.9940 O.2       1 HFS        -0.3934
      2 C1         50.2380   99.5810   25.5210 C.2       1 HFS         0.2263
      3 N1         49.9040  100.6800   24.8260 N.am      1 HFS        -0.2245
      4 C2         49.9940  101.9200   25.3480 C.2       1 HFS         0.0497
      5 C3         50.4390  102.1680   26.6510 C.2       1 HFS        -0.0459
      6 C4         50.8150  101.1100   27.4760 C.ar      1 HFS        -0.0083
      7 C5         51.3050  101.2740   28.8820 C.ar      1 HFS         0.1058
      8 C6         51.6420  100.1120   29.5840 C.ar      1 HFS        -0.0414
      9 C7         51.5380   98.8390   29.0160 C.ar      1 HFS        -0.0643
     10 C8         51.0890   98.6440   27.7090 C.ar      1 HFS        -0.0522
     11 C9         50.7230   99.7330   26.9210 C.ar      1 HFS         0.0495
     12 S1         51.4400  102.7120   29.5830 S.o2      1 HFS         0.0675
     13 O2         52.1500  103.6120   28.7190 O.2       1 HFS        -0.1513
     14 O3         50.1220  103.2420   29.7990 O.2       1 HFS        -0.1513
     15 N2         52.1950  102.6000   30.9140 N.am      1 HFS        -0.2298
     16 C10        53.6590  102.7090   30.9350 C.3       1 HFS         0.0345
     17 C11        54.0230  104.0180   31.6420 C.3       1 HFS         0.0045
     18 C12        53.8410  103.9030   33.1570 C.3       1 HFS        -0.0321
     19 N3         52.4730  104.1420   33.6000 N.4       1 HFS         0.2282
     20 C13        51.2960  103.7010   32.8630 C.3       1 HFS        -0.0162
     21 C14        51.4670  102.3510   32.1620 C.3       1 HFS         0.0694
     22 H1         49.5765  100.5752   23.8870 H         1 HFS         0.2490
     23 H2         49.7072  102.7673   24.7269 H         1 HFS         0.1143
     24 H3         50.4916  103.1907   27.0214 H         1 HFS         0.0289
     25 H4         51.9963  100.2019   30.6045 H         1 HFS         0.0642
     26 H5         51.8150   97.9754   29.6098 H         1 HFS         0.0549
     27 H6         51.0247   97.6402   27.3050 H         1 HFS         0.0640
     28 H7         54.0479  102.7192   29.9061 H         1 HFS         0.0480
     29 H8         54.0895  101.8569   31.4813 H         1 HFS         0.0480
     30 H9         53.3743  104.8217   31.2635 H         1 HFS         0.0333
     31 H10        55.0735  104.2619   31.4252 H         1 HFS         0.0333
     32 H11        54.4976  104.6395   33.6431 H         1 HFS         0.0814
     33 H12        54.1347  102.8892   33.4666 H         1 HFS         0.0814
     34 H13        52.3834  105.1422   33.6873 H         1 HFS         0.2014
     35 H14        52.4013  103.7173   34.5114 H         1 HFS         0.2014
     36 H15        51.0617  104.4587   32.1008 H         1 HFS         0.0830
     37 H16        50.4566  103.6196   33.5693 H         1 HFS         0.0830
     38 H17        52.0400  101.6639   32.8020 H         1 HFS         0.0531
     39 H18        50.4822  101.9127   31.9429 H         1 HFS         0.0531
@<TRIPOS>BOND
     1    1    2 2  
     2    2    3 am 
     3    2   11 1  
     4    3    4 am 
     5    4    5 2  
     6    5    6 1  
     7    6    7 ar 
     8    6   11 ar 
     9    7    8 ar 
    10    7   12 1  
    11    8    9 ar 
    12    9   10 ar 
    13   10   11 ar 
    14   12   13 2  
    15   12   14 2  
    16   12   15 am 
    17   15   16 1  
    18   15   21 1  
    19   16   17 1  
    20   17   18 1  
    21   18   19 1  
    22   19   20 1  
    23   20   21 1  
    24    3   22 1  
    25    4   23 1  
    26    5   24 1  
    27    8   25 1  
    28    9   26 1  
    29   10   27 1  
    30   16   28 1  
    31   16   29 1  
    32   17   30 1  
    33   17   31 1  
    34   18   32 1  
    35   18   33 1  
    36   19   34 1  
    37   19   35 1  
    38   20   36 1  
    39   20   37 1  
    40   21   38 1  
    41   21   39 1  
@<TRIPOS>SUBSTRUCTURE
     1 HFS         1

