### 
### Created by X-TOOL on Mon Sep 10 21:12:54 2018
### 

@<TRIPOS>MOLECULE
2etm_ligand
   47    50     1     0     0
SMALL
GAST_HUCK


@<TRIPOS>ATOM
      1 CAX        -2.1680    9.6950    9.8970 C.3       1 7PY         0.0562
      2 OAW        -2.9920    9.8440    8.7380 O.3       1 7PY        -0.3307
      3 CAS        -2.8340   11.0580    8.1410 C.ar      1 7PY         0.1025
      4 CAR        -1.9450   11.1990    7.0780 C.ar      1 7PY        -0.0290
      5 CAT        -3.6570   12.1250    8.5000 C.ar      1 7PY         0.1349
      6 OAY        -4.5250   11.9940    9.5400 O.3       1 7PY        -0.3368
      7 CAZ        -5.7650   11.4350    9.0900 C.3       1 7PY         0.0517
      8 CAU        -3.5960   13.3200    7.7870 C.ar      1 7PY         0.1025
      9 OBA        -4.3160   14.4020    8.1900 O.3       1 7PY        -0.3307
     10 CBB        -5.6230   14.4150    7.6060 C.3       1 7PY         0.0562
     11 CAV        -2.7260   13.4410    6.7070 C.ar      1 7PY        -0.0290
     12 CAF        -1.8930   12.3850    6.3470 C.ar      1 7PY         0.0366
     13 NAE        -0.9930   12.6100    5.3890 N.pl3     1 7PY        -0.2571
     14 CAD         0.0070   11.8000    5.0460 C.ar      1 7PY         0.1928
     15 NAG         0.4280   10.8130    5.9470 N.ar      1 7PY        -0.2399
     16 CAH         1.6750   10.1960    5.7850 C.ar      1 7PY         0.1563
     17 NAC         0.8410   12.1350    3.9710 N.ar      1 7PY        -0.2648
     18 CAB         2.0830   11.5070    3.8030 C.ar      1 7PY         0.0074
     19 CAA         2.4990   10.5440    4.7160 C.ar      1 7PY         0.0178
     20 CAL         3.5960    9.8050    4.8490 C.2       1 7PY        -0.0523
     21 CAK         3.4930    9.0320    5.9230 C.2       1 7PY         0.0463
     22 NAI         2.3180    9.2710    6.4960 N.pl3     1 7PY        -0.1919
     23 CAJ         2.1220    8.8530    7.7450 C.ar      1 7PY         0.1681
     24 CAM         1.2090    9.3530    8.6700 C.ar      1 7PY        -0.0005
     25 CAN         1.1180    8.8360    9.9580 C.ar      1 7PY        -0.0478
     26 CAO         1.9430    7.7940   10.3690 C.ar      1 7PY        -0.0426
     27 CAP         2.8710    7.2750    9.4730 C.ar      1 7PY         0.0032
     28 NAQ         2.9530    7.8090    8.1790 N.ar      1 7PY        -0.2697
     29 H1         -2.3334    8.7014   10.3392 H         1 7PY         0.0572
     30 H2         -2.4259   10.4712   10.6325 H         1 7PY         0.0572
     31 H3         -1.1108    9.7976    9.6110 H         1 7PY         0.0572
     32 H4         -1.2869   10.3783    6.8165 H         1 7PY         0.0344
     33 H5         -6.4534   11.3364    9.9423 H         1 7PY         0.0564
     34 H6         -5.5820   10.4436    8.6499 H         1 7PY         0.0564
     35 H7         -6.2117   12.0958    8.3325 H         1 7PY         0.0564
     36 H8         -6.1718   15.3021    7.9552 H         1 7PY         0.0572
     37 H9         -6.1669   13.5065    7.9041 H         1 7PY         0.0572
     38 H10        -5.5346   14.4465    6.5100 H         1 7PY         0.0572
     39 H11        -2.6968   14.3653    6.1414 H         1 7PY         0.0344
     40 H12        -1.0793   13.4928    4.8654 H         1 7PY         0.2132
     41 H13         2.7170   11.7711    2.9643 H         1 7PY         0.0866
     42 H14         4.4522    9.8301    4.1765 H         1 7PY         0.0323
     43 H15         4.2422    8.3240    6.2741 H         1 7PY         0.0951
     44 H16         0.5529   10.1653    8.3790 H         1 7PY         0.0668
     45 H17         0.3946    9.2505   10.6508 H         1 7PY         0.0714
     46 H18         1.8636    7.3927   11.3728 H         1 7PY         0.0639
     47 H19         3.5256    6.4644    9.7723 H         1 7PY         0.0799
@<TRIPOS>BOND
     1    1    2 1  
     2    2    3 1  
     3    3    4 ar 
     4    3    5 ar 
     5    4   12 ar 
     6    5    6 1  
     7    5    8 ar 
     8    6    7 1  
     9    8    9 1  
    10    8   11 ar 
    11    9   10 1  
    12   11   12 ar 
    13   12   13 1  
    14   13   14 1  
    15   14   15 ar 
    16   14   17 ar 
    17   15   16 ar 
    18   16   19 ar 
    19   16   22 1  
    20   17   18 ar 
    21   18   19 ar 
    22   19   20 1  
    23   20   21 2  
    24   21   22 1  
    25   22   23 1  
    26   23   24 ar 
    27   23   28 ar 
    28   24   25 ar 
    29   25   26 ar 
    30   26   27 ar 
    31   27   28 ar 
    32    1   29 1  
    33    1   30 1  
    34    1   31 1  
    35    4   32 1  
    36    7   33 1  
    37    7   34 1  
    38    7   35 1  
    39   10   36 1  
    40   10   37 1  
    41   10   38 1  
    42   11   39 1  
    43   13   40 1  
    44   18   41 1  
    45   20   42 1  
    46   21   43 1  
    47   24   44 1  
    48   25   45 1  
    49   26   46 1  
    50   27   47 1  
@<TRIPOS>SUBSTRUCTURE
     1 7PY         1

