### 
### Created by X-TOOL on Mon Sep 10 21:12:53 2018
### 

@<TRIPOS>MOLECULE
2etr_ligand
   40    41     1     0     0
SMALL
GAST_HUCK


@<TRIPOS>ATOM
      1 O23        50.2210  102.2230   28.6230 O.2       1 Y27        -0.3826
      2 C22        51.0510  101.4790   29.1290 C.2       1 Y27         0.2105
      3 C31        51.8760  101.9220   30.3110 C.3       1 Y27         0.0554
      4 C36        52.8670  103.0170   29.9120 C.3       1 Y27        -0.0322
      5 C35        53.7390  103.4220   31.1040 C.3       1 Y27        -0.0428
      6 C34        52.9100  103.8740   32.3170 C.3       1 Y27         0.0020
      7 C33        51.8370  102.8340   32.6670 C.3       1 Y27        -0.0428
      8 C32        50.9950  102.4390   31.4520 C.3       1 Y27        -0.0322
      9 C41        53.7690  104.2330   33.5400 C.3       1 Y27        -0.0244
     10 C42        54.6740  103.0980   34.0250 C.3       1 Y27        -0.0215
     11 N43        54.5870  105.3960   33.2510 N.4       1 Y27         0.2207
     12 N21        51.3120  100.2310   28.7210 N.am      1 Y27        -0.2247
     13 C14        50.9190   99.6340   27.5640 C.ar      1 Y27         0.0867
     14 C15        50.4320  100.3340   26.4560 C.ar      1 Y27        -0.0140
     15 C16        50.0570   99.6300   25.3100 C.ar      1 Y27        -0.0065
     16 N11        50.1660   98.2910   25.2620 N.ar      1 Y27        -0.3199
     17 C12        50.6360   97.5930   26.3080 C.ar      1 Y27        -0.0065
     18 C13        51.0210   98.2460   27.4780 C.ar      1 Y27        -0.0140
     19 H1         52.4430  101.0527   30.6755 H         1 Y27         0.0544
     20 H2         52.3093  103.8965   29.5579 H         1 Y27         0.0293
     21 H3         53.5124  102.6423   29.1039 H         1 Y27         0.0293
     22 H4         54.3934  104.2508   30.7962 H         1 Y27         0.0271
     23 H5         54.3542  102.5593   31.3996 H         1 Y27         0.0271
     24 H6         52.3852  104.7936   32.0187 H         1 Y27         0.0355
     25 H7         51.1729  103.2555   33.4359 H         1 Y27         0.0271
     26 H8         52.3315  101.9345   33.0625 H         1 Y27         0.0271
     27 H9         50.2891  101.6485   31.7466 H         1 Y27         0.0293
     28 H10        50.4351  103.3189   31.1024 H         1 Y27         0.0293
     29 H11        53.0825  104.4859   34.3614 H         1 Y27         0.0850
     30 H12        55.2509  103.4367   34.8982 H         1 Y27         0.0284
     31 H13        55.3645  102.8096   33.2188 H         1 Y27         0.0284
     32 H14        54.0571  102.2320   34.3067 H         1 Y27         0.0284
     33 H15        53.9988  106.1493   32.9306 H         1 Y27         0.1997
     34 H16        55.2577  105.1655   32.5347 H         1 Y27         0.1997
     35 H17        55.0727  105.6813   34.0869 H         1 Y27         0.1997
     36 H18        51.8615   99.6709   29.3409 H         1 Y27         0.2307
     37 H19        50.3463  101.4142   26.4864 H         1 Y27         0.0596
     38 H20        49.6742  100.1685   24.4506 H         1 Y27         0.0771
     39 H21        50.7167   96.5140   26.2424 H         1 Y27         0.0771
     40 H22        51.3988   97.6760   28.3191 H         1 Y27         0.0596
@<TRIPOS>BOND
     1    1    2 2  
     2    2    3 1  
     3    2   12 am 
     4    3    4 1  
     5    3    8 1  
     6    4    5 1  
     7    5    6 1  
     8    6    7 1  
     9    6    9 1  
    10    7    8 1  
    11    9   10 1  
    12    9   11 1  
    13   12   13 1  
    14   13   14 ar 
    15   13   18 ar 
    16   14   15 ar 
    17   15   16 ar 
    18   16   17 ar 
    19   17   18 ar 
    20    3   19 1  
    21    4   20 1  
    22    4   21 1  
    23    5   22 1  
    24    5   23 1  
    25    6   24 1  
    26    7   25 1  
    27    7   26 1  
    28    8   27 1  
    29    8   28 1  
    30    9   29 1  
    31   10   30 1  
    32   10   31 1  
    33   10   32 1  
    34   11   33 1  
    35   11   34 1  
    36   11   35 1  
    37   12   36 1  
    38   14   37 1  
    39   15   38 1  
    40   17   39 1  
    41   18   40 1  
@<TRIPOS>SUBSTRUCTURE
     1 Y27         1

