### 
### Created by X-TOOL on Mon Sep 10 21:12:55 2018
### 

@<TRIPOS>MOLECULE
2euf_ligand
   63    67     1     0     0
SMALL
GAST_HUCK


@<TRIPOS>ATOM
      1 O01        32.4090   28.5440   60.1410 O.2       1 LQQ        -0.4005
      2 C02        33.0080   27.5190   59.9010 C.2       1 LQQ         0.1114
      3 C01        34.3120   27.5070   59.1620 C.3       1 LQQ         0.0042
      4 C03        32.4150   26.2120   60.3390 C.2       1 LQQ         0.0921
      5 C04        32.6480   25.6900   61.6150 C.2       1 LQQ        -0.0014
      6 C05        33.4290   26.4260   62.6690 C.3       1 LQQ        -0.0182
      7 C06        31.9290   24.4600   62.0050 C.ar      1 LQQ         0.0674
      8 C07        32.1990   23.7830   63.2720 C.ar      1 LQQ         0.0222
      9 N01        31.5880   22.6260   63.5420 N.ar      1 LQQ        -0.2581
     10 C08        30.8720   21.9680   62.6070 C.ar      1 LQQ         0.2007
     11 N02        30.7030   22.5010   61.3540 N.ar      1 LQQ        -0.2281
     12 C09        31.2660   23.6800   60.9670 C.ar      1 LQQ         0.1694
     13 N03        31.0700   24.2300   59.7410 N.am      1 LQQ        -0.1934
     14 C10        30.2950   23.4750   58.7390 C.3       1 LQQ         0.0762
     15 C11        29.2130   24.2680   58.0150 C.3       1 LQQ        -0.0220
     16 C12        29.2870   23.8720   56.5360 C.3       1 LQQ        -0.0502
     17 C13        30.5060   22.9550   56.3320 C.3       1 LQQ        -0.0502
     18 C14        31.2520   22.9450   57.6650 C.3       1 LQQ        -0.0220
     19 C15        31.6630   25.4930   59.4060 C.2       1 LQQ         0.2186
     20 O02        31.5220   26.0010   58.2620 O.2       1 LQQ        -0.4049
     21 N04        30.3500   20.7760   63.0170 N.pl3     1 LQQ        -0.2329
     22 C16        29.6660   19.8610   62.2880 C.ar      1 LQQ         0.1282
     23 N05        29.5140   18.6170   62.8010 N.ar      1 LQQ        -0.2923
     24 C17        28.8440   17.6710   62.1330 C.ar      1 LQQ         0.0159
     25 C18        28.2800   17.9460   60.8870 C.ar      1 LQQ         0.0573
     26 C19        28.4240   19.2200   60.3470 C.ar      1 LQQ        -0.0325
     27 C20        29.1170   20.1840   61.0520 C.ar      1 LQQ        -0.0195
     28 N06        27.5710   16.9530   60.1740 N.pl3     1 LQQ        -0.2984
     29 C21        28.4660   15.8000   59.9060 C.3       1 LQQ         0.0663
     30 C22        27.7120   14.6830   59.1890 C.3       1 LQQ        -0.0136
     31 N07        27.0440   15.1960   58.0030 N.4       1 LQQ         0.2298
     32 C23        26.3410   16.4760   58.0250 C.3       1 LQQ        -0.0136
     33 C24        26.9860   17.5260   58.9330 C.3       1 LQQ         0.0663
     34 H1         34.6670   26.4707   59.0616 H         1 LQQ         0.0439
     35 H2         35.0548   28.0966   59.7193 H         1 LQQ         0.0439
     36 H3         34.1712   27.9448   58.1627 H         1 LQQ         0.0439
     37 H4         33.9023   27.3128   62.2223 H         1 LQQ         0.0459
     38 H5         34.2054   25.7637   63.0795 H         1 LQQ         0.0459
     39 H6         32.7505   26.7398   63.4759 H         1 LQQ         0.0459
     40 H7         32.8894   24.2162   63.9867 H         1 LQQ         0.0932
     41 H8         29.8150   22.6292   59.2529 H         1 LQQ         0.0655
     42 H9         29.3952   25.3469   58.1275 H         1 LQQ         0.0295
     43 H10        28.2230   24.0187   58.4245 H         1 LQQ         0.0295
     44 H11        29.3945   24.7742   55.9160 H         1 LQQ         0.0266
     45 H12        28.3694   23.3373   56.2494 H         1 LQQ         0.0266
     46 H13        31.1528   23.3503   55.5349 H         1 LQQ         0.0266
     47 H14        30.1797   21.9380   56.0689 H         1 LQQ         0.0266
     48 H15        31.5622   21.9192   57.9129 H         1 LQQ         0.0295
     49 H16        32.1397   23.5915   57.6023 H         1 LQQ         0.0295
     50 H17        30.4946   20.5411   64.0094 H         1 LQQ         0.2211
     51 H18        28.7384   16.6819   62.5638 H         1 LQQ         0.0681
     52 H19        27.9951   19.4543   59.3794 H         1 LQQ         0.0612
     53 H20        29.2319   21.1825   60.6460 H         1 LQQ         0.0605
     54 H21        28.8559   15.4168   60.8605 H         1 LQQ         0.0565
     55 H22        29.3033   16.1326   59.2749 H         1 LQQ         0.0565
     56 H23        26.9613   14.2576   59.8713 H         1 LQQ         0.0833
     57 H24        28.4239   13.8988   58.8922 H         1 LQQ         0.0833
     58 H25        26.3645   14.5014   57.7348 H         1 LQQ         0.2015
     59 H26        27.7496   15.2699   57.2870 H         1 LQQ         0.2015
     60 H27        25.3134   16.3001   58.3757 H         1 LQQ         0.0833
     61 H28        26.3156   16.8742   56.9999 H         1 LQQ         0.0833
     62 H29        27.7860   18.0296   58.3704 H         1 LQQ         0.0565
     63 H30        26.2183   18.2611   59.2163 H         1 LQQ         0.0565
@<TRIPOS>BOND
     1    1    2 2  
     2    2    3 1  
     3    2    4 1  
     4    4    5 2  
     5    4   19 1  
     6    5    6 1  
     7    5    7 1  
     8    7    8 ar 
     9    7   12 ar 
    10    8    9 ar 
    11    9   10 ar 
    12   10   11 ar 
    13   10   21 1  
    14   11   12 ar 
    15   12   13 1  
    16   13   14 1  
    17   13   19 am 
    18   14   15 1  
    19   14   18 1  
    20   15   16 1  
    21   16   17 1  
    22   17   18 1  
    23   19   20 2  
    24   21   22 1  
    25   22   23 ar 
    26   22   27 ar 
    27   23   24 ar 
    28   24   25 ar 
    29   25   26 ar 
    30   25   28 1  
    31   26   27 ar 
    32   28   29 1  
    33   28   33 1  
    34   29   30 1  
    35   30   31 1  
    36   31   32 1  
    37   32   33 1  
    38    3   34 1  
    39    3   35 1  
    40    3   36 1  
    41    6   37 1  
    42    6   38 1  
    43    6   39 1  
    44    8   40 1  
    45   14   41 1  
    46   15   42 1  
    47   15   43 1  
    48   16   44 1  
    49   16   45 1  
    50   17   46 1  
    51   17   47 1  
    52   18   48 1  
    53   18   49 1  
    54   21   50 1  
    55   24   51 1  
    56   26   52 1  
    57   27   53 1  
    58   29   54 1  
    59   29   55 1  
    60   30   56 1  
    61   30   57 1  
    62   31   58 1  
    63   31   59 1  
    64   32   60 1  
    65   32   61 1  
    66   33   62 1  
    67   33   63 1  
@<TRIPOS>SUBSTRUCTURE
     1 LQQ         1

