### 
### Created by X-TOOL on Mon Sep 10 21:12:54 2018
### 

@<TRIPOS>MOLECULE
2euk_ligand
  148   148     1     0     0
SMALL
GAST_HUCK


@<TRIPOS>ATOM
      1 C1         22.9440    0.3820   18.4070 C.3       1 GAL         0.1880
      2 C2         22.3620    1.7500   18.7720 C.3       1 GAL         0.1341
      3 C3         22.9670    2.8400   17.8780 C.3       1 GAL         0.1141
      4 C4         24.4950    2.7710   17.9010 C.3       1 GAL         0.1119
      5 C5         24.9290    1.3390   17.5850 C.3       1 GAL         0.1130
      6 C6         26.4600    1.1890   17.5770 C.3       1 GAL         0.0730
      7 O1         22.4330   -0.6140   19.2390 O.3       1 GAL        -0.3462
      8 O2         20.9690    1.6330   18.5890 O.3       1 GAL        -0.3841
      9 O3         22.5800    4.1150   18.3260 O.3       1 GAL        -0.3864
     10 O4         24.9290    3.2090   19.1820 O.3       1 GAL        -0.3865
     11 O5         24.3610    0.3760   18.4500 O.3       1 GAL        -0.3405
     12 O6         26.7980   -0.0570   17.0080 O.3       1 GAL        -0.3924
     13 C1         22.5430   -1.9210   18.9120 C.3       1 SPH         0.0777
     14 C2         21.4580   -2.7260   19.6430 C.3       1 SPH         0.0976
     15 N2         20.2080   -2.1710   19.1540 N.am      1 SPH        -0.2775
     16 C3         21.6100   -2.7330   21.1680 C.3       1 SPH         0.0976
     17 O3         22.9700   -3.1580   21.4710 O.3       1 SPH        -0.3805
     18 C4         20.5050   -3.4670   21.9490 C.2       1 SPH        -0.0683
     19 C5         19.6100   -2.9400   22.8050 C.2       1 SPH        -0.0962
     20 C6         18.8220   -3.6810   23.9110 C.3       1 SPH        -0.0364
     21 C7         19.5360   -4.0160   25.2410 C.3       1 SPH        -0.0464
     22 C8         20.2940   -5.3550   25.2850 C.3       1 SPH        -0.0515
     23 C9         21.4780   -5.5950   26.2390 C.3       1 SPH        -0.0529
     24 C10        21.1910   -6.2560   27.5870 C.3       1 SPH        -0.0531
     25 C11        22.3290   -6.2750   28.6070 C.3       1 SPH        -0.0531
     26 C12        21.8130   -6.2850   30.0520 C.3       1 SPH        -0.0531
     27 C13        22.7550   -7.0200   31.0020 C.3       1 SPH        -0.0531
     28 C14        22.2460   -6.9310   32.4370 C.3       1 SPH        -0.0531
     29 C15        22.9400   -7.9170   33.3740 C.3       1 SPH        -0.0531
     30 C16        22.0390   -8.4240   34.5050 C.3       1 SPH        -0.0533
     31 C17        21.8510   -7.4530   35.6670 C.3       1 SPH        -0.0559
     32 C18        23.0180   -7.4760   36.6280 C.3       1 SPH        -0.0653
     33 O1         19.2810   -4.0820   18.4610 O.2       1 NER        -0.3971
     34 C1         19.1730   -2.6640   18.6320 C.2       1 NER         0.1765
     35 C2         17.7300   -2.2560   18.3480 C.3       1 NER         0.0372
     36 C3         16.8080   -2.6880   19.4810 C.3       1 NER        -0.0361
     37 C4         15.3860   -2.4750   18.9610 C.3       1 NER        -0.0510
     38 C5         14.3700   -3.2530   19.7830 C.3       1 NER        -0.0529
     39 C6         13.0000   -3.2600   19.0950 C.3       1 NER        -0.0531
     40 C7         11.9520   -3.7930   20.0560 C.3       1 NER        -0.0531
     41 C8         12.4310   -5.1340   20.5860 C.3       1 NER        -0.0531
     42 C9         11.4350   -5.6630   21.6070 C.3       1 NER        -0.0531
     43 C10        11.9150   -7.0470   22.0520 C.3       1 NER        -0.0531
     44 C11        11.1970   -7.5120   23.3150 C.3       1 NER        -0.0529
     45 C12        10.8680   -8.9990   23.2220 C.3       1 NER        -0.0515
     46 C13        10.1790   -9.5630   24.4630 C.3       1 NER        -0.0464
     47 C14         8.7170   -9.1460   24.6500 C.3       1 NER        -0.0365
     48 C15         7.8080   -9.5870   23.5030 C.2       1 NER        -0.0987
     49 C16         6.8440   -8.8750   22.9090 C.2       1 NER        -0.0987
     50 C17         6.3930   -7.4500   23.1970 C.3       1 NER        -0.0365
     51 C18         6.5540   -6.5960   21.9490 C.3       1 NER        -0.0464
     52 C19         5.9860   -5.1940   22.1450 C.3       1 NER        -0.0515
     53 C20         6.6160   -4.2000   21.1770 C.3       1 NER        -0.0529
     54 C21         5.5630   -3.2700   20.5940 C.3       1 NER        -0.0531
     55 C22         5.5360   -1.8910   21.2410 C.3       1 NER        -0.0533
     56 C23         4.2800   -1.1540   20.7920 C.3       1 NER        -0.0559
     57 C24         4.6250    0.0250   19.9050 C.3       1 NER        -0.0653
     58 H1         22.6382    0.1539   17.3753 H         1 GAL         0.0937
     59 H2         22.5817    1.9876   19.8233 H         1 GAL         0.0671
     60 H3         22.6115    2.6923   16.8476 H         1 GAL         0.0648
     61 H4         24.9091    3.4428   17.1348 H         1 GAL         0.0647
     62 H5         24.5699    1.1159   16.5695 H         1 GAL         0.0647
     63 H6         26.8405    1.2387   18.6079 H         1 GAL         0.0584
     64 H7         26.9066    1.9991   16.9818 H         1 GAL         0.0584
     65 H8         20.6323    0.9505   19.1576 H         1 GAL         0.2101
     66 H9         21.6321    4.1777   18.3189 H         1 GAL         0.2100
     67 H10        25.8777    3.1776   19.2216 H         1 GAL         0.2100
     68 H11        26.4674   -0.0977   16.1183 H         1 GAL         0.2095
     69 H12        23.5357   -2.2906   19.2084 H         1 GAL         0.0586
     70 H13        22.4172   -2.0388   17.8256 H         1 GAL         0.0586
     71 H14        21.5217   -3.7750   19.3180 H         1 GAL         0.0625
     72 H15        20.1579   -1.1773   19.2539 H         1 GAL         0.1857
     73 H16        21.5329   -1.6842   21.4905 H         1 GAL         0.0742
     74 H17        23.5854   -2.5501   21.0785 H         1 GAL         0.2127
     75 H18        20.4396   -4.5423   21.7897 H         1 GAL         0.0476
     76 H19        19.4191   -1.8722   22.7082 H         1 GAL         0.0451
     77 H20        18.4790   -4.6332   23.4801 H         1 GAL         0.0388
     78 H21        17.9514   -3.0567   24.1605 H         1 GAL         0.0388
     79 H22        18.7753   -4.0344   26.0353 H         1 GAL         0.0285
     80 H23        20.2599   -3.2134   25.4451 H         1 GAL         0.0285
     81 H24        20.6795   -5.5233   24.2686 H         1 GAL         0.0267
     82 H25        19.5452   -6.1241   25.5252 H         1 GAL         0.0267
     83 H26        21.9353   -4.6161   26.4455 H         1 GAL         0.0265
     84 H27        22.2008   -6.2329   25.7093 H         1 GAL         0.0265
     85 H28        20.9042   -7.2996   27.3905 H         1 GAL         0.0265
     86 H29        20.3444   -5.7230   28.0444 H         1 GAL         0.0265
     87 H30        22.9517   -5.3803   28.4596 H         1 GAL         0.0265
     88 H31        22.9374   -7.1764   28.4420 H         1 GAL         0.0265
     89 H32        20.8318   -6.7819   30.0732 H         1 GAL         0.0265
     90 H33        21.7052   -5.2457   30.3957 H         1 GAL         0.0265
     91 H34        23.7547   -6.5648   30.9440 H         1 GAL         0.0265
     92 H35        22.8158   -8.0773   30.7048 H         1 GAL         0.0265
     93 H36        21.1667   -7.1431   32.4407 H         1 GAL         0.0265
     94 H37        22.4205   -5.9106   32.8090 H         1 GAL         0.0265
     95 H38        23.8120   -7.4174   33.8212 H         1 GAL         0.0265
     96 H39        23.2760   -8.7815   32.7827 H         1 GAL         0.0265
     97 H40        22.4796   -9.3501   34.9027 H         1 GAL         0.0265
     98 H41        21.0483   -8.6424   34.0797 H         1 GAL         0.0265
     99 H42        20.9370   -7.7282   36.2137 H         1 GAL         0.0263
    100 H43        21.7447   -6.4351   35.2639 H         1 GAL         0.0263
    101 H44        22.8348   -6.7619   37.4444 H         1 GAL         0.0230
    102 H45        23.9379   -7.1948   36.0945 H         1 GAL         0.0230
    103 H46        23.1303   -8.4879   37.0444 H         1 GAL         0.0230
    104 H47        17.3988   -2.7320   17.4133 H         1 GAL         0.0502
    105 H48        17.6798   -1.1624   18.2404 H         1 GAL         0.0502
    106 H49        16.9854   -2.0730   20.3756 H         1 GAL         0.0290
    107 H50        16.9720   -3.7477   19.7261 H         1 GAL         0.0290
    108 H51        15.3334   -2.8123   17.9153 H         1 GAL         0.0267
    109 H52        15.1429   -1.4035   19.0133 H         1 GAL         0.0267
    110 H53        14.2732   -2.7843   20.7734 H         1 GAL         0.0265
    111 H54        14.7194   -4.2894   19.9003 H         1 GAL         0.0265
    112 H55        13.0408   -3.9034   18.2038 H         1 GAL         0.0265
    113 H56        12.7351   -2.2352   18.7956 H         1 GAL         0.0265
    114 H57        10.9949   -3.9214   19.5293 H         1 GAL         0.0265
    115 H58        11.8197   -3.0887   20.8905 H         1 GAL         0.0265
    116 H59        13.4139   -5.0092   21.0638 H         1 GAL         0.0265
    117 H60        12.5160   -5.8478   19.7534 H         1 GAL         0.0265
    118 H61        10.4370   -5.7414   21.1510 H         1 GAL         0.0265
    119 H62        11.3905   -4.9858   22.4727 H         1 GAL         0.0265
    120 H63        12.9958   -7.0026   22.2518 H         1 GAL         0.0265
    121 H64        11.7206   -7.7687   21.2449 H         1 GAL         0.0265
    122 H65        10.2642   -6.9410   23.4329 H         1 GAL         0.0265
    123 H66        11.8460   -7.3381   24.1859 H         1 GAL         0.0265
    124 H67        11.8063   -9.5516   23.0665 H         1 GAL         0.0267
    125 H68        10.2044   -9.1528   22.3583 H         1 GAL         0.0267
    126 H69        10.7429   -9.2279   25.3460 H         1 GAL         0.0285
    127 H70        10.2134  -10.6607   24.4008 H         1 GAL         0.0285
    128 H71         8.6743   -8.0495   24.7267 H         1 GAL         0.0388
    129 H72         8.3434   -9.5937   25.5827 H         1 GAL         0.0388
    130 H73         7.9630  -10.5969   23.1261 H         1 GAL         0.0450
    131 H74         6.3083   -9.3848   22.1096 H         1 GAL         0.0450
    132 H75         7.0058   -7.0300   24.0083 H         1 GAL         0.0388
    133 H76         5.3360   -7.4560   23.5013 H         1 GAL         0.0388
    134 H77         6.0254   -7.0809   21.1151 H         1 GAL         0.0285
    135 H78         7.6242   -6.5160   21.7079 H         1 GAL         0.0285
    136 H79         6.1874   -4.8668   23.1757 H         1 GAL         0.0267
    137 H80         4.8997   -5.2206   21.9744 H         1 GAL         0.0267
    138 H81         7.1018   -4.7521   20.3590 H         1 GAL         0.0265
    139 H82         7.3678   -3.6021   21.7130 H         1 GAL         0.0265
    140 H83         4.5757   -3.7359   20.7288 H         1 GAL         0.0265
    141 H84         5.7662   -3.1455   19.5201 H         1 GAL         0.0265
    142 H85         6.4262   -1.3225   20.9339 H         1 GAL         0.0265
    143 H86         5.5288   -1.9978   22.3358 H         1 GAL         0.0265
    144 H87         3.7409   -0.7901   21.6791 H         1 GAL         0.0263
    145 H88         3.6371   -1.8487   20.2316 H         1 GAL         0.0263
    146 H89         3.7004    0.5356   19.5978 H         1 GAL         0.0230
    147 H90         5.1606   -0.3316   19.0129 H         1 GAL         0.0230
    148 H91         5.2643    0.7270   20.4604 H         1 GAL         0.0230
@<TRIPOS>BOND
     1    1    2 1  
     2    1    7 1  
     3    1   11 1  
     4    2    3 1  
     5    2    8 1  
     6    3    4 1  
     7    3    9 1  
     8    4    5 1  
     9    4   10 1  
    10    5    6 1  
    11    5   11 1  
    12    6   12 1  
    13    7   13 1  
    14   13   14 1  
    15   14   15 1  
    16   14   16 1  
    17   15   34 am 
    18   16   17 1  
    19   16   18 1  
    20   18   19 2  
    21   19   20 1  
    22   20   21 1  
    23   21   22 1  
    24   22   23 1  
    25   23   24 1  
    26   24   25 1  
    27   25   26 1  
    28   26   27 1  
    29   27   28 1  
    30   28   29 1  
    31   29   30 1  
    32   30   31 1  
    33   31   32 1  
    34   34   33 2  
    35   34   35 1  
    36   35   36 1  
    37   36   37 1  
    38   37   38 1  
    39   38   39 1  
    40   39   40 1  
    41   40   41 1  
    42   41   42 1  
    43   42   43 1  
    44   43   44 1  
    45   44   45 1  
    46   45   46 1  
    47   46   47 1  
    48   47   48 1  
    49   48   49 2  
    50   49   50 1  
    51   50   51 1  
    52   51   52 1  
    53   52   53 1  
    54   53   54 1  
    55   54   55 1  
    56   55   56 1  
    57   56   57 1  
    58    1   58 1  
    59    2   59 1  
    60    3   60 1  
    61    4   61 1  
    62    5   62 1  
    63    6   63 1  
    64    6   64 1  
    65    8   65 1  
    66    9   66 1  
    67   10   67 1  
    68   12   68 1  
    69   13   69 1  
    70   13   70 1  
    71   14   71 1  
    72   15   72 1  
    73   16   73 1  
    74   17   74 1  
    75   18   75 1  
    76   19   76 1  
    77   20   77 1  
    78   20   78 1  
    79   21   79 1  
    80   21   80 1  
    81   22   81 1  
    82   22   82 1  
    83   23   83 1  
    84   23   84 1  
    85   24   85 1  
    86   24   86 1  
    87   25   87 1  
    88   25   88 1  
    89   26   89 1  
    90   26   90 1  
    91   27   91 1  
    92   27   92 1  
    93   28   93 1  
    94   28   94 1  
    95   29   95 1  
    96   29   96 1  
    97   30   97 1  
    98   30   98 1  
    99   31   99 1  
   100   31  100 1  
   101   32  101 1  
   102   32  102 1  
   103   32  103 1  
   104   35  104 1  
   105   35  105 1  
   106   36  106 1  
   107   36  107 1  
   108   37  108 1  
   109   37  109 1  
   110   38  110 1  
   111   38  111 1  
   112   39  112 1  
   113   39  113 1  
   114   40  114 1  
   115   40  115 1  
   116   41  116 1  
   117   41  117 1  
   118   42  118 1  
   119   42  119 1  
   120   43  120 1  
   121   43  121 1  
   122   44  122 1  
   123   44  123 1  
   124   45  124 1  
   125   45  125 1  
   126   46  126 1  
   127   46  127 1  
   128   47  128 1  
   129   47  129 1  
   130   48  130 1  
   131   49  131 1  
   132   50  132 1  
   133   50  133 1  
   134   51  134 1  
   135   51  135 1  
   136   52  136 1  
   137   52  137 1  
   138   53  138 1  
   139   53  139 1  
   140   54  140 1  
   141   54  141 1  
   142   55  142 1  
   143   55  143 1  
   144   56  144 1  
   145   56  145 1  
   146   57  146 1  
   147   57  147 1  
   148   57  148 1  
@<TRIPOS>SUBSTRUCTURE
     1 GAL         1

