### 
### Created by X-TOOL on Mon Sep 10 21:12:54 2018
### 

@<TRIPOS>MOLECULE
2evc_ligand
   24    25     1     0     0
SMALL
GAST_HUCK


@<TRIPOS>ATOM
      1 OA         -1.6830   -0.9390    8.3740 O.3       1 FC3        -0.2301
      2 CA         -0.5820   -0.6950    9.1100 C.2       1 FC3         0.1689
      3 C           0.7450   -0.5010    8.5280 C.2       1 FC3         0.1063
      4 OB          0.8660   -0.5700    7.2870 O.co2     1 FC3        -0.5561
      5 CB         -0.9390   -0.6680   10.4390 C.2       1 FC3        -0.0237
      6 CG         -2.3350   -0.9150   10.4910 C.2       1 FC3        -0.0271
      7 CD         -2.7590   -1.0760    9.1830 C.2       1 FC3         0.1520
      8 OXT         1.7320   -0.2750    9.2490 O.co2     1 FC3        -0.5561
      9 C1         -4.1290   -1.3610    8.6670 C.ar      1 FC3         0.0397
     10 C2         -5.3160   -0.5850    8.9970 C.ar      1 FC3         0.0385
     11 C3         -6.5800   -0.9380    8.4480 C.ar      1 FC3        -0.0398
     12 C4         -6.7100   -2.0430    7.5750 C.ar      1 FC3        -0.0383
     13 C5         -5.5770   -2.8140    7.2360 C.ar      1 FC3        -0.0390
     14 C6         -4.3070   -2.4760    7.7750 C.ar      1 FC3        -0.0276
     15 CL1        -5.2580    0.6140    9.9210 C.3       1 FC3         0.3557
     16 F1         -4.2430    1.3850    9.5890 F         1 FC3        -0.2414
     17 F2         -6.3780    1.3030    9.8170 F         1 FC3        -0.2414
     18 F3         -5.1000    0.1940   11.1560 F         1 FC3        -0.2414
     19 H1         -0.2780   -0.4913   11.2863 H         1 FC3         0.0484
     20 H2         -2.9531   -0.9677   11.3860 H         1 FC3         0.0551
     21 H3         -7.4557   -0.3519    8.7023 H         1 FC3         0.0808
     22 H4         -7.6807   -2.2983    7.1657 H         1 FC3         0.0674
     23 H5         -5.6759   -3.6610    6.5667 H         1 FC3         0.0817
     24 H6         -3.4455   -3.0764    7.5061 H         1 FC3         0.0678
@<TRIPOS>BOND
     1    1    2 1  
     2    1    7 1  
     3    2    3 1  
     4    2    5 2  
     5    3    4 ar 
     6    3    8 ar 
     7    5    6 1  
     8    6    7 2  
     9    7    9 1  
    10    9   10 ar 
    11    9   14 ar 
    12   10   11 ar 
    13   10   15 1  
    14   11   12 ar 
    15   12   13 ar 
    16   13   14 ar 
    17   15   16 1  
    18   15   17 1  
    19   15   18 1  
    20    5   19 1  
    21    6   20 1  
    22   11   21 1  
    23   12   22 1  
    24   13   23 1  
    25   14   24 1  
@<TRIPOS>SUBSTRUCTURE
     1 FC3         1

