### 
### Created by X-TOOL on Mon Sep 10 21:12:54 2018
### 

@<TRIPOS>MOLECULE
2evm_ligand
   21    22     1     0     0
SMALL
GAST_HUCK


@<TRIPOS>ATOM
      1 OA         -1.7070   -0.8130    8.3700 O.3       1 FC2        -0.2487
      2 CA         -0.6130   -0.5690    9.1090 C.2       1 FC2         0.1495
      3 C           0.7290   -0.4710    8.5280 C.2       1 FC2         0.0931
      4 OB          0.8520   -0.6230    7.2880 O.co2     1 FC2        -0.5608
      5 CB         -1.0000   -0.4430   10.4300 C.2       1 FC2        -0.0448
      6 CG         -2.4190   -0.6300   10.4580 C.2       1 FC2        -0.0487
      7 CD         -2.8070   -0.8550    9.1550 C.2       1 FC2         0.1250
      8 OXT         1.7290   -0.2460    9.2360 O.co2     1 FC2        -0.5608
      9 C1         -4.1450   -1.1170    8.5930 C.ar      1 FC2         0.0254
     10 C2         -5.3680   -0.5780    9.1260 C.ar      1 FC2         0.0481
     11 C3         -6.5990   -0.9010    8.4890 C.ar      1 FC2        -0.0493
     12 C4         -6.6170   -1.7440    7.3370 C.ar      1 FC2        -0.0496
     13 C5         -5.4070   -2.2650    6.8180 C.ar      1 FC2         0.0387
     14 C6         -4.1820   -1.9550    7.4420 C.ar      1 FC2        -0.0398
     15 CL1        -5.3810    0.4410   10.4970 Cl        1 FC2        -0.0711
     16 CL2        -5.4010   -3.2710    5.4330 Cl        1 FC2        -0.0712
     17 H1         -0.3526   -0.2411   11.2821 H         1 FC2         0.0419
     18 H2         -3.0639   -0.6003   11.3350 H         1 FC2         0.0398
     19 H3         -7.5286   -0.5045    8.8809 H         1 FC2         0.0617
     20 H4         -7.5592   -1.9858    6.8585 H         1 FC2         0.0604
     21 H5         -3.2588   -2.3584    7.0420 H         1 FC2         0.0611
@<TRIPOS>BOND
     1    1    2 1  
     2    1    7 1  
     3    2    3 1  
     4    2    5 2  
     5    3    4 ar 
     6    3    8 ar 
     7    5    6 1  
     8    6    7 2  
     9    7    9 1  
    10    9   10 ar 
    11    9   14 ar 
    12   10   11 ar 
    13   10   15 1  
    14   11   12 ar 
    15   12   13 ar 
    16   13   14 ar 
    17   13   16 1  
    18    5   17 1  
    19    6   18 1  
    20   11   19 1  
    21   12   20 1  
    22   14   21 1  
@<TRIPOS>SUBSTRUCTURE
     1 FC2         1

