### 
### Created by X-TOOL on Sun Sep  9 21:50:28 2018
### 

@<TRIPOS>MOLECULE
2evo_ligand
   29    30     1     0     0
SMALL
GAST_HUCK


@<TRIPOS>ATOM
      1 O           8.1480   -0.2440   73.8210 O.2       1 NON        -0.3410
      2 C1          8.3050   -0.4570   72.5990 C.2       1 NON         0.3233
      3 N2          9.2150    0.2700   71.8470 N.am      1 NON        -0.1825
      4 C3          9.9890    1.2540   72.3700 C.2       1 NON         0.2068
      5 N          10.8820    1.9860   71.6980 N.2       1 NON        -0.3229
      6 S          10.0100    1.7810   73.9600 S.3       1 NON         0.0113
      7 C5         11.1680    2.9650   73.8200 C.2       1 NON        -0.0077
      8 C4         11.5570    2.9520   72.4880 C.2       1 NON        -0.0464
      9 O2          7.6440   -1.7260   70.7170 O.2       1 NON        -0.3578
     10 C6          7.4940   -1.5100   71.9340 C.2       1 NON         0.2932
     11 N7          6.5890   -2.2280   72.6770 N.am      1 NON        -0.2716
     12 C8          5.7520   -3.2800   72.0740 C.3       1 NON         0.0429
     13 C9          6.0670   -4.7380   72.4580 C.3       1 NON        -0.0297
     14 C10         4.2490   -3.2100   72.3850 C.3       1 NON        -0.0297
     15 C11         4.0900   -3.9810   73.7040 C.3       1 NON        -0.0509
     16 C12         5.2700   -4.9710   73.7570 C.3       1 NON        -0.0509
     17 H1          9.3051    0.0593   70.8736 H         1 NON         0.2424
     18 H2         11.5432    3.6153   74.6089 H         1 NON         0.0574
     19 H3         12.3134    3.6238   72.0848 H         1 NON         0.0498
     20 H4          6.4957   -2.0315   73.6531 H         1 NON         0.1868
     21 H5          5.8878   -3.1736   70.9876 H         1 NON         0.0558
     22 H6          7.1448   -4.8706   72.6332 H         1 NON         0.0288
     23 H7          5.7361   -5.4290   71.6687 H         1 NON         0.0288
     24 H8          3.6641   -3.6859   71.5841 H         1 NON         0.0288
     25 H9          3.9253   -2.1655   72.5043 H         1 NON         0.0288
     26 H10         3.1336   -4.5242   73.7172 H         1 NON         0.0266
     27 H11         4.1312   -3.2900   74.5589 H         1 NON         0.0266
     28 H12         5.9006   -4.7697   74.6355 H         1 NON         0.0266
     29 H13         4.9007   -6.0062   73.8002 H         1 NON         0.0266
@<TRIPOS>BOND
     1    1    2 2  
     2    2    3 am 
     3    2   10 1  
     4    3    4 1  
     5    4    5 2  
     6    4    6 1  
     7    5    8 1  
     8    6    7 1  
     9    7    8 2  
    10   10    9 2  
    11   10   11 am 
    12   11   12 1  
    13   12   13 1  
    14   12   14 1  
    15   13   16 1  
    16   14   15 1  
    17   15   16 1  
    18    3   17 1  
    19    7   18 1  
    20    8   19 1  
    21   11   20 1  
    22   12   21 1  
    23   13   22 1  
    24   13   23 1  
    25   14   24 1  
    26   14   25 1  
    27   15   26 1  
    28   15   27 1  
    29   16   28 1  
    30   16   29 1  
@<TRIPOS>SUBSTRUCTURE
     1 NON         1

