### 
### Created by X-TOOL on Mon Sep 10 21:12:54 2018
### 

@<TRIPOS>MOLECULE
2ew5_ligand
   48    49     1     0     0
SMALL
GAST_HUCK


@<TRIPOS>ATOM
      1 C2        -74.4280  -66.8300   56.4590 C.ar      1 Y12        -0.0687
      2 C3        -75.5880  -67.6330   56.6460 C.ar      1 Y12        -0.0686
      3 C4        -76.8750  -67.0260   56.7000 C.ar      1 Y12        -0.0603
      4 C5        -77.0170  -65.6160   56.5700 C.ar      1 Y12        -0.0411
      5 C7        -78.4160  -64.9790   56.6230 C.3       1 Y12         0.0010
      6 C8        -79.2440  -65.5160   55.4410 C.3       1 Y12         0.0392
      7 N9        -78.9060  -64.8820   54.1500 N.am      1 Y12        -0.2876
      8 C10       -79.5560  -65.3170   53.0320 C.2       1 Y12         0.1871
      9 O27       -80.3970  -66.2240   53.1270 O.2       1 Y12        -0.3938
     10 C11       -79.2790  -64.7070   51.6880 C.2       1 Y12         0.0047
     11 C12       -79.8960  -65.1140   50.5320 C.2       1 Y12        -0.0482
     12 C13       -79.7640  -64.4780   49.1260 C.ar      1 Y12        -0.0315
     13 C18       -80.7100  -64.7880   48.0900 C.ar      1 Y12        -0.0226
     14 C17       -80.6520  -64.1710   46.7990 C.ar      1 Y12         0.1619
     15 O23       -81.6310  -64.5190   45.8150 O.3       1 Y12        -0.2160
     16 C24       -82.7120  -63.7130   45.5380 C.2       1 Y12         0.2515
     17 O26       -82.9700  -62.6200   46.0790 O.2       1 Y12        -0.3647
     18 C25       -83.6150  -64.2640   44.4840 C.3       1 Y12         0.0410
     19 C16       -79.6200  -63.2120   46.5170 C.ar      1 Y12         0.1631
     20 O19       -79.5680  -62.5670   45.2400 O.3       1 Y12        -0.2126
     21 C20       -78.7610  -63.0120   44.2500 C.2       1 Y12         0.2534
     22 O22       -78.0240  -63.9750   44.3370 O.2       1 Y12        -0.3639
     23 C21       -78.8320  -62.2120   42.9880 C.3       1 Y12         0.0414
     24 C15       -78.6460  -62.8910   47.5440 C.ar      1 Y12        -0.0283
     25 C14       -78.7290  -63.5250   48.8430 C.ar      1 Y12        -0.0656
     26 C6        -75.8540  -64.8140   56.3860 C.ar      1 Y12        -0.0603
     27 C1        -74.5640  -65.4260   56.3300 C.ar      1 Y12        -0.0686
     28 H1        -73.4472  -67.2896   56.4156 H         1 Y12         0.0559
     29 H2        -75.4917  -68.7079   56.7474 H         1 Y12         0.0599
     30 H3        -77.7546  -67.6436   56.8414 H         1 Y12         0.0557
     31 H4        -78.3285  -63.8851   56.5477 H         1 Y12         0.0445
     32 H5        -78.9081  -65.2431   57.5707 H         1 Y12         0.0445
     33 H6        -80.3085  -65.3343   55.6502 H         1 Y12         0.0541
     34 H7        -79.0668  -66.5982   55.3546 H         1 Y12         0.0541
     35 H8        -78.2210  -64.1554   54.0971 H         1 Y12         0.1836
     36 H9        -78.5506  -63.8997   51.6277 H         1 Y12         0.0612
     37 H10       -80.5511  -65.9802   50.6120 H         1 Y12         0.0728
     38 H11       -81.4918  -65.5113   48.2918 H         1 Y12         0.0554
     39 H12       -84.4513  -63.5690   44.3177 H         1 Y12         0.0485
     40 H13       -84.0074  -65.2385   44.8101 H         1 Y12         0.0485
     41 H14       -83.0515  -64.3903   43.5478 H         1 Y12         0.0485
     42 H15       -78.1475  -62.6423   42.2421 H         1 Y12         0.0485
     43 H16       -78.5404  -61.1720   43.1962 H         1 Y12         0.0485
     44 H17       -79.8601  -62.2335   42.5976 H         1 Y12         0.0485
     45 H18       -77.8567  -62.1769   47.3386 H         1 Y12         0.0543
     46 H19       -78.0027  -63.2776   49.6088 H         1 Y12         0.0553
     47 H20       -75.9478  -63.7385   56.2884 H         1 Y12         0.0557
     48 H21       -73.6827  -64.8111   56.1877 H         1 Y12         0.0599
@<TRIPOS>BOND
     1    1    2 ar 
     2    1   27 ar 
     3    2    3 ar 
     4    3    4 ar 
     5    4    5 1  
     6    4   26 ar 
     7    5    6 1  
     8    6    7 1  
     9    7    8 am 
    10    8    9 2  
    11    8   10 1  
    12   10   11 2  
    13   11   12 1  
    14   12   13 ar 
    15   12   25 ar 
    16   13   14 ar 
    17   14   15 1  
    18   14   19 ar 
    19   15   16 1  
    20   16   17 2  
    21   16   18 1  
    22   19   20 1  
    23   19   24 ar 
    24   20   21 1  
    25   21   22 2  
    26   21   23 1  
    27   24   25 ar 
    28   26   27 ar 
    29    1   28 1  
    30    2   29 1  
    31    3   30 1  
    32    5   31 1  
    33    5   32 1  
    34    6   33 1  
    35    6   34 1  
    36    7   35 1  
    37   10   36 1  
    38   11   37 1  
    39   13   38 1  
    40   18   39 1  
    41   18   40 1  
    42   18   41 1  
    43   23   42 1  
    44   23   43 1  
    45   23   44 1  
    46   24   45 1  
    47   25   46 1  
    48   26   47 1  
    49   27   48 1  
@<TRIPOS>SUBSTRUCTURE
     1 Y12         1

