### 
### Created by X-TOOL on Mon Sep 10 21:12:54 2018
### 

@<TRIPOS>MOLECULE
2ew6_ligand
   39    40     1     0     0
SMALL
GAST_HUCK


@<TRIPOS>ATOM
      1 C2        -53.5650  -92.9760  101.8340 C.ar      1 Y13         0.0805
      2 O16       -52.2630  -93.4760  101.7900 O.3       1 Y13        -0.3376
      3 C1        -53.8990  -91.7290  101.2340 C.ar      1 Y13        -0.0398
      4 C6        -55.2320  -91.2440  101.2920 C.ar      1 Y13        -0.0687
      5 C5        -56.2470  -91.9960  101.9500 C.ar      1 Y13        -0.0518
      6 C7        -57.6850  -91.4660  102.0040 C.3       1 Y13        -0.0041
      7 C8        -58.5160  -92.0950  100.8640 C.3       1 Y13         0.0378
      8 N9        -58.1290  -91.4580   99.6030 N.am      1 Y13        -0.2879
      9 C10       -58.7450  -91.8940   98.5500 C.2       1 Y13         0.1868
     10 C11       -58.3820  -91.2670   97.2450 C.2       1 Y13         0.0042
     11 C12       -58.9350  -91.6130   96.0560 C.2       1 Y13        -0.0490
     12 C13       -58.6220  -91.0030   94.6880 C.ar      1 Y13        -0.0334
     13 C14       -59.2490  -91.5870   93.5430 C.ar      1 Y13        -0.0674
     14 C15       -59.0130  -91.0730   92.2360 C.ar      1 Y13        -0.0344
     15 C16       -58.1410  -89.9590   92.0430 C.ar      1 Y13         0.1230
     16 O19       -57.8990  -89.4420   90.7530 O.3       1 Y13        -0.3322
     17 C17       -57.5040  -89.3610   93.1800 C.ar      1 Y13         0.1216
     18 O23       -56.6500  -88.2720   92.9900 O.3       1 Y13        -0.3357
     19 C18       -57.7460  -89.8830   94.4910 C.ar      1 Y13        -0.0289
     20 O27       -59.6000  -92.7830   98.5750 O.2       1 Y13        -0.3940
     21 C4        -55.9120  -93.2430  102.5520 C.ar      1 Y13        -0.0687
     22 C3        -54.5760  -93.7280  102.4930 C.ar      1 Y13        -0.0398
     23 H1        -52.2309  -94.3125  102.2392 H         1 Y13         0.2458
     24 H2        -53.1337  -91.1484  100.7317 H         1 Y13         0.0525
     25 H3        -55.4792  -90.2941  100.8320 H         1 Y13         0.0530
     26 H4        -57.6759  -90.3721  101.8889 H         1 Y13         0.0424
     27 H5        -58.1353  -91.7291  102.9725 H         1 Y13         0.0424
     28 H6        -59.5873  -91.9292  101.0503 H         1 Y13         0.0538
     29 H7        -58.3159  -93.1753  100.8110 H         1 Y13         0.0538
     30 H8        -57.4376  -90.7369   99.5581 H         1 Y13         0.1835
     31 H9        -57.6262  -90.4830   97.2478 H         1 Y13         0.0608
     32 H10       -59.6793  -92.4077   96.0770 H         1 Y13         0.0727
     33 H11       -59.9138  -92.4335   93.6719 H         1 Y13         0.0545
     34 H12       -59.4987  -91.5307   91.3818 H         1 Y13         0.0531
     35 H13       -57.2989  -88.7081   90.8146 H         1 Y13         0.2472
     36 H14       -56.3078  -87.9891   93.8298 H         1 Y13         0.2443
     37 H15       -57.2612  -89.4263   95.3463 H         1 Y13         0.0540
     38 H16       -56.6765  -93.8233  103.0559 H         1 Y13         0.0530
     39 H17       -54.3270  -94.6772  102.9535 H         1 Y13         0.0525
@<TRIPOS>BOND
     1    1    2 1  
     2    1    3 ar 
     3    1   22 ar 
     4    3    4 ar 
     5    4    5 ar 
     6    5    6 1  
     7    5   21 ar 
     8    6    7 1  
     9    7    8 1  
    10    8    9 am 
    11    9   10 1  
    12    9   20 2  
    13   10   11 2  
    14   11   12 1  
    15   12   13 ar 
    16   12   19 ar 
    17   13   14 ar 
    18   14   15 ar 
    19   15   16 1  
    20   15   17 ar 
    21   17   18 1  
    22   17   19 ar 
    23   21   22 ar 
    24    2   23 1  
    25    3   24 1  
    26    4   25 1  
    27    6   26 1  
    28    6   27 1  
    29    7   28 1  
    30    7   29 1  
    31    8   30 1  
    32   10   31 1  
    33   11   32 1  
    34   13   33 1  
    35   14   34 1  
    36   16   35 1  
    37   18   36 1  
    38   19   37 1  
    39   21   38 1  
    40   22   39 1  
@<TRIPOS>SUBSTRUCTURE
     1 Y13         1

