### 
### Created by X-TOOL on Mon Sep 10 21:12:53 2018
### 

@<TRIPOS>MOLECULE
2ewb_ligand
   39    40     1     0     0
SMALL
GAST_HUCK


@<TRIPOS>ATOM
      1 CZ1        70.8920   50.9340   21.6910 C.ar      1 ZED        -0.0498
      2 CZ2        69.5490   50.6460   21.9880 C.ar      1 ZED         0.0157
      3 CZ3        69.2400   49.4540   22.6750 C.ar      1 ZED        -0.0498
      4 CZ4        70.2630   48.5460   23.0640 C.ar      1 ZED        -0.0678
      5 CZ5        71.6150   48.8420   22.7620 C.ar      1 ZED        -0.0687
      6 CZ6        71.9330   50.0410   22.0750 C.ar      1 ZED        -0.0678
      7 CZ7        66.2400   49.9210   19.6000 C.3       1 ZED         0.0983
      8 CZ8        65.8970   49.4130   21.0150 C.2       1 ZED         0.0603
      9 CZ9        67.7420   49.9840   19.3070 C.3       1 ZED        -0.0019
     10 CZ10       68.1060   51.4100   19.7000 C.3       1 ZED         0.0426
     11 CZ11       66.9760   52.1600   19.0450 C.3       1 ZED         0.0501
     12 CZ12       62.6680   53.2860   19.3200 C.3       1 ZED        -0.0446
     13 CZ13       64.0380   52.9360   18.6940 C.3       1 ZED         0.0548
     14 CZ14       64.4920   51.5100   19.0410 C.2       1 ZED         0.1838
     15 CZ15       64.0020   53.2110   17.1850 C.3       1 ZED         0.0101
     16 OZ1        66.1820   48.2540   21.3310 O.co2     1 ZED        -0.5666
     17 OZ2        65.3420   50.1800   21.8110 O.co2     1 ZED        -0.5666
     18 OZ3        63.6610   50.5940   19.0620 O.2       1 ZED        -0.3964
     19 NZ1        65.8040   51.3010   19.3300 N.am      1 ZED        -0.2560
     20 SZ1        68.2350   51.7890   21.4790 S.3       1 ZED        -0.0961
     21 SZ2        63.0650   52.0510   16.2040 S.3       1 ZED        -0.1756
     22 H1         71.1389   51.8478   21.1627 H         1 ZED         0.0565
     23 H2         68.2066   49.2262   22.9103 H         1 ZED         0.0565
     24 H3         70.0095   47.6321   23.5889 H         1 ZED         0.0600
     25 H4         72.4018   48.1560   23.0543 H         1 ZED         0.0559
     26 H5         72.9652   50.2772   21.8428 H         1 ZED         0.0600
     27 H6         65.7563   49.2394   18.8849 H         1 ZED         0.0728
     28 H7         67.9452   49.8032   18.2412 H         1 ZED         0.0318
     29 H8         68.2948   49.2527   19.9149 H         1 ZED         0.0318
     30 H9         69.0679   51.6811   19.2403 H         1 ZED         0.0459
     31 H10        67.1410   52.2586   17.9619 H         1 ZED         0.0536
     32 H11        66.8529   53.1586   19.4896 H         1 ZED         0.0536
     33 H12        62.3898   54.3134   19.0424 H         1 ZED         0.0257
     34 H13        62.7344   53.2074   20.4152 H         1 ZED         0.0257
     35 H14        61.9052   52.5863   18.9477 H         1 ZED         0.0257
     36 H15        64.7821   53.6185   19.1306 H         1 ZED         0.0543
     37 H16        65.0383   53.2044   16.8163 H         1 ZED         0.0401
     38 H17        63.5656   54.2094   17.0346 H         1 ZED         0.0401
     39 H18        63.1065   52.3225   15.2341 H         1 ZED         0.1018
@<TRIPOS>BOND
     1    2    1 ar 
     2    1    6 ar 
     3    2    3 ar 
     4   20    2 1  
     5    3    4 ar 
     6    4    5 ar 
     7    6    5 ar 
     8    7    8 1  
     9    7    9 1  
    10   19    7 1  
    11    8   16 ar 
    12    8   17 ar 
    13   10    9 1  
    14   11   10 1  
    15   10   20 1  
    16   19   11 1  
    17   13   12 1  
    18   14   13 1  
    19   13   15 1  
    20   14   18 2  
    21   14   19 am 
    22   15   21 1  
    23    1   22 1  
    24    3   23 1  
    25    4   24 1  
    26    5   25 1  
    27    6   26 1  
    28    7   27 1  
    29    9   28 1  
    30    9   29 1  
    31   10   30 1  
    32   11   31 1  
    33   11   32 1  
    34   12   33 1  
    35   12   34 1  
    36   12   35 1  
    37   13   36 1  
    38   15   37 1  
    39   15   38 1  
    40   21   39 1  
@<TRIPOS>SUBSTRUCTURE
     1 ZED         1

