### 
### Created by X-TOOL on Mon Sep 10 21:12:54 2018
### 

@<TRIPOS>MOLECULE
2ewp_ligand
   63    65     1     0     0
SMALL
GAST_HUCK


@<TRIPOS>ATOM
      1 O29        25.1870    3.2040   27.5250 O.3       1 TXF        -0.3333
      2 C26        24.1260    2.5960   28.1510 C.ar      1 TXF         0.0872
      3 C25        23.2560    3.2750   29.0030 C.ar      1 TXF        -0.0340
      4 C24        22.1930    2.5950   29.6160 C.ar      1 TXF        -0.0657
      5 C27        23.9270    1.2480   27.9280 C.ar      1 TXF        -0.0340
      6 C28        22.8770    0.5700   28.5290 C.ar      1 TXF        -0.0657
      7 C23        22.0110    1.2200   29.4030 C.ar      1 TXF        -0.0376
      8 C11        20.8550    0.4410   30.0040 C.2       1 TXF        -0.0248
      9 C12        20.9520   -0.7150   30.7100 C.2       1 TXF        -0.0306
     10 C17        19.7570   -1.4600   31.2430 C.ar      1 TXF        -0.0193
     11 C22        19.4050   -1.4360   32.5730 C.ar      1 TXF        -0.0549
     12 C21        18.3050   -2.1540   33.0290 C.ar      1 TXF        -0.0622
     13 C20        17.5490   -2.9090   32.1470 C.ar      1 TXF        -0.0627
     14 C19        17.9110   -2.9500   30.8080 C.ar      1 TXF        -0.0622
     15 C18        19.0080   -2.2310   30.3600 C.ar      1 TXF        -0.0549
     16 C13        22.2600   -1.4090   30.9980 C.3       1 TXF        -0.0164
     17 C14        22.2880   -2.7960   30.3670 C.3       1 TXF        -0.0195
     18 C15        23.6710   -3.4200   30.5150 C.3       1 TXF         0.0462
     19 O16        24.1060   -3.2970   31.8650 O.3       1 TXF        -0.3948
     20 C8         19.5400    1.1000   29.7570 C.ar      1 TXF        -0.0376
     21 C7         18.7710    1.5010   30.8460 C.ar      1 TXF        -0.0657
     22 C6         17.5620    2.1470   30.6490 C.ar      1 TXF        -0.0338
     23 C9         19.1250    1.3980   28.4670 C.ar      1 TXF        -0.0657
     24 C10        17.9030    2.0450   28.2700 C.ar      1 TXF        -0.0338
     25 C5         17.1250    2.4380   29.3550 C.ar      1 TXF         0.0909
     26 O4         15.9100    3.0620   29.1720 O.3       1 TXF        -0.3129
     27 C3         15.6850    4.3120   28.5400 C.3       1 TXF         0.1102
     28 C2         14.6030    5.0320   29.3380 C.3       1 TXF        -0.0039
     29 N1         13.6650    5.7190   28.4320 N.4       1 TXF         0.2328
     30 C31        12.8230    6.6760   29.1910 C.3       1 TXF        -0.0433
     31 C30        12.8060    4.7430   27.7410 C.3       1 TXF        -0.0433
     32 H1         24.8665    3.9063   26.9714 H         1 TXF         0.2484
     33 H2         23.4015    4.3324   29.1925 H         1 TXF         0.0543
     34 H3         21.5075    3.1355   30.2586 H         1 TXF         0.0575
     35 H4         24.6027    0.7107   27.2723 H         1 TXF         0.0543
     36 H5         22.7287   -0.4822   28.3147 H         1 TXF         0.0575
     37 H6         19.9913   -0.8513   33.2725 H         1 TXF         0.0617
     38 H7         18.0378   -2.1229   34.0791 H         1 TXF         0.0615
     39 H8         16.6850   -3.4611   32.4987 H         1 TXF         0.0609
     40 H9         17.3341   -3.5462   30.1103 H         1 TXF         0.0615
     41 H10        19.2847   -2.2698   29.3126 H         1 TXF         0.0617
     42 H11        22.3848   -1.5057   32.0866 H         1 TXF         0.0439
     43 H12        23.0848   -0.8089   30.5862 H         1 TXF         0.0439
     44 H13        22.0404   -2.7130   29.2984 H         1 TXF         0.0312
     45 H14        21.5462   -3.4364   30.8666 H         1 TXF         0.0312
     46 H15        24.3799   -2.9013   29.8529 H         1 TXF         0.0559
     47 H16        23.6242   -4.4842   30.2406 H         1 TXF         0.0559
     48 H17        24.9678   -3.6863   31.9555 H         1 TXF         0.2094
     49 H18        19.1204    1.3065   31.8535 H         1 TXF         0.0575
     50 H19        16.9535    2.4274   31.5012 H         1 TXF         0.0543
     51 H20        19.7445    1.1307   27.6185 H         1 TXF         0.0575
     52 H21        17.5571    2.2430   27.2619 H         1 TXF         0.0543
     53 H22        15.3485    4.1557   27.5045 H         1 TXF         0.0668
     54 H23        16.6108    4.9060   28.5390 H         1 TXF         0.0668
     55 H24        15.0743    5.7727   30.0007 H         1 TXF         0.0841
     56 H25        14.0502    4.2980   29.9428 H         1 TXF         0.0841
     57 H26        14.1964    6.2284   27.7434 H         1 TXF         0.2029
     58 H27        12.1292    7.1802   28.5022 H         1 TXF         0.0777
     59 H28        13.4659    7.4247   29.6769 H         1 TXF         0.0777
     60 H29        12.2496    6.1328   29.9565 H         1 TXF         0.0777
     61 H30        13.4335    4.0352   27.1794 H         1 TXF         0.0777
     62 H31        12.1367    5.2710   27.0458 H         1 TXF         0.0777
     63 H32        12.2061    4.1935   28.4814 H         1 TXF         0.0777
@<TRIPOS>BOND
     1    1    2 1  
     2    2    3 ar 
     3    2    5 ar 
     4    3    4 ar 
     5    4    7 ar 
     6    5    6 ar 
     7    6    7 ar 
     8    7    8 1  
     9    8    9 2  
    10    8   20 1  
    11    9   10 1  
    12    9   16 1  
    13   10   11 ar 
    14   10   15 ar 
    15   11   12 ar 
    16   12   13 ar 
    17   13   14 ar 
    18   14   15 ar 
    19   16   17 1  
    20   17   18 1  
    21   18   19 1  
    22   20   21 ar 
    23   20   23 ar 
    24   21   22 ar 
    25   22   25 ar 
    26   23   24 ar 
    27   24   25 ar 
    28   25   26 1  
    29   26   27 1  
    30   27   28 1  
    31   28   29 1  
    32   29   30 1  
    33   29   31 1  
    34    1   32 1  
    35    3   33 1  
    36    4   34 1  
    37    5   35 1  
    38    6   36 1  
    39   11   37 1  
    40   12   38 1  
    41   13   39 1  
    42   14   40 1  
    43   15   41 1  
    44   16   42 1  
    45   16   43 1  
    46   17   44 1  
    47   17   45 1  
    48   18   46 1  
    49   18   47 1  
    50   19   48 1  
    51   21   49 1  
    52   22   50 1  
    53   23   51 1  
    54   24   52 1  
    55   27   53 1  
    56   27   54 1  
    57   28   55 1  
    58   28   56 1  
    59   29   57 1  
    60   30   58 1  
    61   30   59 1  
    62   30   60 1  
    63   31   61 1  
    64   31   62 1  
    65   31   63 1  
@<TRIPOS>SUBSTRUCTURE
     1 TXF         1

