### 
### Created by X-TOOL on Mon Sep 10 21:12:54 2018
### 

@<TRIPOS>MOLECULE
2ewy_ligand
   71    75     1     0     0
SMALL
GAST_HUCK


@<TRIPOS>ATOM
      1 N1        107.1910   25.7420    1.6240 N.am      1 DBO        -0.2801
      2 C3        107.8880   26.1820    2.8810 C.3       1 DBO         0.0814
      3 C5        107.0370   27.1410    3.7160 C.3       1 DBO         0.1192
      4 O7        107.7130   27.5260    4.8490 O.3       1 DBO        -0.3841
      5 C9        105.7550   26.5120    4.1790 C.3       1 DBO        -0.0033
      6 N12       104.9630   27.4260    4.9820 N.4       1 DBO         0.2409
      7 C14       104.1060   26.8440    6.0400 C.3       1 DBO        -0.0014
      8 C17       104.7210   25.7210    6.9250 C.ar      1 DBO        -0.0055
      9 C18       105.9330   25.9350    7.8400 C.ar      1 DBO        -0.0544
     10 C20       106.4990   24.8120    8.6880 C.ar      1 DBO        -0.0527
     11 C21       105.8360   23.4350    8.6220 C.ar      1 DBO        -0.0675
     12 C23       104.6230   23.2080    7.7090 C.ar      1 DBO        -0.0750
     13 C25       104.0760   24.3490    6.8710 C.ar      1 DBO        -0.0622
     14 C27       107.7270   25.0800    9.5990 C.3       1 DBO        -0.0327
     15 C31       109.2070   26.7720    2.4010 C.3       1 DBO         0.0065
     16 C34       110.0880   25.8130    1.5740 C.ar      1 DBO        -0.0408
     17 C35       110.7600   26.3290    0.3420 C.ar      1 DBO        -0.0603
     18 C37       111.6410   25.4220   -0.5050 C.ar      1 DBO        -0.0686
     19 C39       111.8280   23.9860   -0.0810 C.ar      1 DBO        -0.0687
     20 C41       111.1550   23.4710    1.1530 C.ar      1 DBO        -0.0686
     21 C43       110.3080   24.3500    1.9640 C.ar      1 DBO        -0.0603
     22 C45       106.5330   24.5220    1.4260 C.2       1 DBO         0.1991
     23 O46       106.4450   23.6250    2.3010 O.2       1 DBO        -0.3895
     24 C47       105.8990   24.2200    0.1560 C.2       1 DBO         0.0514
     25 C48       104.5530   23.8510    0.1950 C.2       1 DBO        -0.0341
     26 C50       103.6850   23.4850   -0.9760 C.ar      1 DBO         0.0205
     27 C51       103.8370   24.1910   -2.3400 C.ar      1 DBO         0.1295
     28 C52       102.9800   23.8200   -3.4690 C.ar      1 DBO        -0.0241
     29 C54       101.9740   22.7690   -3.2870 C.ar      1 DBO        -0.0673
     30 C56       101.8210   22.0760   -1.9530 C.ar      1 DBO        -0.0691
     31 C58       102.6880   22.4450   -0.7970 C.ar      1 DBO        -0.0573
     32 O60       104.8060   25.2120   -2.5160 O.3       1 DBO        -0.2531
     33 C61       106.1290   24.8240   -2.5070 C.ar      1 DBO         0.1253
     34 C62       106.7690   24.3140   -1.2080 C.ar      1 DBO         0.0235
     35 C63       108.2210   23.9150   -1.2970 C.ar      1 DBO        -0.0621
     36 C65       108.9950   24.0190   -2.6100 C.ar      1 DBO        -0.0732
     37 C67       108.3240   24.5270   -3.8660 C.ar      1 DBO        -0.0710
     38 C69       106.8800   24.9290   -3.8030 C.ar      1 DBO        -0.0283
     39 H1        107.1979   26.3819    0.8556 H         1 DBO         0.1845
     40 H2        108.0987   25.3016    3.5059 H         1 DBO         0.0605
     41 H3        106.8071   28.0257    3.1041 H         1 DBO         0.0672
     42 H4        108.5189   27.9642    4.6020 H         1 DBO         0.2101
     43 H5        105.9924   25.6231    4.7819 H         1 DBO         0.0840
     44 H6        105.1678   26.2118    3.2986 H         1 DBO         0.0840
     45 H7        104.3618   27.9358    4.3537 H         1 DBO         0.2029
     46 H8        105.6014   28.0653    5.4290 H         1 DBO         0.2029
     47 H9        103.2146   26.4260    5.5494 H         1 DBO         0.0979
     48 H10       103.8058   27.6638    6.7092 H         1 DBO         0.0979
     49 H11       106.3970   26.9138    7.8818 H         1 DBO         0.0496
     50 H12       106.2232   22.6185    9.2207 H         1 DBO         0.0499
     51 H13       104.1562   22.2308    7.6627 H         1 DBO         0.0582
     52 H14       103.2183   24.1824    6.2293 H         1 DBO         0.0501
     53 H15       108.0404   26.1290    9.4926 H         1 DBO         0.0390
     54 H16       108.5544   24.4183    9.3031 H         1 DBO         0.0390
     55 H17       107.4563   24.8827   10.6467 H         1 DBO         0.0390
     56 H18       109.7817   27.0867    3.2846 H         1 DBO         0.0449
     57 H19       108.9814   27.6503    1.7784 H         1 DBO         0.0449
     58 H20       110.6178   27.3627    0.0482 H         1 DBO         0.0557
     59 H21       112.1258   25.8010   -1.3974 H         1 DBO         0.0599
     60 H22       112.4518   23.3251   -0.6719 H         1 DBO         0.0559
     61 H23       111.2955   22.4379    1.4496 H         1 DBO         0.0599
     62 H24       109.8299   23.9575    2.8542 H         1 DBO         0.0557
     63 H25       104.0828   23.8258    1.1769 H         1 DBO         0.0713
     64 H26       103.0883   24.3162   -4.4266 H         1 DBO         0.0548
     65 H27       101.3350   22.4869   -4.1159 H         1 DBO         0.0614
     66 H28       101.0720   21.3013   -1.8348 H         1 DBO         0.0536
     67 H29       102.5759   21.9461    0.1588 H         1 DBO         0.0611
     68 H30       108.7256   23.5469   -0.4110 H         1 DBO         0.0576
     69 H31       110.0379   23.7250   -2.6415 H         1 DBO         0.0526
     70 H32       108.8766   24.5995   -4.7958 H         1 DBO         0.0583
     71 H33       106.3793   25.2949   -4.6921 H         1 DBO         0.0538
@<TRIPOS>BOND
     1    1    2 1  
     2    1   22 am 
     3    2    3 1  
     4    2   15 1  
     5    3    4 1  
     6    3    5 1  
     7    5    6 1  
     8    6    7 1  
     9    7    8 1  
    10    8    9 ar 
    11    8   13 ar 
    12    9   10 ar 
    13   10   11 ar 
    14   10   14 1  
    15   11   12 ar 
    16   12   13 ar 
    17   15   16 1  
    18   16   17 ar 
    19   16   21 ar 
    20   17   18 ar 
    21   18   19 ar 
    22   19   20 ar 
    23   20   21 ar 
    24   22   23 2  
    25   22   24 1  
    26   24   25 2  
    27   24   34 1  
    28   25   26 1  
    29   26   27 ar 
    30   26   31 ar 
    31   27   28 ar 
    32   27   32 1  
    33   28   29 ar 
    34   29   30 ar 
    35   30   31 ar 
    36   32   33 1  
    37   33   34 ar 
    38   33   38 ar 
    39   34   35 ar 
    40   35   36 ar 
    41   36   37 ar 
    42   37   38 ar 
    43    1   39 1  
    44    2   40 1  
    45    3   41 1  
    46    4   42 1  
    47    5   43 1  
    48    5   44 1  
    49    6   45 1  
    50    6   46 1  
    51    7   47 1  
    52    7   48 1  
    53    9   49 1  
    54   11   50 1  
    55   12   51 1  
    56   13   52 1  
    57   14   53 1  
    58   14   54 1  
    59   14   55 1  
    60   15   56 1  
    61   15   57 1  
    62   17   58 1  
    63   18   59 1  
    64   19   60 1  
    65   20   61 1  
    66   21   62 1  
    67   25   63 1  
    68   28   64 1  
    69   29   65 1  
    70   30   66 1  
    71   31   67 1  
    72   35   68 1  
    73   36   69 1  
    74   37   70 1  
    75   38   71 1  
@<TRIPOS>SUBSTRUCTURE
     1 DBO         1

