### 
### Created by X-TOOL on Mon Sep 10 21:12:54 2018
### 

@<TRIPOS>MOLECULE
2exc_ligand
   56    59     1     0     0
SMALL
GAST_HUCK


@<TRIPOS>ATOM
      1 C1         20.3590    9.8190   31.7810 C.ar      1 JNK        -0.0056
      2 C2         19.9760    8.3760   31.8640 C.ar      1 JNK        -0.0080
      3 C3         19.6360   10.8230   32.4470 C.ar      1 JNK        -0.0032
      4 C4         21.4360   10.2130   30.9710 C.ar      1 JNK        -0.0382
      5 C5         20.9030    7.3940   31.5310 C.ar      1 JNK        -0.0044
      6 C6         18.6770    7.9660   32.2180 C.ar      1 JNK        -0.0414
      7 C7         20.0230   12.1580   32.2980 C.ar      1 JNK         0.1314
      8 C8         21.7610   11.5420   30.8620 C.ar      1 JNK        -0.0020
      9 C9         20.5520    6.0600   31.5350 C.ar      1 JNK         0.1398
     10 C10        18.4010    6.6150   32.2430 C.ar      1 JNK        -0.0061
     11 N11        19.3450   13.2130   32.9410 N.pl3     1 JNK        -0.2627
     12 N12        21.0650   12.4520   31.5150 N.ar      1 JNK        -0.2817
     13 N13        21.5330    5.0810   31.2990 N.am      1 JNK        -0.2179
     14 N14        19.3330    5.7290   31.9260 N.ar      1 JNK        -0.2850
     15 C15        18.3470   13.0670   33.9230 C.ar      1 JNK         0.0574
     16 C16        22.8080    5.3190   30.8290 C.2       1 JNK         0.2108
     17 C17        17.1540   13.8090   33.8170 C.ar      1 JNK        -0.0405
     18 C18        18.5400   12.2010   35.0140 C.ar      1 JNK        -0.0405
     19 C19        23.8450    4.2210   30.7520 C.3       1 JNK         0.0555
     20 O20        23.1790    6.4350   30.4870 O.2       1 JNK        -0.3826
     21 C21        16.1770   13.6510   34.8040 C.ar      1 JNK        -0.0381
     22 C22        17.5520   12.0490   35.9870 C.ar      1 JNK        -0.0381
     23 C23        23.4200    2.9630   31.5270 C.3       1 JNK        -0.0303
     24 C24        24.3940    3.8740   29.3590 C.3       1 JNK        -0.0303
     25 C25        16.3570   12.7720   35.8920 C.ar      1 JNK         0.1195
     26 C26        24.6630    2.0830   31.7920 C.3       1 JNK        -0.0243
     27 C27        25.5890    2.8940   29.6000 C.3       1 JNK        -0.0243
     28 C28        25.9260    2.4670   30.9630 C.3       1 JNK         0.0586
     29 O29        26.7150    3.4670   31.6600 O.3       1 JNK        -0.3798
     30 C30        28.1340    3.1990   31.6770 C.3       1 JNK         0.0368
     31 F31        15.3970   12.6240   36.8520 F         1 JNK        -0.1934
     32 H1         18.7871   10.5651   33.0698 H         1 JNK         0.0635
     33 H2         22.0104    9.4682   30.4321 H         1 JNK         0.0619
     34 H3         21.9140    7.6806   31.2650 H         1 JNK         0.0610
     35 H4         17.9126    8.6939   32.4648 H         1 JNK         0.0594
     36 H5         22.5931   11.8448   30.2367 H         1 JNK         0.0783
     37 H6         17.4111    6.2748   32.5250 H         1 JNK         0.0773
     38 H7         19.6016   14.1728   32.6692 H         1 JNK         0.2112
     39 H8         21.2854    4.1308   31.4880 H         1 JNK         0.2310
     40 H9         16.9971   14.4884   32.9871 H         1 JNK         0.0524
     41 H10        19.4668   11.6454   35.0999 H         1 JNK         0.0524
     42 H11        24.7113    4.6232   31.2977 H         1 JNK         0.0544
     43 H12        15.2567   14.2191   34.7312 H         1 JNK         0.0575
     44 H13        17.7097   11.3704   36.8175 H         1 JNK         0.0575
     45 H14        22.6877    2.3957   30.9338 H         1 JNK         0.0293
     46 H15        22.9668    3.2571   32.4852 H         1 JNK         0.0293
     47 H16        24.7425    4.7835   28.8478 H         1 JNK         0.0293
     48 H17        23.6166    3.3871   28.7519 H         1 JNK         0.0293
     49 H18        24.4016    1.0413   31.5541 H         1 JNK         0.0292
     50 H19        24.9173    2.1627   32.8592 H         1 JNK         0.0292
     51 H20        26.4860    3.3803   29.1890 H         1 JNK         0.0292
     52 H21        25.3713    1.9811   29.0263 H         1 JNK         0.0292
     53 H22        26.5458    1.5626   30.8743 H         1 JNK         0.0596
     54 H23        28.6522    4.0017   32.2221 H         1 JNK         0.0524
     55 H24        28.5111    3.1542   30.6446 H         1 JNK         0.0524
     56 H25        28.3195    2.2371   32.1773 H         1 JNK         0.0524
@<TRIPOS>BOND
     1    1    2 1  
     2    1    3 ar 
     3    1    4 ar 
     4    2    5 ar 
     5    2    6 ar 
     6    3    7 ar 
     7    4    8 ar 
     8    5    9 ar 
     9    6   10 ar 
    10    7   11 1  
    11    7   12 ar 
    12    8   12 ar 
    13    9   13 1  
    14    9   14 ar 
    15   10   14 ar 
    16   11   15 1  
    17   13   16 am 
    18   15   17 ar 
    19   15   18 ar 
    20   16   19 1  
    21   16   20 2  
    22   17   21 ar 
    23   18   22 ar 
    24   19   23 1  
    25   19   24 1  
    26   21   25 ar 
    27   22   25 ar 
    28   23   26 1  
    29   24   27 1  
    30   25   31 1  
    31   26   28 1  
    32   27   28 1  
    33   28   29 1  
    34   29   30 1  
    35    3   32 1  
    36    4   33 1  
    37    5   34 1  
    38    6   35 1  
    39    8   36 1  
    40   10   37 1  
    41   11   38 1  
    42   13   39 1  
    43   17   40 1  
    44   18   41 1  
    45   19   42 1  
    46   21   43 1  
    47   22   44 1  
    48   23   45 1  
    49   23   46 1  
    50   24   47 1  
    51   24   48 1  
    52   26   49 1  
    53   26   50 1  
    54   27   51 1  
    55   27   52 1  
    56   28   53 1  
    57   30   54 1  
    58   30   55 1  
    59   30   56 1  
@<TRIPOS>SUBSTRUCTURE
     1 JNK         1

