### 
### Created by X-TOOL on Mon Sep 10 21:12:55 2018
### 

@<TRIPOS>MOLECULE
2exg_ligand
   26    27     1     0     0
SMALL
GAST_HUCK


@<TRIPOS>ATOM
      1 C8          4.4670    6.8190    6.8410 C.3       1 STF         0.1233
      2 S12         5.5010    7.7170    5.5910 S.3       1 STF        -0.0030
      3 C11         3.9970    8.4950    4.8760 C.2       1 STF         0.1606
      4 N10         2.8340    8.1630    5.4750 N.2       1 STF        -0.2514
      5 C9          3.0120    7.1670    6.5700 C.2       1 STF         0.1720
      6 O17         2.0870    6.9030    7.3040 O.2       1 STF        -0.3864
      7 S18         4.2060    9.6910    3.6310 S.3       1 STF        -0.0463
      8 C7          4.6840    5.3460    6.7220 C.3       1 STF         0.0275
      9 C1          3.9960    4.7020    5.5680 C.ar      1 STF        -0.0078
     10 C6          4.4360    4.8070    4.2550 C.ar      1 STF        -0.0280
     11 C5          3.7380    4.2260    3.1810 C.ar      1 STF        -0.0372
     12 C4          2.6000    3.4290    3.4280 C.ar      1 STF         0.0385
     13 C3          2.2490    3.1830    4.7720 C.ar      1 STF        -0.0372
     14 C2          2.9460    3.7590    5.8220 C.ar      1 STF        -0.0280
     15 C13         1.8140    2.8250    2.2670 C.3       1 STF         0.3684
     16 F16         1.7220    3.7360    1.2320 F         1 STF        -0.2274
     17 F15         0.5550    2.4580    2.6320 F         1 STF        -0.2274
     18 F14         2.4630    1.7050    1.8090 F         1 STF        -0.2274
     19 H1          4.7429    7.1443    7.8549 H         1 STF         0.0714
     20 H2          3.3032   10.0282    3.3357 H         1 STF         0.1407
     21 H3          4.3200    4.8712    7.6451 H         1 STF         0.0537
     22 H4          5.7644    5.1669    6.6189 H         1 STF         0.0537
     23 H5          5.3485    5.3554    4.0509 H         1 STF         0.0652
     24 H6          4.0742    4.3904    2.1637 H         1 STF         0.0836
     25 H7          1.4135    2.5272    4.9887 H         1 STF         0.0836
     26 H8          2.6956    3.4948    6.8431 H         1 STF         0.0652
@<TRIPOS>BOND
     1    1    2 1  
     2    1    5 1  
     3    1    8 1  
     4    2    3 1  
     5    3    4 2  
     6    3    7 1  
     7    4    5 1  
     8    5    6 2  
     9    8    9 1  
    10    9   10 ar 
    11    9   14 ar 
    12   10   11 ar 
    13   11   12 ar 
    14   12   13 ar 
    15   12   15 1  
    16   13   14 ar 
    17   15   16 1  
    18   15   17 1  
    19   15   18 1  
    20    1   19 1  
    21    7   20 1  
    22    8   21 1  
    23    8   22 1  
    24   10   23 1  
    25   11   24 1  
    26   13   25 1  
    27   14   26 1  
@<TRIPOS>SUBSTRUCTURE
     1 STF         1

