### 
### Created by X-TOOL on Mon Sep 10 21:12:52 2018
### 

@<TRIPOS>MOLECULE
2exm_ligand
   28    29     1     0     0
SMALL
GAST_HUCK


@<TRIPOS>ATOM
      1 C14        98.5460   97.0330   80.8880 C.3       1 ZIP        -0.0406
      2 C13        99.1350   98.4420   81.0110 C.2       1 ZIP        -0.0852
      3 C15        98.4400   99.2800   82.0650 C.3       1 ZIP        -0.0406
      4 C12        99.7840   99.0100   79.9600 C.2       1 ZIP        -0.0871
      5 C11       101.2360   98.9240   79.5100 C.3       1 ZIP         0.0363
      6 N10       102.3640   99.2620   80.4040 N.pl3     1 ZIP        -0.2971
      7 C6        103.4110  100.1920   80.0820 C.ar      1 ZIP         0.1335
      8 C5        104.7200  100.2370   80.6810 C.ar      1 ZIP         0.1045
      9 N9        105.3290   99.4630   81.6920 N.2       1 ZIP        -0.2960
     10 C4        105.6200  101.2160   80.3090 C.ar      1 ZIP         0.1567
     11 N7        106.7730  101.0650   80.9900 N.pl3     1 ZIP        -0.2361
     12 C8        106.5090  100.0380   81.8390 C.2       1 ZIP         0.1072
     13 N3        105.2290  102.1550   79.2940 N.ar      1 ZIP        -0.2715
     14 C2        104.0390  102.0050   78.7480 C.ar      1 ZIP         0.0533
     15 N1        103.1920  101.1030   79.1230 N.ar      1 ZIP        -0.2696
     16 H1         98.0649   96.7526   81.8367 H         1 ZIP         0.0375
     17 H2         99.3501   96.3181   80.6594 H         1 ZIP         0.0375
     18 H3         97.8000   97.0166   80.0798 H         1 ZIP         0.0375
     19 H4         98.9048  100.2761   82.1066 H         1 ZIP         0.0375
     20 H5         98.5355   98.7897   83.0450 H         1 ZIP         0.0375
     21 H6         97.3753   99.3826   81.8085 H         1 ZIP         0.0375
     22 H7         99.1549   99.6364   79.3293 H         1 ZIP         0.0262
     23 H8        101.3262   99.5894   78.6388 H         1 ZIP         0.0600
     24 H9        101.3973   97.8827   79.1944 H         1 ZIP         0.0600
     25 H10       102.4020   98.7980   81.3228 H         1 ZIP         0.1873
     26 H11       107.6469  101.6010   80.8904 H         1 ZIP         0.2393
     27 H12       107.2240   99.7100   82.5921 H         1 ZIP         0.1346
     28 H13       103.7555  102.6727   77.9425 H         1 ZIP         0.0996
@<TRIPOS>BOND
     1    1    2 1  
     2    2    3 1  
     3    2    4 2  
     4    4    5 1  
     5    5    6 1  
     6    6    7 1  
     7    7    8 ar 
     8    7   15 ar 
     9    8    9 1  
    10    8   10 ar 
    11    9   12 2  
    12   10   11 1  
    13   10   13 ar 
    14   11   12 1  
    15   13   14 ar 
    16   14   15 ar 
    17    1   16 1  
    18    1   17 1  
    19    1   18 1  
    20    3   19 1  
    21    3   20 1  
    22    3   21 1  
    23    4   22 1  
    24    5   23 1  
    25    5   24 1  
    26    6   25 1  
    27   11   26 1  
    28   12   27 1  
    29   14   28 1  
@<TRIPOS>SUBSTRUCTURE
     1 ZIP         1

