### 
### Created by X-TOOL on Mon Sep 10 21:12:55 2018
### 

@<TRIPOS>MOLECULE
2ez7_ligand
   20    20     1     0     0
SMALL
GAST_HUCK


@<TRIPOS>ATOM
      1 N          -0.1790    2.2930   11.0110 N.4       1 DHI         0.2337
      2 CA          0.2590    3.5970   11.5220 C.3       1 DHI         0.0342
      3 C           1.6920    3.8840   11.1000 C.2       1 DHI         0.0860
      4 O           2.0620    3.5830    9.9860 O.co2     1 DHI        -0.5642
      5 CB         -0.6690    4.7030   11.0050 C.3       1 DHI         0.0292
      6 CG         -2.0930    4.4050   11.3910 C.2       1 DHI        -0.0001
      7 ND1        -2.8780    3.4860   10.8050 N.2       1 DHI        -0.3251
      8 CD2        -2.8030    5.0020   12.3690 C.2       1 DHI         0.0292
      9 CE1        -4.0420    3.4900   11.3810 C.2       1 DHI         0.0907
     10 NE2        -4.0420    4.4210   12.3650 N.pl3     1 DHI        -0.2752
     11 OXT         2.5520    4.4690   11.9460 O.co2     1 DHI        -0.5642
     12 H1         -1.1291    2.1207   11.3003 H         1 DHI         0.2011
     13 H2          0.4201    1.5700   11.3775 H         1 DHI         0.2011
     14 H3         -0.1290    2.2926   10.0043 H         1 DHI         0.2011
     15 H4          0.2116    3.5788   12.6208 H         1 DHI         0.1042
     16 H5         -0.5932    4.7590    9.9091 H         1 DHI         0.0446
     17 H6         -0.3671    5.6657   11.4431 H         1 DHI         0.0446
     18 H7         -2.4577    5.7929   13.0332 H         1 DHI         0.0729
     19 H8         -4.8816    2.8491   11.1160 H         1 DHI         0.1199
     20 H9         -4.8268    4.6487   12.9921 H         1 DHI         0.2361
@<TRIPOS>BOND
     1    1    2 1  
     2    2    3 1  
     3    2    5 1  
     4    3    4 ar 
     5    3   11 ar 
     6    5    6 1  
     7    6    7 1  
     8    6    8 2  
     9    7    9 2  
    10    8   10 1  
    11    9   10 1  
    12    1   12 1  
    13    1   13 1  
    14    1   14 1  
    15    2   15 1  
    16    5   16 1  
    17    5   17 1  
    18    8   18 1  
    19    9   19 1  
    20   10   20 1  
@<TRIPOS>SUBSTRUCTURE
     1 DHI         1

