### 
### Created by X-TOOL on Mon Sep 10 21:12:52 2018
### 

@<TRIPOS>MOLECULE
2f01_ligand
   31    32     1     0     0
SMALL
GAST_HUCK


@<TRIPOS>ATOM
      1 C11        32.7710   18.1440   14.0480 C.2       1 BTN         0.0348
      2 O11        33.7020   17.4540   13.5160 O.co2     1 BTN        -0.5690
      3 O12        32.7210   19.4450   13.8670 O.co2     1 BTN        -0.5690
      4 C10        31.7790   17.4910   14.9420 C.3       1 BTN         0.0002
      5 C9         31.3320   16.1360   14.5750 C.3       1 BTN        -0.0414
      6 C8         30.5270   16.1480   13.2710 C.3       1 BTN        -0.0505
      7 C7         30.1960   14.7500   12.7940 C.3       1 BTN        -0.0389
      8 C2         29.1720   14.6210   11.7530 C.3       1 BTN         0.0302
      9 S1         27.6100   15.2160   11.7380 S.3       1 BTN        -0.1527
     10 C6         27.1730   14.6500   10.1760 C.3       1 BTN         0.0190
     11 C5         27.8700   13.2980   10.0920 C.3       1 BTN         0.0750
     12 N1         26.9810   12.2330   10.5690 N.am      1 BTN        -0.2671
     13 C3         27.5310   11.6360   11.6660 C.2       1 BTN         0.2580
     14 O3         26.9880   10.6820   12.2550 O.2       1 BTN        -0.4008
     15 N2         28.7180   12.1670   11.9760 N.am      1 BTN        -0.2668
     16 C4         29.0700   13.2600   11.0360 C.3       1 BTN         0.0775
     17 H1         30.8884   18.1357   14.9751 H         1 BTN         0.0430
     18 H2         32.2262   17.4316   15.9452 H         1 BTN         0.0430
     19 H3         30.7004   15.7364   15.3820 H         1 BTN         0.0283
     20 H4         32.2135   15.4909   14.4457 H         1 BTN         0.0283
     21 H5         31.1167   16.6574   12.4946 H         1 BTN         0.0267
     22 H6         29.5887   16.6972   13.4383 H         1 BTN         0.0267
     23 H7         29.8541   14.1749   13.6672 H         1 BTN         0.0277
     24 H8         31.1231   14.3059   12.4026 H         1 BTN         0.0277
     25 H9         29.6386   15.2649   10.9930 H         1 BTN         0.0435
     26 H10        27.5369   15.3313    9.3928 H         1 BTN         0.0399
     27 H11        26.0823   14.5383   10.0871 H         1 BTN         0.0399
     28 H12        28.1839   13.1076    9.0551 H         1 BTN         0.0584
     29 H13        26.1062   11.9829   10.1540 H         1 BTN         0.1849
     30 H14        29.2915   11.8679   12.7387 H         1 BTN         0.1849
     31 H15        30.0066   13.0412   10.5023 H         1 BTN         0.0587
@<TRIPOS>BOND
     1    1    2 ar 
     2    1    3 ar 
     3    1    4 1  
     4    4    5 1  
     5    5    6 1  
     6    6    7 1  
     7    7    8 1  
     8    8    9 1  
     9    8   16 1  
    10    9   10 1  
    11   10   11 1  
    12   11   12 1  
    13   11   16 1  
    14   12   13 am 
    15   13   14 2  
    16   13   15 am 
    17   15   16 1  
    18    4   17 1  
    19    4   18 1  
    20    5   19 1  
    21    5   20 1  
    22    6   21 1  
    23    6   22 1  
    24    7   23 1  
    25    7   24 1  
    26    8   25 1  
    27   10   26 1  
    28   10   27 1  
    29   11   28 1  
    30   12   29 1  
    31   15   30 1  
    32   16   31 1  
@<TRIPOS>SUBSTRUCTURE
     1 BTN         1

