### 
### Created by X-TOOL on Mon Sep 10 21:12:54 2018
### 

@<TRIPOS>MOLECULE
2f0z_ligand
   45    45     1     0     0
SMALL
GAST_HUCK


@<TRIPOS>ATOM
      1 C1         34.2530   27.7430   25.5550 C.2       1 ZMR         0.0637
      2 O1A        34.5710   26.6130   24.8490 O.co2     1 ZMR        -0.5663
      3 O1B        34.2150   28.8730   24.9340 O.co2     1 ZMR        -0.5663
      4 C2         33.9760   27.6940   26.9340 C.3       1 ZMR         0.1148
      5 C3         33.5770   28.9500   27.6530 C.3       1 ZMR         0.0237
      6 C4         33.0900   28.6670   29.0860 C.3       1 ZMR         0.1026
      7 C5         33.7970   27.4560   29.6910 C.3       1 ZMR         0.1065
      8 N5         33.2300   27.2730   31.0320 N.am      1 ZMR        -0.2778
      9 C10        33.9170   27.1260   32.1600 C.2       1 ZMR         0.1733
     10 O10        35.2920   27.1310   32.2030 O.2       1 ZMR        -0.3974
     11 C11        33.1590   26.9390   33.4550 C.3       1 ZMR         0.0257
     12 C6         33.5650   26.2410   28.7720 C.3       1 ZMR         0.1158
     13 O6         34.1130   26.5330   27.4770 O.3       1 ZMR        -0.3542
     14 C7         34.2630   24.9490   29.2640 C.3       1 ZMR         0.1116
     15 O7         35.6760   25.1540   29.3090 O.3       1 ZMR        -0.3865
     16 C8         34.0390   23.7210   28.3490 C.3       1 ZMR         0.1065
     17 O8         32.6450   23.4200   28.2400 O.3       1 ZMR        -0.3869
     18 C9         34.7370   22.4350   28.8470 C.3       1 ZMR         0.0727
     19 O9         35.6840   22.6290   29.8690 O.3       1 ZMR        -0.3924
     20 NE         33.3450   29.8670   29.8650 N.pl3     1 ZMR        -0.2671
     21 CZ         32.4970   30.5190   30.8700 C.cat     1 ZMR         0.2885
     22 NH1        31.3010   30.0260   31.1990 N.pl3     1 ZMR        -0.2849
     23 NH2        32.9390   31.6250   31.4620 N.pl3     1 ZMR        -0.2849
     24 H1         32.9138   27.4827   26.7413 H         1 ZMR         0.0767
     25 H2         32.7656   29.4372   27.0924 H         1 ZMR         0.0346
     26 H3         34.4458   29.6231   27.7001 H         1 ZMR         0.0346
     27 H4         32.0086   28.4662   29.0691 H         1 ZMR         0.0752
     28 H5         34.8777   27.6443   29.7717 H         1 ZMR         0.0621
     29 H6         32.2327   27.2574   31.1038 H         1 ZMR         0.1856
     30 H7         33.8725   26.8332   34.2855 H         1 ZMR         0.0467
     31 H8         32.5371   26.0342   33.3885 H         1 ZMR         0.0467
     32 H9         32.5161   27.8136   33.6332 H         1 ZMR         0.0467
     33 H10        32.4830   26.0590   28.6935 H         1 ZMR         0.0649
     34 H11        33.8869   24.7168   30.2713 H         1 ZMR         0.0647
     35 H12        36.1006   24.3597   29.6111 H         1 ZMR         0.2100
     36 H13        34.4336   23.9687   27.3525 H         1 ZMR         0.0643
     37 H14        32.1889   24.1667   27.8701 H         1 ZMR         0.2100
     38 H15        35.2493   21.9716   27.9909 H         1 ZMR         0.0584
     39 H16        33.9627   21.7512   29.2250 H         1 ZMR         0.0584
     40 H17        35.2582   23.0176   30.6241 H         1 ZMR         0.2095
     41 H18        34.2499   30.3254   29.6864 H         1 ZMR         0.2645
     42 H19        30.7248   30.5023   31.9075 H         1 ZMR         0.2615
     43 H20        30.9543   29.1693   30.7443 H         1 ZMR         0.2615
     44 H21        33.8611   32.0097   31.2119 H         1 ZMR         0.2615
     45 H22        32.3591   32.0968   32.1706 H         1 ZMR         0.2615
@<TRIPOS>BOND
     1    1    2 ar 
     2    1    3 ar 
     3    1    4 1  
     4    4    5 1  
     5    4   13 1  
     6    5    6 1  
     7    6    7 1  
     8    6   20 1  
     9    7    8 1  
    10    7   12 1  
    11    8    9 am 
    12    9   10 2  
    13    9   11 1  
    14   12   13 1  
    15   12   14 1  
    16   14   15 1  
    17   14   16 1  
    18   16   17 1  
    19   16   18 1  
    20   18   19 1  
    21   20   21 ar 
    22   21   22 ar 
    23   21   23 ar 
    24    4   24 1  
    25    5   25 1  
    26    5   26 1  
    27    6   27 1  
    28    7   28 1  
    29    8   29 1  
    30   11   30 1  
    31   11   31 1  
    32   11   32 1  
    33   12   33 1  
    34   14   34 1  
    35   15   35 1  
    36   16   36 1  
    37   17   37 1  
    38   18   38 1  
    39   18   39 1  
    40   19   40 1  
    41   20   41 1  
    42   22   42 1  
    43   22   43 1  
    44   23   44 1  
    45   23   45 1  
@<TRIPOS>SUBSTRUCTURE
     1 ZMR         1

