### 
### Created by X-TOOL on Mon Sep 10 21:12:54 2018
### 

@<TRIPOS>MOLECULE
2f10_ligand
   51    51     1     0     0
SMALL
GAST_HUCK


@<TRIPOS>ATOM
      1 C2         10.3120   14.1680   27.8280 C.3       1 BCZ         0.0827
      2 N25        11.4290   14.0600   28.7680 N.pl3     1 BCZ        -0.2691
      3 C26        11.5180   13.0430   29.5550 C.cat     1 BCZ         0.2885
      4 N30        10.6480   11.9860   29.6250 N.pl3     1 BCZ        -0.2849
      5 N27        12.5750   12.9880   30.4190 N.pl3     1 BCZ        -0.2849
      6 C3          9.9300   15.6610   27.5710 C.3       1 BCZ         0.0460
      7 C10         9.2860   16.4670   28.7570 C.3       1 BCZ         0.0535
      8 C24         8.9130   17.9660   28.3050 C.3       1 BCZ        -0.0180
      9 C37        10.1460   18.7580   27.7630 C.3       1 BCZ        -0.0510
     10 C38         9.8510   19.8100   26.6660 C.3       1 BCZ        -0.0650
     11 C36         8.2460   18.7300   29.5080 C.3       1 BCZ        -0.0510
     12 C39         6.9970   18.0470   30.1180 C.3       1 BCZ        -0.0650
     13 N11        10.2750   16.4720   29.8660 N.am      1 BCZ        -0.2834
     14 C13         9.9840   16.0140   31.1260 C.2       1 BCZ         0.1731
     15 C15        11.0840   16.0640   32.1660 C.3       1 BCZ         0.0257
     16 O14         8.9110   15.5600   31.4980 O.2       1 BCZ        -0.3974
     17 C4          9.0240   15.5810   26.3010 C.3       1 BCZ         0.0779
     18 O9          7.6270   15.4720   26.7230 O.3       1 BCZ        -0.3893
     19 C5          9.4820   14.2920   25.5230 C.3       1 BCZ         0.0416
     20 C6          9.9170   14.5220   24.0840 C.2       1 BCZ         0.0405
     21 O8         10.4830   13.6680   23.4120 O.co2     1 BCZ        -0.5686
     22 O7          9.6710   15.7170   23.5210 O.co2     1 BCZ        -0.5686
     23 C1         10.6170   13.6720   26.3910 C.3       1 BCZ         0.0003
     24 H1          9.4586   13.6129   28.2445 H         1 BCZ         0.0731
     25 H2         12.1459   14.7988   28.8006 H         1 BCZ         0.2645
     26 H3         10.8177   11.2228   30.2956 H         1 BCZ         0.2615
     27 H4          9.8246   11.9549   29.0070 H         1 BCZ         0.2615
     28 H5         13.2732   13.7452   30.4274 H         1 BCZ         0.2615
     29 H6         12.6736   12.1894   31.0619 H         1 BCZ         0.2615
     30 H7         10.8516   16.2017   27.3097 H         1 BCZ         0.0387
     31 H8          8.3672   15.9607   29.0878 H         1 BCZ         0.0563
     32 H9          8.1770   17.8984   27.4903 H         1 BCZ         0.0323
     33 H10        10.8573   18.0292   27.3471 H         1 BCZ         0.0266
     34 H11        10.6103   19.2798   28.6128 H         1 BCZ         0.0266
     35 H12        10.7892   20.2994   26.3655 H         1 BCZ         0.0230
     36 H13         9.1537   20.5643   27.0594 H         1 BCZ         0.0230
     37 H14         9.4006   19.3138   25.7937 H         1 BCZ         0.0230
     38 H15         7.9479   19.7276   29.1531 H         1 BCZ         0.0266
     39 H16         8.9986   18.8335   30.3035 H         1 BCZ         0.0266
     40 H17         6.6117   18.6599   30.9462 H         1 BCZ         0.0230
     41 H18         7.2714   17.0510   30.4957 H         1 BCZ         0.0230
     42 H19         6.2207   17.9451   29.3454 H         1 BCZ         0.0230
     43 H20        11.1932   16.8248   29.6859 H         1 BCZ         0.1854
     44 H21        10.7055   15.6669   33.1194 H         1 BCZ         0.0467
     45 H22        11.4093   17.1054   32.3059 H         1 BCZ         0.0467
     46 H23        11.9361   15.4560   31.8280 H         1 BCZ         0.0467
     47 H24         9.1540   16.4738   25.6717 H         1 BCZ         0.0619
     48 H25         7.0686   15.4228   25.9560 H         1 BCZ         0.2100
     49 H26         8.6354   13.5903   25.4920 H         1 BCZ         0.0493
     50 H27        10.5885   12.5734   26.3433 H         1 BCZ         0.0323
     51 H28        11.6025   14.0281   26.0564 H         1 BCZ         0.0323
@<TRIPOS>BOND
     1    1    2 1  
     2    1    6 1  
     3    1   23 1  
     4    2    3 ar 
     5    3    4 ar 
     6    3    5 ar 
     7    6    7 1  
     8    6   17 1  
     9    7    8 1  
    10    7   13 1  
    11    8    9 1  
    12    8   11 1  
    13    9   10 1  
    14   11   12 1  
    15   13   14 am 
    16   14   15 1  
    17   14   16 2  
    18   17   18 1  
    19   17   19 1  
    20   19   20 1  
    21   19   23 1  
    22   20   21 ar 
    23   20   22 ar 
    24    1   24 1  
    25    2   25 1  
    26    4   26 1  
    27    4   27 1  
    28    5   28 1  
    29    5   29 1  
    30    6   30 1  
    31    7   31 1  
    32    8   32 1  
    33    9   33 1  
    34    9   34 1  
    35   10   35 1  
    36   10   36 1  
    37   10   37 1  
    38   11   38 1  
    39   11   39 1  
    40   12   40 1  
    41   12   41 1  
    42   12   42 1  
    43   13   43 1  
    44   15   44 1  
    45   15   45 1  
    46   15   46 1  
    47   17   47 1  
    48   18   48 1  
    49   19   49 1  
    50   23   50 1  
    51   23   51 1  
@<TRIPOS>SUBSTRUCTURE
     1 BCZ         1

