### 
### Created by X-TOOL on Mon Sep 10 21:12:53 2018
### 

@<TRIPOS>MOLECULE
2f14_ligand
   63    67     1     0     0
SMALL
GAST_HUCK


@<TRIPOS>ATOM
      1 S1         -6.0170    0.8830   16.9160 S.o2      1 FL1         0.0628
      2 O1         -5.4540    0.9950   18.2440 O.2       1 FL1        -0.1514
      3 O2         -7.4500    0.9470   16.7760 O.2       1 FL1        -0.1514
      4 N1         -5.4910   -0.4950   16.2830 N.am      1 FL1        -0.2617
      5 C1         -5.3360    2.2130   15.9410 C.ar      1 FL1         0.1009
      6 C2         -3.9700    2.1580   15.5950 C.ar      1 FL1        -0.0419
      7 C3         -3.4470    3.1770   14.8490 C.ar      1 FL1        -0.0584
      8 C4         -4.2280    4.2830   14.4130 C.ar      1 FL1        -0.0408
      9 C5         -5.6000    4.3130   14.7760 C.ar      1 FL1        -0.0584
     10 C6         -6.1670    3.3020   15.5300 C.ar      1 FL1        -0.0419
     11 C7         -3.6050    5.4090   13.5710 C.3       1 FL1         0.0029
     12 C29        -2.0780    5.4040   13.5800 C.3       1 FL1         0.0466
     13 N2         -1.5350    6.5750   12.9370 N.am      1 FL1        -0.2755
     14 C8         -1.6710    7.8110   13.3790 C.2       1 FL1         0.1687
     15 S2         -1.7480    8.1870   15.0220 S.2       1 FL1        -0.2909
     16 N3         -1.7370    8.7430   12.3950 N.am      1 FL1        -0.2232
     17 C9         -1.8810   10.1570   12.3350 C.ar      1 FL1         0.0895
     18 C10        -1.8400   10.9270   13.5150 C.ar      1 FL1        -0.0241
     19 C11        -1.9750   12.3220   13.4600 C.ar      1 FL1        -0.0498
     20 C12        -2.1570   12.9850   12.2010 C.ar      1 FL1         0.0068
     21 C13        -2.2040   12.1930   10.9850 C.ar      1 FL1         0.0186
     22 C14        -2.0630   10.7960   11.0930 C.ar      1 FL1        -0.0126
     23 C15        -2.4000   12.7950    9.5900 C.2       1 FL1         0.0654
     24 O3         -1.6190   13.7140    9.2340 O.co2     1 FL1        -0.5590
     25 O4         -3.3300   12.3500    8.8780 O.co2     1 FL1        -0.5590
     26 C16        -2.2900   14.5180   12.2490 C.2       1 FL1         0.0151
     27 C17         0.2270   14.9040   12.7600 C.ar      1 FL1        -0.0506
     28 C18         1.2670   15.7830   13.0060 C.ar      1 FL1        -0.0283
     29 C19         1.0700   17.2170   13.0330 C.ar      1 FL1         0.0944
     30 C20        -0.2630   17.7010   12.7900 C.ar      1 FL1         0.0160
     31 C21        -4.8660   17.2590   11.8590 C.2       1 FL1        -0.0246
     32 C22        -6.0720   16.5200   11.5890 C.2       1 FL1         0.0581
     33 C23        -6.0000   15.0520   11.5430 C.2       1 FL1        -0.0434
     34 C24        -4.8090   14.4030   11.7520 C.2       1 FL1        -0.0561
     35 C25        -3.5590   15.1320   12.0250 C.2       1 FL1         0.0324
     36 C26        -3.6700   16.5820   12.0690 C.2       1 FL1         0.1223
     37 C27        -1.1340   15.3640   12.5110 C.ar      1 FL1         0.0407
     38 C28        -1.3030   16.8080   12.5460 C.ar      1 FL1         0.1451
     39 O5         -2.5510   17.3670   12.3210 O.3       1 FL1        -0.2407
     40 O6          2.0890   18.0230   13.2700 O.3       1 FL1        -0.3272
     41 O7         -7.1920   17.1060   11.3890 O.2       1 FL1        -0.4520
     42 H1         -4.5142   -0.7089   16.2924 H         1 FL1         0.1634
     43 H2         -6.1401   -1.1397   15.8792 H         1 FL1         0.1634
     44 H3         -3.3498    1.3278   15.9129 H         1 FL1         0.0619
     45 H4         -2.3976    3.1409   14.5795 H         1 FL1         0.0557
     46 H5         -6.2159    5.1455   14.4556 H         1 FL1         0.0557
     47 H6         -7.2156    3.3341   15.8029 H         1 FL1         0.0619
     48 H7         -3.9521    6.3739   13.9689 H         1 FL1         0.0447
     49 H8         -3.9472    5.2965   12.5317 H         1 FL1         0.0447
     50 H9         -1.7217    4.5089   13.0492 H         1 FL1         0.0565
     51 H10        -1.7281    5.3757   14.6225 H         1 FL1         0.0565
     52 H11        -1.0164    6.4403   12.0927 H         1 FL1         0.1982
     53 H12        -1.6670    8.3339   11.4852 H         1 FL1         0.2425
     54 H13        -1.7031   10.4372   14.4723 H         1 FL1         0.0569
     55 H14        -1.9416   12.9028   14.3747 H         1 FL1         0.0670
     56 H15        -2.0955   10.1937   10.1923 H         1 FL1         0.0586
     57 H16         0.4307   13.8393   12.7522 H         1 FL1         0.0651
     58 H17         2.2597   15.3857   13.1840 H         1 FL1         0.0524
     59 H18        -0.4587   18.7672   12.7969 H         1 FL1         0.0505
     60 H19        -4.8907   18.3470   11.8987 H         1 FL1         0.0166
     61 H20        -6.9007   14.4741   11.3411 H         1 FL1         0.0472
     62 H21        -4.7876   13.3148   11.7148 H         1 FL1         0.0644
     63 H22         2.2117   18.6031   12.5278 H         1 FL1         0.2528
@<TRIPOS>BOND
     1    1    2 2  
     2    1    3 2  
     3    1    4 am 
     4    5    1 1  
     5    6    5 ar 
     6   10    5 ar 
     7    7    6 ar 
     8    8    7 ar 
     9    8    9 ar 
    10   11    8 1  
    11    9   10 ar 
    12   12   11 1  
    13   13   12 1  
    14   14   13 am 
    15   14   15 2  
    16   16   14 am 
    17   17   16 1  
    18   18   17 ar 
    19   22   17 ar 
    20   19   18 ar 
    21   20   19 ar 
    22   20   21 ar 
    23   26   20 1  
    24   21   22 ar 
    25   21   23 1  
    26   23   24 ar 
    27   23   25 ar 
    28   35   26 2  
    29   26   37 1  
    30   27   28 ar 
    31   37   27 ar 
    32   28   29 ar 
    33   29   30 ar 
    34   29   40 1  
    35   30   38 ar 
    36   32   31 1  
    37   31   36 2  
    38   33   32 1  
    39   32   41 2  
    40   34   33 2  
    41   34   35 1  
    42   35   36 1  
    43   36   39 1  
    44   37   38 ar 
    45   38   39 1  
    46    4   42 1  
    47    4   43 1  
    48    6   44 1  
    49    7   45 1  
    50    9   46 1  
    51   10   47 1  
    52   11   48 1  
    53   11   49 1  
    54   12   50 1  
    55   12   51 1  
    56   13   52 1  
    57   16   53 1  
    58   18   54 1  
    59   19   55 1  
    60   22   56 1  
    61   27   57 1  
    62   28   58 1  
    63   30   59 1  
    64   31   60 1  
    65   33   61 1  
    66   34   62 1  
    67   40   63 1  
@<TRIPOS>SUBSTRUCTURE
     1 FL1         1

