### 
### Created by X-TOOL on Mon Sep 10 21:12:53 2018
### 

@<TRIPOS>MOLECULE
2f18_ligand
   40    41     1     0     0
SMALL
GAST_HUCK


@<TRIPOS>ATOM
      1 C15        27.3650   67.5130   11.6710 C.ar      1 GB1        -0.0549
      2 C14        27.1270   68.8950   11.7740 C.ar      1 GB1        -0.0684
      3 C13        28.0380   69.7160   12.4180 C.ar      1 GB1        -0.0687
      4 C12        29.1500   69.0950   12.9410 C.ar      1 GB1        -0.0684
      5 C11        29.4310   67.7270   12.8650 C.ar      1 GB1        -0.0549
      6 C10        28.5090   66.9010   12.2090 C.ar      1 GB1         0.0066
      7 C8         28.7610   65.3820   12.1220 C.3       1 GB1         0.0349
      8 C9         28.9030   64.8450   13.5390 C.3       1 GB1         0.0966
      9 O9         29.0260   63.4440   13.3650 O.3       1 GB1        -0.3873
     10 N7         29.9000   65.2630   11.1830 N.4       1 GB1         0.2469
     11 C6         29.8710   65.7140    9.7930 C.3       1 GB1         0.0146
     12 C5         31.0190   65.1920    8.9450 C.3       1 GB1         0.0473
     13 N1         30.7500   65.3810    7.5060 N.4       1 GB1         0.2367
     14 C2         31.2440   66.6410    6.9600 C.3       1 GB1        -0.0038
     15 C3         32.6020   66.5920    7.6590 C.3       1 GB1         0.1259
     16 O3         33.6160   65.8690    6.9940 O.3       1 GB1        -0.3837
     17 C4         32.2390   66.1040    9.0560 C.3       1 GB1         0.1332
     18 O4         33.2210   65.1740    9.4700 O.3       1 GB1        -0.3832
     19 H1         26.6373   66.8960   11.1564 H         1 GB1         0.0559
     20 H2         26.2258   69.3202   11.3472 H         1 GB1         0.0599
     21 H3         27.8843   70.7855   12.5052 H         1 GB1         0.0559
     22 H4         29.8700   69.7205   13.4562 H         1 GB1         0.0599
     23 H5         30.3354   67.3180   13.3008 H         1 GB1         0.0559
     24 H6         27.8949   64.8773   11.6691 H         1 GB1         0.1039
     25 H7         28.0141   65.0876   14.1398 H         1 GB1         0.0637
     26 H8         29.7986   65.2584   14.0257 H         1 GB1         0.0637
     27 H9         29.1201   63.0277   14.2137 H         1 GB1         0.2099
     28 H10        30.1202   64.2801   11.1455 H         1 GB1         0.2034
     29 H11        30.6620   65.7618   11.6150 H         1 GB1         0.2034
     30 H12        29.9090   66.8133    9.7861 H         1 GB1         0.0871
     31 H13        28.9268   65.3769    9.3405 H         1 GB1         0.0871
     32 H14        31.2409   64.1463    9.2045 H         1 GB1         0.0931
     33 H15        29.7526   65.3458    7.3646 H         1 GB1         0.2020
     34 H16        31.1877   64.6259    7.0017 H         1 GB1         0.2020
     35 H17        30.6376   67.5053    7.2685 H         1 GB1         0.0840
     36 H18        31.3291   66.6254    5.8634 H         1 GB1         0.0840
     37 H19        32.9807   67.6213    7.7437 H         1 GB1         0.0675
     38 H20        34.4144   65.8998    7.5080 H         1 GB1         0.2101
     39 H21        32.1004   66.9381    9.7596 H         1 GB1         0.0680
     40 H22        34.0712   65.5976    9.4828 H         1 GB1         0.2102
@<TRIPOS>BOND
     1    1    2 ar 
     2    1    6 ar 
     3    2    3 ar 
     4    3    4 ar 
     5    4    5 ar 
     6    5    6 ar 
     7    6    7 1  
     8    7    8 1  
     9    7   10 1  
    10    8    9 1  
    11   10   11 1  
    12   11   12 1  
    13   12   13 1  
    14   12   17 1  
    15   13   14 1  
    16   14   15 1  
    17   15   16 1  
    18   15   17 1  
    19   17   18 1  
    20    1   19 1  
    21    2   20 1  
    22    3   21 1  
    23    4   22 1  
    24    5   23 1  
    25    7   24 1  
    26    8   25 1  
    27    8   26 1  
    28    9   27 1  
    29   10   28 1  
    30   10   29 1  
    31   11   30 1  
    32   11   31 1  
    33   12   32 1  
    34   13   33 1  
    35   13   34 1  
    36   14   35 1  
    37   14   36 1  
    38   15   37 1  
    39   16   38 1  
    40   17   39 1  
    41   18   40 1  
@<TRIPOS>SUBSTRUCTURE
     1 GB1         1

