### 
### Created by X-TOOL on Mon Sep 10 21:12:53 2018
### 

@<TRIPOS>MOLECULE
2f1a_ligand
   40    41     1     0     0
SMALL
GAST_HUCK


@<TRIPOS>ATOM
      1 C8         29.0140   65.2650   12.1290 C.3       1 GB2         0.0349
      2 N7         29.8940   65.0670   10.9780 N.4       1 GB2         0.2469
      3 C6         29.8080   65.7580    9.7000 C.3       1 GB2         0.0146
      4 C5         30.9570   65.2300    8.8420 C.3       1 GB2         0.0473
      5 N1         30.7550   65.3650    7.4150 N.4       1 GB2         0.2367
      6 C2         31.3260   66.5690    6.8130 C.3       1 GB2        -0.0038
      7 C3         32.6510   66.5270    7.5750 C.3       1 GB2         0.1259
      8 O3         33.6810   65.7670    6.9670 O.3       1 GB2        -0.3837
      9 C4         32.2540   66.0200    8.9760 C.3       1 GB2         0.1332
     10 O4         33.2080   65.1240    9.5290 O.3       1 GB2        -0.3832
     11 C15        27.3820   67.3270   11.6680 C.ar      1 GB2        -0.0549
     12 C14        27.0730   68.7150   11.8230 C.ar      1 GB2        -0.0684
     13 C13        27.9240   69.5600   12.5720 C.ar      1 GB2        -0.0687
     14 C12        29.0640   68.9690   13.1400 C.ar      1 GB2        -0.0684
     15 C11        29.4170   67.5960   13.0170 C.ar      1 GB2        -0.0549
     16 C10        28.5560   66.7360   12.2590 C.ar      1 GB2         0.0066
     17 C9         27.8510   64.2850   12.0030 C.3       1 GB2         0.0966
     18 O9         28.3270   63.1030   11.3630 O.3       1 GB2        -0.3873
     19 H1         29.5751   65.0146   13.0414 H         1 GB2         0.1039
     20 H2         29.8167   64.0875   10.7531 H         1 GB2         0.2034
     21 H3         30.8221   65.2610   11.3200 H         1 GB2         0.2034
     22 H4         29.9115   66.8432    9.8472 H         1 GB2         0.0871
     23 H5         28.8434   65.5438    9.2165 H         1 GB2         0.0871
     24 H6         31.1163   64.1755    9.1114 H         1 GB2         0.0931
     25 H7         29.7623   65.3706    7.2404 H         1 GB2         0.2020
     26 H8         31.1709   64.5648    6.9647 H         1 GB2         0.2020
     27 H9         30.7388   67.4724    7.0342 H         1 GB2         0.0840
     28 H10        31.4600   66.4759    5.7252 H         1 GB2         0.0840
     29 H11        33.0324   67.5548    7.6651 H         1 GB2         0.0675
     30 H12        34.4599   65.7999    7.5099 H         1 GB2         0.2101
     31 H13        32.1181   66.8791    9.6494 H         1 GB2         0.0680
     32 H14        34.0464   65.5639    9.6062 H         1 GB2         0.2102
     33 H15        26.7131   66.7009   11.0886 H         1 GB2         0.0559
     34 H16        26.1799   69.1220   11.3629 H         1 GB2         0.0599
     35 H17        27.7066   70.6141   12.7016 H         1 GB2         0.0559
     36 H18        29.7251   69.6068   13.7156 H         1 GB2         0.0599
     37 H19        30.3152   67.2097   13.4851 H         1 GB2         0.0559
     38 H20        27.0484   64.7361   11.4010 H         1 GB2         0.0637
     39 H21        27.4644   64.0365   13.0024 H         1 GB2         0.0637
     40 H22        27.6136   62.4817   11.2769 H         1 GB2         0.2099
@<TRIPOS>BOND
     1    1    2 1  
     2   16    1 1  
     3    1   17 1  
     4    2    3 1  
     5    3    4 1  
     6    4    5 1  
     7    4    9 1  
     8    5    6 1  
     9    7    6 1  
    10    7    8 1  
    11    9    7 1  
    12    9   10 1  
    13   11   12 ar 
    14   11   16 ar 
    15   12   13 ar 
    16   13   14 ar 
    17   14   15 ar 
    18   15   16 ar 
    19   17   18 1  
    20    1   19 1  
    21    2   20 1  
    22    2   21 1  
    23    3   22 1  
    24    3   23 1  
    25    4   24 1  
    26    5   25 1  
    27    5   26 1  
    28    6   27 1  
    29    6   28 1  
    30    7   29 1  
    31    8   30 1  
    32    9   31 1  
    33   10   32 1  
    34   11   33 1  
    35   12   34 1  
    36   13   35 1  
    37   14   36 1  
    38   15   37 1  
    39   17   38 1  
    40   17   39 1  
    41   18   40 1  
@<TRIPOS>SUBSTRUCTURE
     1 GB2         1

