### 
### Created by X-TOOL on Mon Sep 10 21:12:53 2018
### 

@<TRIPOS>MOLECULE
2f1b_ligand
   43    44     1     0     0
SMALL
GAST_HUCK


@<TRIPOS>ATOM
      1 C15        27.4810   68.3060   12.0960 C.ar      1 GB3        -0.0549
      2 C14        27.3250   69.7320   12.1940 C.ar      1 GB3        -0.0684
      3 C13        28.3190   70.5480   12.7780 C.ar      1 GB3        -0.0687
      4 C12        29.4780   69.9120   13.2620 C.ar      1 GB3        -0.0684
      5 C11        29.6910   68.5010   13.1980 C.ar      1 GB3        -0.0549
      6 C10        28.6690   67.6640   12.6020 C.ar      1 GB3         0.0066
      7 C8         28.8020   66.1330   12.5260 C.3       1 GB3         0.0349
      8 C9         28.9440   65.5020   13.9280 C.3       1 GB3         0.0966
      9 O9         28.9820   64.0920   13.7690 O.3       1 GB3        -0.3873
     10 N7         29.9360   65.9340   11.6160 N.4       1 GB3         0.2469
     11 C6         30.0320   66.3680   10.2220 C.3       1 GB3         0.0146
     12 C5         31.1520   65.7870    9.3650 C.3       1 GB3         0.0476
     13 N1         30.7950   65.9120    7.9400 N.4       1 GB3         0.2387
     14 C2         31.2730   67.1820    7.4060 C.3       1 GB3         0.0042
     15 C3         32.6690   67.1900    7.9950 C.3       1 GB3         0.1285
     16 O3         33.7240   66.5390    7.2960 O.3       1 GB3        -0.3834
     17 C4         32.4220   66.6410    9.4000 C.3       1 GB3         0.1335
     18 O4         33.4740   65.7680    9.7860 O.3       1 GB3        -0.3832
     19 C21        31.3380   67.1790    5.8990 C.3       1 GB3        -0.0191
     20 H1         26.7001   67.7093   11.6385 H         1 GB3         0.0559
     21 H2         26.4218   70.1924   11.8100 H         1 GB3         0.0599
     22 H3         28.1943   71.6223   12.8507 H         1 GB3         0.0559
     23 H4         30.2514   70.5270   13.7078 H         1 GB3         0.0599
     24 H5         30.6024   68.0633   13.5889 H         1 GB3         0.0559
     25 H6         27.8990   65.7051   12.0661 H         1 GB3         0.1039
     26 H7         28.0848   65.7846   14.5540 H         1 GB3         0.0637
     27 H8         29.8735   65.8499   14.4023 H         1 GB3         0.0637
     28 H9         28.1783   63.7993   13.3556 H         1 GB3         0.2099
     29 H10        30.0743   64.9360   11.5875 H         1 GB3         0.2034
     30 H11        30.7193   66.3687   12.0780 H         1 GB3         0.2034
     31 H12        30.1584   67.4607   10.2279 H         1 GB3         0.0871
     32 H13        29.0803   66.1116    9.7336 H         1 GB3         0.0871
     33 H14        31.3506   64.7460    9.6598 H         1 GB3         0.0931
     34 H15        29.7926   65.8673    7.8435 H         1 GB3         0.2023
     35 H16        31.2163   65.1553    7.4244 H         1 GB3         0.2023
     36 H17        30.6657   68.0309    7.7531 H         1 GB3         0.0874
     37 H18        32.9849   68.2402    8.0802 H         1 GB3         0.0678
     38 H19        33.5151   65.6177    7.1963 H         1 GB3         0.2102
     39 H20        32.3225   67.4681   10.1183 H         1 GB3         0.0680
     40 H21        34.2965   66.2432    9.7803 H         1 GB3         0.2102
     41 H22        31.7028   68.1548    5.5458 H         1 GB3         0.0285
     42 H23        30.3344   66.9925    5.4890 H         1 GB3         0.0285
     43 H24        32.0242   66.3876    5.5631 H         1 GB3         0.0285
@<TRIPOS>BOND
     1    1    2 ar 
     2    1    6 ar 
     3    2    3 ar 
     4    3    4 ar 
     5    4    5 ar 
     6    5    6 ar 
     7    6    7 1  
     8    7    8 1  
     9    7   10 1  
    10    8    9 1  
    11   10   11 1  
    12   11   12 1  
    13   12   13 1  
    14   12   17 1  
    15   13   14 1  
    16   14   15 1  
    17   14   19 1  
    18   15   16 1  
    19   15   17 1  
    20   17   18 1  
    21    1   20 1  
    22    2   21 1  
    23    3   22 1  
    24    4   23 1  
    25    5   24 1  
    26    7   25 1  
    27    8   26 1  
    28    8   27 1  
    29    9   28 1  
    30   10   29 1  
    31   10   30 1  
    32   11   31 1  
    33   11   32 1  
    34   12   33 1  
    35   13   34 1  
    36   13   35 1  
    37   14   36 1  
    38   15   37 1  
    39   16   38 1  
    40   17   39 1  
    41   18   40 1  
    42   19   41 1  
    43   19   42 1  
    44   19   43 1  
@<TRIPOS>SUBSTRUCTURE
     1 GB3         1

