### 
### Created by X-TOOL on Mon Sep 10 21:12:54 2018
### 

@<TRIPOS>MOLECULE
2f1g_ligand
   64    67     1     0     0
SMALL
GAST_HUCK


@<TRIPOS>ATOM
      1 O11        21.0960   37.4360   12.1570 O.2       1 GNF        -0.3945
      2 C10        22.0980   37.0540   11.5640 C.2       1 GNF         0.2025
      3 C12        22.6150   35.6820   11.9020 C.3       1 GNF         0.1353
      4 N20        22.9560   35.7680   13.3010 N.pl3     1 GNF        -0.2425
      5 C21        24.1070   36.2820   13.7690 C.2       1 GNF         0.2787
      6 O29        24.3310   36.3550   15.1080 O.3       1 GNF        -0.1975
      7 C28        25.6050   36.9350   15.1510 C.ar      1 GNF         0.1385
      8 C27        26.3120   37.2360   16.3020 C.ar      1 GNF        -0.0329
      9 C26        27.5700   37.7950   16.1520 C.ar      1 GNF        -0.0763
     10 C25        28.0790   38.0370   14.8700 C.ar      1 GNF        -0.0792
     11 C24        27.3400   37.7460   13.7230 C.ar      1 GNF        -0.0662
     12 C23        26.0840   37.1790   13.8700 C.ar      1 GNF         0.0267
     13 N22        25.1170   36.7610   12.9990 N.2       1 GNF        -0.2971
     14 C13        21.5600   34.6070   11.6520 C.3       1 GNF        -0.0088
     15 C14        21.5170   33.4700   12.6840 C.3       1 GNF        -0.0368
     16 C19        22.3590   32.2880   12.1980 C.3       1 GNF        -0.0500
     17 C18        22.2380   31.1170   13.1660 C.3       1 GNF        -0.0528
     18 C17        20.7900   30.6870   13.3780 C.3       1 GNF        -0.0530
     19 C16        19.8150   31.6000   12.6460 C.3       1 GNF        -0.0528
     20 C15        20.0740   33.0650   12.9650 C.3       1 GNF        -0.0500
     21 N9         22.7950   37.7970   10.6800 N.am      1 GNF        -0.2831
     22 C8         22.4270   39.1580   10.2960 C.3       1 GNF         0.0499
     23 C7         23.1540   39.6840    9.0400 C.3       1 GNF         0.0418
     24 N          22.7490   38.9340    7.8580 N.pl3     1 GNF        -0.3267
     25 C5         21.4330   38.8260    7.5470 C.ar      1 GNF         0.0269
     26 C4         20.9730   37.7060    6.8350 C.ar      1 GNF        -0.0526
     27 C3         19.6010   37.5560    6.6040 C.ar      1 GNF        -0.0444
     28 C30        20.5110   39.7580    8.0520 C.ar      1 GNF        -0.0526
     29 C31        19.1560   39.5900    7.8390 C.ar      1 GNF        -0.0444
     30 C2         18.7180   38.4990    7.1320 C.ar      1 GNF         0.0773
     31 O          17.3950   38.4320    6.9340 O.3       1 GNF        -0.3297
     32 C          16.9540   39.4070    6.0360 C.3       1 GNF         0.0565
     33 H1         23.5084   35.4515   11.3030 H         1 GNF         0.0809
     34 H2         22.2736   35.4127   13.9858 H         1 GNF         0.1954
     35 H3         25.8966   37.0415   17.2842 H         1 GNF         0.0551
     36 H4         28.1603   38.0450   17.0261 H         1 GNF         0.0520
     37 H5         29.0714   38.4607   14.7663 H         1 GNF         0.0520
     38 H6         27.7396   37.9588   12.7381 H         1 GNF         0.0523
     39 H7         21.7568   34.1619   10.6655 H         1 GNF         0.0316
     40 H8         20.5742   35.0949   11.6441 H         1 GNF         0.0316
     41 H9         21.9558   33.8375   13.6233 H         1 GNF         0.0303
     42 H10        23.4128   32.5963   12.1319 H         1 GNF         0.0268
     43 H11        22.0054   31.9751   11.2045 H         1 GNF         0.0268
     44 H12        22.6640   31.4143   14.1356 H         1 GNF         0.0265
     45 H13        22.8044   30.2647   12.7625 H         1 GNF         0.0265
     46 H14        20.5643   30.7151   14.4542 H         1 GNF         0.0265
     47 H15        20.6652   29.6601   13.0039 H         1 GNF         0.0265
     48 H16        18.7893   31.3442   12.9500 H         1 GNF         0.0265
     49 H17        19.9257   31.4454   11.5626 H         1 GNF         0.0265
     50 H18        19.4058   33.6849   12.3492 H         1 GNF         0.0268
     51 H19        19.8582   33.2391   14.0295 H         1 GNF         0.0268
     52 H20        23.6099   37.3935   10.2638 H         1 GNF         0.1852
     53 H21        22.6624   39.8282   11.1359 H         1 GNF         0.0539
     54 H22        21.3445   39.1800   10.1016 H         1 GNF         0.0539
     55 H23        24.2398   39.5779    9.1803 H         1 GNF         0.0527
     56 H24        22.9048   40.7458    8.8967 H         1 GNF         0.0527
     57 H25        23.4595   38.4874    7.2608 H         1 GNF         0.1723
     58 H26        21.6740   36.9650    6.4680 H         1 GNF         0.0489
     59 H27        19.2294   36.7194    6.0233 H         1 GNF         0.0511
     60 H28        20.8652   40.6153    8.6129 H         1 GNF         0.0489
     61 H29        18.4468   40.3125    8.2264 H         1 GNF         0.0511
     62 H30        15.8659   39.3170    5.9023 H         1 GNF         0.0572
     63 H31        17.4553   39.2667    5.0670 H         1 GNF         0.0572
     64 H32        17.1934   40.4051    6.4316 H         1 GNF         0.0572
@<TRIPOS>BOND
     1    1    2 2  
     2    2    3 1  
     3    2   21 am 
     4    3    4 1  
     5    3   14 1  
     6    4    5 1  
     7    5    6 1  
     8    5   13 2  
     9    6    7 1  
    10    7    8 ar 
    11    7   12 ar 
    12    8    9 ar 
    13    9   10 ar 
    14   10   11 ar 
    15   11   12 ar 
    16   12   13 1  
    17   14   15 1  
    18   15   16 1  
    19   15   20 1  
    20   16   17 1  
    21   17   18 1  
    22   18   19 1  
    23   19   20 1  
    24   21   22 1  
    25   22   23 1  
    26   23   24 1  
    27   24   25 1  
    28   25   26 ar 
    29   25   28 ar 
    30   26   27 ar 
    31   27   30 ar 
    32   28   29 ar 
    33   29   30 ar 
    34   30   31 1  
    35   31   32 1  
    36    3   33 1  
    37    4   34 1  
    38    8   35 1  
    39    9   36 1  
    40   10   37 1  
    41   11   38 1  
    42   14   39 1  
    43   14   40 1  
    44   15   41 1  
    45   16   42 1  
    46   16   43 1  
    47   17   44 1  
    48   17   45 1  
    49   18   46 1  
    50   18   47 1  
    51   19   48 1  
    52   19   49 1  
    53   20   50 1  
    54   20   51 1  
    55   21   52 1  
    56   22   53 1  
    57   22   54 1  
    58   23   55 1  
    59   23   56 1  
    60   24   57 1  
    61   26   58 1  
    62   27   59 1  
    63   28   60 1  
    64   29   61 1  
    65   32   62 1  
    66   32   63 1  
    67   32   64 1  
@<TRIPOS>SUBSTRUCTURE
     1 GNF         1

