### 
### Created by X-TOOL on Mon Sep 10 21:12:55 2018
### 

@<TRIPOS>MOLECULE
2f2c_ligand
   54    56     1     0     0
SMALL
GAST_HUCK


@<TRIPOS>ATOM
      1 O1         27.4990   22.7740   58.0140 O.3       1 AP9        -0.3927
      2 C15        28.4380   22.0740   58.8400 C.3       1 AP9         0.0675
      3 C12        29.8230   22.1260   58.1860 C.3       1 AP9         0.0659
      4 C13        30.4190   20.7610   57.8500 C.3       1 AP9        -0.0214
      5 C14        31.8920   20.9050   57.4820 C.3       1 AP9        -0.0605
      6 C16        29.6500   20.0820   56.7200 C.3       1 AP9        -0.0605
      7 N2         30.7740   22.9020   58.9760 N.pl3     1 AP9        -0.2919
      8 C2         30.9780   22.8650   60.3210 C.ar      1 AP9         0.1556
      9 N3         31.8580   23.7890   60.7880 N.ar      1 AP9        -0.2634
     10 C4         32.1810   23.8960   62.0980 C.ar      1 AP9         0.1435
     11 C5         31.5440   22.9630   63.0390 C.ar      1 AP9         0.0957
     12 N7         32.0290   23.2780   64.2540 N.2       1 AP9        -0.3037
     13 C8         32.8930   24.3140   64.1050 C.2       1 AP9         0.1051
     14 N9         32.9950   24.6910   62.8170 N.pl3     1 AP9        -0.2245
     15 C9         33.8670   25.8130   62.3340 C.3       1 AP9         0.0648
     16 C10        33.3530   27.0990   62.9770 C.3       1 AP9        -0.0349
     17 C11        33.7960   26.0270   60.8190 C.3       1 AP9        -0.0349
     18 C6         30.5920   21.9480   62.4950 C.ar      1 AP9         0.1397
     19 N1         30.3580   21.9660   61.1510 N.ar      1 AP9        -0.2524
     20 N6         29.9800   21.0910   63.3560 N.pl3     1 AP9        -0.2589
     21 C1A        29.6030   19.8100   63.1530 C.ar      1 AP9         0.0531
     22 C2A        30.1820   18.8130   63.9450 C.ar      1 AP9        -0.0220
     23 C3A        29.8090   17.4750   63.8060 C.ar      1 AP9         0.0256
     24 N10        30.3920   16.5260   64.5730 N.pl3     1 AP9        -0.3392
     25 C4A        28.8350   17.1250   62.8750 C.ar      1 AP9        -0.0423
     26 C5A        28.2440   18.1190   62.0910 C.ar      1 AP9         0.0201
     27 CL1        27.2030   17.7230   61.0850 Cl        1 AP9        -0.0770
     28 C6A        28.6150   19.4640   62.2290 C.ar      1 AP9        -0.0374
     29 H1         26.6394   22.7431   58.4175 H         1 AP9         0.2095
     30 H2         28.1220   21.0260   58.9491 H         1 AP9         0.0580
     31 H3         28.4814   22.5490   59.8312 H         1 AP9         0.0580
     32 H4         29.6903   22.6542   57.2303 H         1 AP9         0.0583
     33 H5         30.3459   20.1248   58.7444 H         1 AP9         0.0319
     34 H6         32.3085   19.9155   57.2425 H         1 AP9         0.0233
     35 H7         32.4413   21.3384   58.3308 H         1 AP9         0.0233
     36 H8         31.9886   21.5649   56.6073 H         1 AP9         0.0233
     37 H9         28.5912   19.9867   57.0026 H         1 AP9         0.0233
     38 H10        30.0722   19.0827   56.5379 H         1 AP9         0.0233
     39 H11        29.7323   20.6871   55.8051 H         1 AP9         0.0233
     40 H12        31.3652   23.5606   58.4491 H         1 AP9         0.1848
     41 H13        33.4358   24.7817   64.9250 H         1 AP9         0.1311
     42 H14        34.9085   25.6186   62.6296 H         1 AP9         0.0642
     43 H15        33.9701   27.9469   62.6451 H         1 AP9         0.0259
     44 H16        33.4107   27.0100   64.0719 H         1 AP9         0.0259
     45 H17        32.3080   27.2666   62.6772 H         1 AP9         0.0259
     46 H18        34.4559   26.8600   60.5351 H         1 AP9         0.0259
     47 H19        32.7614   26.2640   60.5302 H         1 AP9         0.0259
     48 H20        34.1198   25.1107   60.3037 H         1 AP9         0.0259
     49 H21        29.7761   21.4712   64.2913 H         1 AP9         0.2170
     50 H22        30.9326   19.0838   64.6787 H         1 AP9         0.0430
     51 H23        30.1160   15.5391   64.4696 H         1 AP9         0.1716
     52 H24        31.1120   16.7901   65.2606 H         1 AP9         0.1716
     53 H25        28.5374   16.0891   62.7592 H         1 AP9         0.0428
     54 H26        28.1395   20.2278   61.6243 H         1 AP9         0.0436
@<TRIPOS>BOND
     1    1    2 1  
     2    2    3 1  
     3    3    4 1  
     4    3    7 1  
     5    4    5 1  
     6    4    6 1  
     7    7    8 1  
     8    8    9 ar 
     9    8   19 ar 
    10    9   10 ar 
    11   10   11 ar 
    12   10   14 1  
    13   11   12 1  
    14   11   18 ar 
    15   12   13 2  
    16   13   14 1  
    17   14   15 1  
    18   15   16 1  
    19   15   17 1  
    20   18   19 ar 
    21   18   20 1  
    22   20   21 1  
    23   21   22 ar 
    24   21   28 ar 
    25   22   23 ar 
    26   23   24 1  
    27   23   25 ar 
    28   25   26 ar 
    29   26   27 1  
    30   26   28 ar 
    31    1   29 1  
    32    2   30 1  
    33    2   31 1  
    34    3   32 1  
    35    4   33 1  
    36    5   34 1  
    37    5   35 1  
    38    5   36 1  
    39    6   37 1  
    40    6   38 1  
    41    6   39 1  
    42    7   40 1  
    43   13   41 1  
    44   15   42 1  
    45   16   43 1  
    46   16   44 1  
    47   16   45 1  
    48   17   46 1  
    49   17   47 1  
    50   17   48 1  
    51   20   49 1  
    52   22   50 1  
    53   24   51 1  
    54   24   52 1  
    55   25   53 1  
    56   28   54 1  
@<TRIPOS>SUBSTRUCTURE
     1 AP9         1

