### 
### Created by X-TOOL on Mon Sep 10 21:12:54 2018
### 

@<TRIPOS>MOLECULE
2f2h_ligand
   53    55     1     0     0
SMALL
GAST_HUCK


@<TRIPOS>ATOM
      1 C14       141.3860   60.1150  132.6660 C.ar      1 XTG        -0.0239
      2 C13       141.3370   58.7280  132.6660 C.ar      1 XTG        -0.0271
      3 C12       142.4670   57.9860  132.3270 C.ar      1 XTG         0.1882
      4 N1        142.4460   56.6300  132.3060 N.2       1 XTG         0.3062
      5 O10       143.6040   55.9920  131.8150 O.2       1 XTG         0.1732
      6 O11       141.3180   55.8260  132.7560 O.2       1 XTG         0.1732
      7 C17       143.6300   58.6740  131.9720 C.ar      1 XTG        -0.0271
      8 C16       143.6770   60.0560  131.9790 C.ar      1 XTG        -0.0239
      9 C15       142.5500   60.7890  132.3310 C.ar      1 XTG         0.1016
     10 O1        142.5250   62.1500  132.3940 O.3       1 XTG        -0.2805
     11 C1        143.7900   62.8490  132.7010 C.3       1 XTG         0.2110
     12 O5        144.6050   62.2950  133.7470 O.3       1 XTG        -0.3381
     13 C2        143.5230   64.3130  133.1030 C.3       1 XTG         0.1388
     14 O2        142.7280   64.9010  132.1130 O.3       1 XTG        -0.3837
     15 C3        144.8330   65.0720  133.2410 C.3       1 XTG         0.1144
     16 O3        144.6250   66.3780  133.6620 O.3       1 XTG        -0.3864
     17 C4        145.6810   64.2860  134.1930 C.3       1 XTG         0.1105
     18 O4        146.9590   64.8320  134.3220 O.3       1 XTG        -0.3865
     19 C5        145.8420   62.9300  133.5620 C.3       1 XTG         0.0995
     20 C6        147.1050   62.3560  134.1110 C.3       1 XTG         0.0251
     21 S6        146.8700   60.9700  135.2510 S.3       1 XTG        -0.1245
     22 C7        147.7090   61.1920  136.9100 C.3       1 XTG         0.1326
     23 O9        146.9010   60.7380  138.0030 O.3       1 XTG        -0.3608
     24 C11       146.7780   59.2870  138.0820 C.3       1 XTG         0.0776
     25 C10       148.1020   58.4950  138.1180 C.3       1 XTG         0.1068
     26 O8        147.7750   57.0960  137.8880 O.3       1 XTG        -0.3869
     27 C9        149.0790   59.0220  137.0360 C.3       1 XTG         0.1122
     28 O7        150.3650   58.3390  137.1410 O.3       1 XTG        -0.3865
     29 C8        149.1200   60.5820  137.1120 C.3       1 XTG         0.1188
     30 O6        149.9970   61.2920  136.2080 O.3       1 XTG        -0.3857
     31 H1        140.5001   60.6801  132.9322 H         1 XTG         0.0561
     32 H2        140.4167   58.2200  132.9306 H         1 XTG         0.0666
     33 H3        144.5126   58.1136  131.6855 H         1 XTG         0.0666
     34 H4        144.5937   60.5680  131.7097 H         1 XTG         0.0561
     35 H5        144.3863   62.8390  131.7767 H         1 XTG         0.0996
     36 H6        142.9901   64.3376  134.0650 H         1 XTG         0.0675
     37 H7        141.9079   64.4264  132.0437 H         1 XTG         0.2101
     38 H8        145.3343   65.1075  132.2625 H         1 XTG         0.0648
     39 H9        145.4613   66.8222  133.7376 H         1 XTG         0.2100
     40 H10       145.1950   64.2181  135.1774 H         1 XTG         0.0646
     41 H11       146.8906   65.7218  134.6479 H         1 XTG         0.2100
     42 H12       145.9890   63.0343  132.4769 H         1 XTG         0.0632
     43 H13       147.6400   63.1539  134.6468 H         1 XTG         0.0403
     44 H14       147.7180   62.0060  133.2673 H         1 XTG         0.0403
     45 H15       147.8290   62.2795  137.0237 H         1 XTG         0.0739
     46 H16       146.2082   58.9496  137.2037 H         1 XTG         0.0587
     47 H17       146.2174   59.0464  138.9973 H         1 XTG         0.0587
     48 H18       148.5720   58.6052  139.1064 H         1 XTG         0.0643
     49 H19       147.1861   56.7935  138.5693 H         1 XTG         0.2100
     50 H20       148.6663   58.7624  136.0500 H         1 XTG         0.0647
     51 H21       150.7374   58.4978  138.0005 H         1 XTG         0.2100
     52 H22       149.4550   60.8225  138.1318 H         1 XTG         0.0655
     53 H23       149.7502   61.0979  135.3114 H         1 XTG         0.2100
@<TRIPOS>BOND
     1    1    2 ar 
     2    1    9 ar 
     3    2    3 ar 
     4    3    4 1  
     5    3    7 ar 
     6    4    5 2  
     7    4    6 2  
     8    7    8 ar 
     9    8    9 ar 
    10    9   10 1  
    11   10   11 1  
    12   11   12 1  
    13   11   13 1  
    14   12   19 1  
    15   13   14 1  
    16   13   15 1  
    17   15   16 1  
    18   15   17 1  
    19   17   18 1  
    20   17   19 1  
    21   19   20 1  
    22   20   21 1  
    23   21   22 1  
    24   22   23 1  
    25   22   29 1  
    26   23   24 1  
    27   24   25 1  
    28   25   26 1  
    29   25   27 1  
    30   27   28 1  
    31   27   29 1  
    32   29   30 1  
    33    1   31 1  
    34    2   32 1  
    35    7   33 1  
    36    8   34 1  
    37   11   35 1  
    38   13   36 1  
    39   14   37 1  
    40   15   38 1  
    41   16   39 1  
    42   17   40 1  
    43   18   41 1  
    44   19   42 1  
    45   20   43 1  
    46   20   44 1  
    47   22   45 1  
    48   24   46 1  
    49   24   47 1  
    50   25   48 1  
    51   26   49 1  
    52   27   50 1  
    53   28   51 1  
    54   29   52 1  
    55   30   53 1  
@<TRIPOS>SUBSTRUCTURE
     1 XTG         1

