### 
### Created by X-TOOL on Mon Sep 10 21:12:54 2018
### 

@<TRIPOS>MOLECULE
2f34_ligand
   38    39     1     0     0
SMALL
GAST_HUCK


@<TRIPOS>ATOM
      1 OXT       -10.4830   -4.1740   13.7510 O.co2     1 UBA        -0.5642
      2 C          -9.6150   -4.7760   14.4690 C.2       1 UBA         0.0871
      3 O          -9.9600   -5.7190   15.2140 O.co2     1 UBA        -0.5642
      4 CA         -8.1730   -4.3780   14.4320 C.3       1 UBA         0.0557
      5 N          -7.9910   -3.3160   13.4520 N.4       1 UBA         0.2346
      6 CB         -7.7160   -3.9870   15.8700 C.3       1 UBA         0.1158
      7 N4         -6.3830   -3.4150   15.7340 N.am      1 UBA        -0.1934
      8 C5         -5.3100   -4.3350   15.5780 C.2       1 UBA         0.3289
      9 O8         -5.5700   -5.5430   15.6080 O.2       1 UBA        -0.3841
     10 N6         -4.0160   -3.8530   15.4080 N.am      1 UBA        -0.1627
     11 C1         -3.7600   -2.4900   15.4050 C.2       1 UBA         0.1971
     12 O7         -2.6030   -2.1060   15.2260 O.2       1 UBA        -0.4076
     13 C2         -4.8910   -1.5420   15.5630 C.2       1 UBA         0.0227
     14 C6         -4.6330   -0.0450   15.5690 C.3       1 UBA        -0.0437
     15 C3         -6.1510   -2.0930   15.7330 C.2       1 UBA         0.0502
     16 C17        -2.8740   -4.7230   15.1850 C.3       1 UBA         0.0845
     17 C18        -2.5480   -5.4600   16.4270 C.2       1 UBA        -0.0184
     18 C23        -2.8360   -5.1430   17.7660 C.2       1 UBA        -0.0630
     19 C22        -2.3610   -6.0580   18.7250 C.2       1 UBA        -0.0053
     20 S20        -1.5220   -7.3310   17.8860 S.3       1 UBA        -0.0441
     21 C19        -1.7750   -6.7000   16.3190 C.2       1 UBA         0.0573
     22 C10        -1.2810   -7.3790   15.1120 C.2       1 UBA         0.0574
     23 O2         -1.1130   -6.7180   14.0510 O.co2     1 UBA        -0.5679
     24 O1         -1.0490   -8.6010   15.2660 O.co2     1 UBA        -0.5679
     25 H1         -7.5743   -5.2424   14.1091 H         1 UBA         0.1052
     26 H2         -7.0201   -3.0462   13.4253 H         1 UBA         0.2011
     27 H3         -8.5538   -2.5206   13.7101 H         1 UBA         0.2011
     28 H4         -8.2730   -3.6462   12.5424 H         1 UBA         0.2011
     29 H5         -7.6843   -4.8775   16.5149 H         1 UBA         0.0682
     30 H6         -8.4060   -3.2466   16.3008 H         1 UBA         0.0682
     31 H7         -5.5854    0.4907   15.6956 H         1 UBA         0.0296
     32 H8         -4.1697    0.2511   14.6163 H         1 UBA         0.0296
     33 H9         -3.9572    0.2073   16.3995 H         1 UBA         0.0296
     34 H10        -6.9954   -1.4196   15.8728 H         1 UBA         0.1010
     35 H11        -2.0074   -4.1163   14.8835 H         1 UBA         0.0711
     36 H12        -3.1139   -5.4416   14.3875 H         1 UBA         0.0711
     37 H13        -3.3905   -4.2478   18.0435 H         1 UBA         0.0414
     38 H14        -2.4952   -5.9823   19.8031 H         1 UBA         0.0770
@<TRIPOS>BOND
     1    1    2 ar 
     2    2    3 ar 
     3    2    4 1  
     4    4    5 1  
     5    4    6 1  
     6    6    7 1  
     7    7    8 am 
     8    7   15 1  
     9    8    9 2  
    10    8   10 am 
    11   10   11 am 
    12   10   16 1  
    13   11   12 2  
    14   11   13 1  
    15   13   14 1  
    16   13   15 2  
    17   16   17 1  
    18   17   18 1  
    19   17   21 2  
    20   18   19 2  
    21   19   20 1  
    22   20   21 1  
    23   21   22 1  
    24   22   23 ar 
    25   22   24 ar 
    26    4   25 1  
    27    5   26 1  
    28    5   27 1  
    29    5   28 1  
    30    6   29 1  
    31    6   30 1  
    32   14   31 1  
    33   14   32 1  
    34   14   33 1  
    35   15   34 1  
    36   16   35 1  
    37   16   36 1  
    38   18   37 1  
    39   19   38 1  
@<TRIPOS>SUBSTRUCTURE
     1 UBA         1

