### 
### Created by X-TOOL on Mon Sep 10 21:12:54 2018
### 

@<TRIPOS>MOLECULE
2f35_ligand
   38    39     1     0     0
SMALL
GAST_HUCK


@<TRIPOS>ATOM
      1 O1         -1.2690   -6.6560   14.3420 O.co2     1 UBC        -0.5630
      2 C10        -1.6110   -7.3180   15.3520 C.2       1 UBC         0.0587
      3 O2         -1.7410   -8.5660   15.3400 O.co2     1 UBC        -0.5630
      4 C22        -1.8850   -6.5910   16.6350 C.ar      1 UBC         0.0139
      5 C23        -1.4680   -7.1120   17.8600 C.ar      1 UBC        -0.0541
      6 C24        -1.7500   -6.4090   19.0390 C.ar      1 UBC        -0.0651
      7 C25        -2.4360   -5.1970   19.0220 C.ar      1 UBC        -0.0659
      8 C26        -2.8640   -4.6420   17.8260 C.ar      1 UBC        -0.0542
      9 C21        -2.6190   -5.3030   16.6370 C.ar      1 UBC        -0.0015
     10 C17        -3.0810   -4.7130   15.3310 C.3       1 UBC         0.0948
     11 N6         -4.3010   -3.9020   15.4660 N.am      1 UBC        -0.1602
     12 C5         -5.5890   -4.4390   15.5960 C.2       1 UBC         0.3355
     13 O8         -5.7670   -5.6790   15.6440 O.2       1 UBC        -0.3813
     14 C1         -4.1410   -2.5150   15.4140 C.2       1 UBC         0.1867
     15 O7         -2.9900   -2.0900   15.2800 O.2       1 UBC        -0.4120
     16 C2         -5.2300   -1.6630   15.5060 C.2       1 UBC         0.0065
     17 C3         -6.5030   -2.2140   15.6410 C.2       1 UBC         0.0567
     18 N4         -6.6870   -3.5430   15.6980 N.am      1 UBC        -0.1819
     19 CB         -8.0500   -4.0790   15.8100 C.3       1 UBC         0.1204
     20 CA         -8.4820   -4.4880   14.3860 C.3       1 UBC         0.0566
     21 N          -8.2560   -3.4230   13.4080 N.4       1 UBC         0.2347
     22 C          -9.9370   -4.8630   14.4070 C.2       1 UBC         0.0872
     23 O         -10.7210   -4.2070   13.6910 O.co2     1 UBC        -0.5642
     24 OXT       -10.3280   -5.8080   15.1360 O.co2     1 UBC        -0.5642
     25 H1         -0.9305   -8.0525   17.8996 H         1 UBC         0.0633
     26 H2         -1.4259   -6.8191   19.9887 H         1 UBC         0.0566
     27 H3         -2.6375   -4.6820   19.9543 H         1 UBC         0.0621
     28 H4         -3.3887   -3.6935   17.8232 H         1 UBC         0.0565
     29 H5         -3.2821   -5.5340   14.6271 H         1 UBC         0.0749
     30 H6         -2.2788   -4.0754   14.9312 H         1 UBC         0.0749
     31 H7         -5.0936   -0.5831   15.4734 H         1 UBC         0.0258
     32 H8         -7.3664   -1.5531   15.7015 H         1 UBC         0.1177
     33 H9         -8.7290   -3.3095   16.2061 H         1 UBC         0.0692
     34 H10        -8.0599   -4.9547   16.4757 H         1 UBC         0.0692
     35 H11        -7.8920   -5.3652   14.0821 H         1 UBC         0.1052
     36 H12        -8.5522   -3.7355   12.4966 H         1 UBC         0.2011
     37 H13        -7.2749   -3.1933   13.3820 H         1 UBC         0.2011
     38 H14        -8.7853   -2.6067   13.6717 H         1 UBC         0.2011
@<TRIPOS>BOND
     1    1    2 ar 
     2    2    3 ar 
     3    2    4 1  
     4    4    5 ar 
     5    4    9 ar 
     6    5    6 ar 
     7    6    7 ar 
     8    7    8 ar 
     9    8    9 ar 
    10    9   10 1  
    11   10   11 1  
    12   11   12 am 
    13   11   14 am 
    14   12   13 2  
    15   12   18 am 
    16   14   15 2  
    17   14   16 1  
    18   16   17 2  
    19   17   18 1  
    20   18   19 1  
    21   19   20 1  
    22   20   21 1  
    23   20   22 1  
    24   22   23 ar 
    25   22   24 ar 
    26    5   25 1  
    27    6   26 1  
    28    7   27 1  
    29    8   28 1  
    30   10   29 1  
    31   10   30 1  
    32   16   31 1  
    33   17   32 1  
    34   19   33 1  
    35   19   34 1  
    36   20   35 1  
    37   21   36 1  
    38   21   37 1  
    39   21   38 1  
@<TRIPOS>SUBSTRUCTURE
     1 UBC         1

