### 
### Created by X-TOOL on Mon Sep 10 21:12:54 2018
### 

@<TRIPOS>MOLECULE
2f3e_ligand
  100   100     1     0     0
SMALL
GAST_HUCK


@<TRIPOS>ATOM
      1 S1         31.5950    8.5370   15.4440 S.3       1 AXQ        -0.1483
      2 C2         32.3940    6.8820   15.5310 C.3       1 AXQ         0.0209
      3 C5         31.3630    5.8880   14.8940 C.3       1 AXQ         0.0771
      4 N7         30.3040    5.6570   15.8710 N.am      1 AXQ        -0.2787
      5 C9         29.0060    5.7060   15.4860 C.2       1 AXQ         0.2017
      6 C10        27.9870    5.4130   16.5780 C.3       1 AXQ         0.1281
      7 N12        28.0540    6.4990   17.5540 N.am      1 AXQ        -0.2640
      8 C14        27.6110    6.3170   18.8190 C.2       1 AXQ         0.2047
      9 C15        27.7570    7.5040   19.7220 C.3       1 AXQ         0.1418
     10 C17        29.2420    7.5520   20.0720 C.3       1 AXQ         0.0358
     11 S20        29.5800    9.0960   20.8870 S.3       1 AXQ        -0.1460
     12 C21        31.3730    9.0660   20.5590 C.3       1 AXQ         0.0107
     13 C24        31.6750    9.5930   19.1690 C.2       1 AXQ        -0.0881
     14 C26        32.0440    8.8050   18.1490 C.2       1 AXQ        -0.0881
     15 C28        32.3960    9.4170   16.8200 C.3       1 AXQ         0.0105
     16 N31        26.8870    7.3750   20.8910 N.am      1 AXQ        -0.2404
     17 C33        25.5410    7.4390   20.6940 C.2       1 AXQ         0.3223
     18 O34        25.0230    7.6400   19.5950 O.2       1 AXQ        -0.3774
     19 O35        24.8270    7.2460   21.8540 O.3       1 AXQ        -0.2580
     20 C36        23.3540    7.2510   21.6710 C.3       1 AXQ         0.0905
     21 C37        22.6820    7.0010   23.0440 C.3       1 AXQ        -0.0320
     22 C41        22.8420    8.6170   21.1280 C.3       1 AXQ        -0.0320
     23 C45        22.9120    6.1060   20.7160 C.3       1 AXQ        -0.0320
     24 O49        27.1240    5.2840   19.2480 O.2       1 AXQ        -0.3944
     25 C50        26.5360    5.2110   16.0490 C.3       1 AXQ        -0.0244
     26 O54        28.6530    5.9570   14.3430 O.2       1 AXQ        -0.3945
     27 C55        32.0430    4.5570   14.4090 C.3       1 AXQ         0.0811
     28 O57        32.6830    3.9000   15.4840 O.3       1 AXQ        -0.3893
     29 C59        31.0440    3.5260   13.8540 C.3       1 AXQ        -0.0051
     30 C62        31.8410    2.6610   12.8760 C.3       1 AXQ         0.0483
     31 C64        31.2100    1.2720   12.6790 C.3       1 AXQ        -0.0452
     32 C68        31.7910    3.3110   11.5070 C.2       1 AXQ         0.1811
     33 O69        30.8060    3.9620   11.1850 O.2       1 AXQ        -0.3966
     34 N70        32.8570    3.1370   10.7170 N.am      1 AXQ        -0.2652
     35 C72        32.8350    3.7200    9.3760 C.3       1 AXQ         0.1330
     36 C74        34.2290    3.7060    8.7150 C.3       1 AXQ        -0.0063
     37 C76        34.6480    2.2580    8.4600 C.3       1 AXQ        -0.0584
     38 C80        34.2030    4.4480    7.3620 C.3       1 AXQ        -0.0584
     39 C84        31.8230    2.9820    8.5390 C.2       1 AXQ         0.2019
     40 O85        31.6320    1.7890    8.7560 O.2       1 AXQ        -0.3945
     41 N86        31.1670    3.6850    7.5900 N.am      1 AXQ        -0.2850
     42 C88        30.1730    2.9780    6.7790 C.3       1 AXQ         0.0309
     43 C91        29.1020    3.9650    6.2750 C.3       1 AXQ        -0.0330
     44 C94        28.0550    4.1920    7.3720 C.3       1 AXQ        -0.0541
     45 C97        26.9960    5.1660    6.8320 C.3       1 AXQ        -0.0652
     46 H1         32.5977    6.6075   16.5765 H         1 AXQ         0.0401
     47 H2         33.3347    6.8783   14.9609 H         1 AXQ         0.0401
     48 H3         30.9176    6.3698   14.0111 H         1 AXQ         0.0590
     49 H4         30.5362    5.4627   16.8241 H         1 AXQ         0.1856
     50 H5         28.2845    4.4788   17.0767 H         1 AXQ         0.0797
     51 H6         28.4309    7.3850   17.2839 H         1 AXQ         0.1883
     52 H7         27.4783    8.4221   19.1840 H         1 AXQ         0.0808
     53 H8         29.8424    7.4782   19.1532 H         1 AXQ         0.0426
     54 H9         29.4926    6.7163   20.7419 H         1 AXQ         0.0426
     55 H10        31.7371    8.0311   20.6393 H         1 AXQ         0.0500
     56 H11        31.8862    9.6940   21.3021 H         1 AXQ         0.0500
     57 H12        31.5878   10.6638   18.9909 H         1 AXQ         0.0458
     58 H13        32.0889    7.7251   18.2819 H         1 AXQ         0.0458
     59 H14        32.0671   10.4666   16.8121 H         1 AXQ         0.0500
     60 H15        33.4868    9.3735   16.6848 H         1 AXQ         0.0500
     61 H16        27.2687    7.2439   21.8060 H         1 AXQ         0.1899
     62 H17        21.5887    7.0022   22.9227 H         1 AXQ         0.0260
     63 H18        22.9739    7.7965   23.7454 H         1 AXQ         0.0260
     64 H19        23.0060    6.0268   23.4389 H         1 AXQ         0.0260
     65 H20        21.7493    8.5773   21.0075 H         1 AXQ         0.0260
     66 H21        23.3109    8.8237   20.1547 H         1 AXQ         0.0260
     67 H22        23.1038    9.4153   21.8381 H         1 AXQ         0.0260
     68 H23        21.8188    6.1300   20.5961 H         1 AXQ         0.0260
     69 H24        23.2130    5.1372   21.1411 H         1 AXQ         0.0260
     70 H25        23.3914    6.2409   19.7352 H         1 AXQ         0.0260
     71 H26        26.5232    4.3884   15.3189 H         1 AXQ         0.0277
     72 H27        26.1900    6.1362   15.5650 H         1 AXQ         0.0277
     73 H28        25.8701    4.9657   16.8895 H         1 AXQ         0.0277
     74 H29        32.7787    4.8090   13.6311 H         1 AXQ         0.0618
     75 H30        33.3496    4.4694   15.8500 H         1 AXQ         0.2099
     76 H31        30.2192    4.0336   13.3325 H         1 AXQ         0.0318
     77 H32        30.6379    2.9085   14.6687 H         1 AXQ         0.0318
     78 H33        32.8778    2.5629   13.2300 H         1 AXQ         0.0536
     79 H34        31.8176    0.6905   11.9700 H         1 AXQ         0.0257
     80 H35        30.1907    1.3854   12.2814 H         1 AXQ         0.0257
     81 H36        31.1706    0.7468   13.6447 H         1 AXQ         0.0257
     82 H37        33.6510    2.6198   11.0365 H         1 AXQ         0.1883
     83 H38        32.5150    4.7689    9.4619 H         1 AXQ         0.0802
     84 H39        34.9539    4.1913    9.3851 H         1 AXQ         0.0343
     85 H40        35.6417    2.2415    7.9886 H         1 AXQ         0.0234
     86 H41        33.9176    1.7770    7.7928 H         1 AXQ         0.0234
     87 H42        34.6862    1.7137    9.4151 H         1 AXQ         0.0234
     88 H43        33.9032    5.4940    7.5232 H         1 AXQ         0.0234
     89 H44        33.4823    3.9595    6.6897 H         1 AXQ         0.0234
     90 H45        35.2049    4.4194    6.9088 H         1 AXQ         0.0234
     91 H46        31.3540    4.6567    7.4459 H         1 AXQ         0.1851
     92 H47        29.6920    2.1998    7.3898 H         1 AXQ         0.0520
     93 H48        30.6721    2.5113    5.9170 H         1 AXQ         0.0520
     94 H49        28.6123    3.5494    5.3820 H         1 AXQ         0.0285
     95 H50        29.5783    4.9231    6.0196 H         1 AXQ         0.0285
     96 H51        28.5363    4.6220    8.2627 H         1 AXQ         0.0263
     97 H52        27.5804    3.2358    7.6372 H         1 AXQ         0.0263
     98 H53        26.2332    5.3434    7.6045 H         1 AXQ         0.0230
     99 H54        26.5204    4.7328    5.9398 H         1 AXQ         0.0230
    100 H55        27.4763    6.1190    6.5653 H         1 AXQ         0.0230
@<TRIPOS>BOND
     1    1    2 1  
     2    1   15 1  
     3    2    3 1  
     4    3    4 1  
     5    3   27 1  
     6    4    5 am 
     7    5    6 1  
     8    5   26 2  
     9    6    7 1  
    10    6   25 1  
    11    7    8 am 
    12    8    9 1  
    13    8   24 2  
    14    9   10 1  
    15    9   16 1  
    16   10   11 1  
    17   11   12 1  
    18   12   13 1  
    19   13   14 2  
    20   14   15 1  
    21   16   17 am 
    22   17   18 2  
    23   17   19 1  
    24   19   20 1  
    25   20   21 1  
    26   20   22 1  
    27   20   23 1  
    28   27   28 1  
    29   27   29 1  
    30   29   30 1  
    31   30   31 1  
    32   30   32 1  
    33   32   33 2  
    34   32   34 am 
    35   34   35 1  
    36   35   36 1  
    37   35   39 1  
    38   36   37 1  
    39   36   38 1  
    40   39   40 2  
    41   39   41 am 
    42   41   42 1  
    43   42   43 1  
    44   43   44 1  
    45   44   45 1  
    46    2   46 1  
    47    2   47 1  
    48    3   48 1  
    49    4   49 1  
    50    6   50 1  
    51    7   51 1  
    52    9   52 1  
    53   10   53 1  
    54   10   54 1  
    55   12   55 1  
    56   12   56 1  
    57   13   57 1  
    58   14   58 1  
    59   15   59 1  
    60   15   60 1  
    61   16   61 1  
    62   21   62 1  
    63   21   63 1  
    64   21   64 1  
    65   22   65 1  
    66   22   66 1  
    67   22   67 1  
    68   23   68 1  
    69   23   69 1  
    70   23   70 1  
    71   25   71 1  
    72   25   72 1  
    73   25   73 1  
    74   27   74 1  
    75   28   75 1  
    76   29   76 1  
    77   29   77 1  
    78   30   78 1  
    79   31   79 1  
    80   31   80 1  
    81   31   81 1  
    82   34   82 1  
    83   35   83 1  
    84   36   84 1  
    85   37   85 1  
    86   37   86 1  
    87   37   87 1  
    88   38   88 1  
    89   38   89 1  
    90   38   90 1  
    91   41   91 1  
    92   42   92 1  
    93   42   93 1  
    94   43   94 1  
    95   43   95 1  
    96   44   96 1  
    97   44   97 1  
    98   45   98 1  
    99   45   99 1  
   100   45  100 1  
@<TRIPOS>SUBSTRUCTURE
     1 AXQ         1

