### 
### Created by X-TOOL on Mon Sep 10 21:12:54 2018
### 

@<TRIPOS>MOLECULE
2f3f_ligand
   77    78     1     0     0
SMALL
GAST_HUCK


@<TRIPOS>ATOM
      1 C2         29.8450    9.0120   18.6550 C.3       1 AXF         0.0673
      2 C4         29.3620    7.7690   19.4580 C.3       1 AXF         0.0789
      3 S1         28.4360   10.0720   18.0740 S.3       1 AXF        -0.1392
      4 N6         28.7000    8.1460   20.7160 N.4       1 AXF         0.2469
      5 C8         29.6930    8.8200   21.5910 C.3       1 AXF        -0.0316
      6 C11        30.1850   10.1310   20.9180 C.3       1 AXF        -0.0112
      7 C14        30.8370    9.8110   19.5370 C.3       1 AXF        -0.0288
      8 C17        28.6160    6.7610   18.6510 C.2       1 AXF         0.2279
      9 N18        29.0010    6.7150   17.3600 N.am      1 AXF        -0.2613
     10 C20        28.4610    5.7200   16.4560 C.3       1 AXF         0.1282
     11 C22        29.4150    5.7380   15.3050 C.2       1 AXF         0.2017
     12 N23        30.7250    5.5380   15.6250 N.am      1 AXF        -0.2787
     13 C25        31.7330    5.5930   14.5890 C.3       1 AXF         0.0771
     14 C27        32.9930    6.3810   15.0680 C.3       1 AXF         0.0209
     15 S30        32.4950    7.8800   15.9940 S.3       1 AXF        -0.1483
     16 C31        31.8310    8.9710   14.6630 C.3       1 AXF         0.0105
     17 C34        31.2130   10.0830   15.4810 C.2       1 AXF        -0.0881
     18 C36        29.9120   10.0580   15.7800 C.2       1 AXF        -0.0881
     19 C38        29.2940   11.0740   16.7000 C.3       1 AXF         0.0110
     20 C41        32.1960    4.2100   14.0730 C.3       1 AXF         0.0811
     21 O43        32.9280    3.5000   15.0810 O.3       1 AXF        -0.3893
     22 C45        31.0430    3.3210   13.5870 C.3       1 AXF        -0.0051
     23 C48        31.6770    2.3250   12.5970 C.3       1 AXF         0.0482
     24 C50        30.7900    1.0840   12.4130 C.3       1 AXF        -0.0452
     25 C54        31.8080    2.9790   11.2440 C.2       1 AXF         0.1789
     26 O55        30.8950    3.6790   10.8270 O.2       1 AXF        -0.3968
     27 N56        32.9440    2.7540   10.5720 N.am      1 AXF        -0.2867
     28 C58        33.1350    3.3500    9.2610 C.3       1 AXF         0.0309
     29 C61        34.3780    2.7180    8.6150 C.3       1 AXF        -0.0330
     30 C64        34.4340    2.9740    7.0740 C.3       1 AXF        -0.0541
     31 C67        34.7510    4.4300    6.7610 C.3       1 AXF        -0.0652
     32 O71        29.0190    5.9260   14.1770 O.2       1 AXF        -0.3945
     33 C72        26.9820    5.9990   16.1140 C.3       1 AXF        -0.0244
     34 O76        27.7480    6.0530   19.1530 O.2       1 AXF        -0.3907
     35 H1         30.3829    8.6571   17.7635 H         1 AXF         0.0495
     36 H2         30.2835    7.2519   19.7637 H         1 AXF         0.1110
     37 H3         28.3480    7.3205   21.1751 H         1 AXF         0.2035
     38 H4         27.9361    8.7745   20.5226 H         1 AXF         0.2035
     39 H5         30.5498    8.1498   21.7544 H         1 AXF         0.0814
     40 H6         29.2251    9.0592   22.5573 H         1 AXF         0.0814
     41 H7         30.9279   10.6171   21.5674 H         1 AXF         0.0317
     42 H8         29.3300   10.8069   20.7691 H         1 AXF         0.0317
     43 H9         31.0981   10.7520   19.0307 H         1 AXF         0.0281
     44 H10        31.7475    9.2140   19.6937 H         1 AXF         0.0281
     45 H11        29.6692    7.3774   17.0213 H         1 AXF         0.1884
     46 H12        28.5017    4.7291   16.9320 H         1 AXF         0.0797
     47 H13        30.9880    5.3540   16.5721 H         1 AXF         0.1856
     48 H14        31.2914    6.1339   13.7391 H         1 AXF         0.0590
     49 H15        33.5895    6.6774   14.1926 H         1 AXF         0.0401
     50 H16        33.5973    5.7352   15.7220 H         1 AXF         0.0401
     51 H17        31.0771    8.4513   14.0535 H         1 AXF         0.0500
     52 H18        32.6335    9.3472   14.0114 H         1 AXF         0.0500
     53 H19        31.8326   10.9086   15.8280 H         1 AXF         0.0458
     54 H20        29.2826    9.2822   15.3466 H         1 AXF         0.0458
     55 H21        30.0699   11.7256   17.1282 H         1 AXF         0.0500
     56 H22        28.5596   11.6866   16.1566 H         1 AXF         0.0500
     57 H23        32.8671    4.3869   13.2196 H         1 AXF         0.0618
     58 H24        33.6942    4.0041   15.3286 H         1 AXF         0.2099
     59 H25        30.2763    3.9278   13.0831 H         1 AXF         0.0318
     60 H26        30.5886    2.7847   14.4331 H         1 AXF         0.0318
     61 H27        32.6671    2.0228   12.9690 H         1 AXF         0.0536
     62 H28        31.2682    0.3936   11.7026 H         1 AXF         0.0257
     63 H29        29.8081    1.3897   12.0227 H         1 AXF         0.0257
     64 H30        30.6588    0.5801   13.3820 H         1 AXF         0.0257
     65 H31        33.6578    2.1783   10.9708 H         1 AXF         0.1851
     66 H32        33.2817    4.4352    9.3645 H         1 AXF         0.0520
     67 H33        32.2522    3.1575    8.6336 H         1 AXF         0.0520
     68 H34        34.3578    1.6328    8.7938 H         1 AXF         0.0285
     69 H35        35.2772    3.1494    9.0791 H         1 AXF         0.0285
     70 H36        33.4591    2.7179    6.6335 H         1 AXF         0.0263
     71 H37        35.2143    2.3358    6.6338 H         1 AXF         0.0263
     72 H38        34.7822    4.5722    5.6707 H         1 AXF         0.0230
     73 H39        35.7275    4.6938    7.1932 H         1 AXF         0.0230
     74 H40        33.9723    5.0759    7.1929 H         1 AXF         0.0230
     75 H41        26.6117    5.2232   15.4277 H         1 AXF         0.0277
     76 H42        26.8964    6.9848   15.6335 H         1 AXF         0.0277
     77 H43        26.3838    5.9878   17.0370 H         1 AXF         0.0277
@<TRIPOS>BOND
     1    1    2 1  
     2    1    3 1  
     3    1    7 1  
     4    2    4 1  
     5    2    8 1  
     6    3   19 1  
     7    4    5 1  
     8    5    6 1  
     9    6    7 1  
    10    8    9 am 
    11    8   34 2  
    12    9   10 1  
    13   10   11 1  
    14   10   33 1  
    15   11   12 am 
    16   11   32 2  
    17   12   13 1  
    18   13   14 1  
    19   13   20 1  
    20   14   15 1  
    21   15   16 1  
    22   16   17 1  
    23   17   18 2  
    24   18   19 1  
    25   20   21 1  
    26   20   22 1  
    27   22   23 1  
    28   23   24 1  
    29   23   25 1  
    30   25   26 2  
    31   25   27 am 
    32   27   28 1  
    33   28   29 1  
    34   29   30 1  
    35   30   31 1  
    36    1   35 1  
    37    2   36 1  
    38    4   37 1  
    39    4   38 1  
    40    5   39 1  
    41    5   40 1  
    42    6   41 1  
    43    6   42 1  
    44    7   43 1  
    45    7   44 1  
    46    9   45 1  
    47   10   46 1  
    48   12   47 1  
    49   13   48 1  
    50   14   49 1  
    51   14   50 1  
    52   16   51 1  
    53   16   52 1  
    54   17   53 1  
    55   18   54 1  
    56   19   55 1  
    57   19   56 1  
    58   20   57 1  
    59   21   58 1  
    60   22   59 1  
    61   22   60 1  
    62   23   61 1  
    63   24   62 1  
    64   24   63 1  
    65   24   64 1  
    66   27   65 1  
    67   28   66 1  
    68   28   67 1  
    69   29   68 1  
    70   29   69 1  
    71   30   70 1  
    72   30   71 1  
    73   31   72 1  
    74   31   73 1  
    75   31   74 1  
    76   33   75 1  
    77   33   76 1  
    78   33   77 1  
@<TRIPOS>SUBSTRUCTURE
     1 AXF         1

