### 
### Created by X-TOOL on Mon Sep 10 21:12:53 2018
### 

@<TRIPOS>MOLECULE
2f3k_ligand
  106   109     1     0     0
SMALL
GAST_HUCK


@<TRIPOS>ATOM
      1 O6         15.7700   -5.1270   12.2670 O.2       1 RO1        -0.1739
      2 S1         15.5540   -5.9210   13.4740 S.o2      1 RO1        -0.0244
      3 O5         14.2570   -6.0150   14.1470 O.2       1 RO1        -0.1739
      4 C37        16.0560   -7.6330   13.1220 C.3       1 RO1         0.0553
      5 C29        16.6390   -5.3060   14.6930 C.3       1 RO1         0.1216
      6 C33        16.0350   -3.9760   15.1590 C.3       1 RO1        -0.0358
      7 C34        16.6740   -6.3150   15.8560 C.3       1 RO1        -0.0358
      8 C26        18.0660   -5.0040   14.1660 C.3       1 RO1         0.1551
      9 N5         18.8140   -6.2220   13.8920 N.am      1 RO1        -0.2613
     10 C32        19.1180   -6.5170   12.6260 C.2       1 RO1         0.2095
     11 O4         18.8050   -5.8080   11.6750 O.2       1 RO1        -0.3939
     12 C36        19.8780   -7.7950   12.3850 C.3       1 RO1         0.1609
     13 O7         20.6150   -8.1490   13.5540 O.3       1 RO1        -0.2896
     14 C1         21.4940   -9.2070   13.5410 C.ar      1 RO1         0.1225
     15 C2         22.2590   -9.4890   12.4140 C.ar      1 RO1        -0.0129
     16 C4         23.1280  -10.5680   12.4440 C.ar      1 RO1        -0.0426
     17 C3         23.2310  -11.3400   13.5950 C.ar      1 RO1        -0.0002
     18 N1         22.4930  -11.0430   14.6740 N.ar      1 RO1        -0.3071
     19 C5         21.6370  -10.0070   14.6720 C.ar      1 RO1         0.0398
     20 C24        18.8620   -4.0970   15.0890 C.2       1 RO1         0.2043
     21 O3         18.9770   -4.3570   16.2810 O.2       1 RO1        -0.3944
     22 N4         19.4840   -3.0510   14.5120 N.am      1 RO1        -0.2773
     23 C15        20.2730   -2.0690   15.2700 C.3       1 RO1         0.0823
     24 C19        21.7550   -2.1820   14.8640 C.3       1 RO1         0.0066
     25 C25        22.2370   -3.6160   14.8780 C.ar      1 RO1        -0.0408
     26 C27        22.4170   -4.3050   13.6760 C.ar      1 RO1        -0.0603
     27 C30        22.8580   -5.6250   13.6920 C.ar      1 RO1        -0.0686
     28 C35        23.1240   -6.2550   14.9040 C.ar      1 RO1        -0.0687
     29 C31        22.9640   -5.5620   16.0990 C.ar      1 RO1        -0.0686
     30 C28        22.5160   -4.2490   16.0860 C.ar      1 RO1        -0.0603
     31 C12        19.6930   -0.6920   14.9190 C.3       1 RO1         0.1194
     32 O2         20.0520   -0.3750   13.5760 O.3       1 RO1        -0.3840
     33 C8         20.2220    0.4210   15.8340 C.3       1 RO1        -0.0008
     34 N2         19.4820    0.4190   17.1000 N.4       1 RO1         0.2562
     35 C6         20.3300    0.9960   18.1580 C.3       1 RO1         0.0688
     36 C10        21.6340    0.2910   18.3870 C.2       1 RO1         0.2251
     37 O1         21.7130   -0.9390   18.3540 O.2       1 RO1        -0.3909
     38 N3         22.6440    1.1180   18.6640 N.am      1 RO1        -0.2771
     39 C17        24.0090    0.7090   18.9410 C.3       1 RO1         0.0448
     40 C23        24.0710   -0.0230   20.2830 C.3       1 RO1        -0.0396
     41 C22        24.8800    1.9580   19.0250 C.3       1 RO1        -0.0396
     42 C21        24.5080   -0.1890   17.8090 C.3       1 RO1        -0.0396
     43 C9         19.5610    0.9050   19.4760 C.3       1 RO1         0.0113
     44 C13        18.2810    1.7080   19.3790 C.3       1 RO1        -0.0261
     45 C11        17.4420    1.2040   18.2180 C.3       1 RO1         0.0024
     46 C14        16.8420   -0.1680   18.4950 C.3       1 RO1        -0.0451
     47 C7         18.2510    1.2020   16.9170 C.3       1 RO1        -0.0266
     48 C16        17.5030    1.6830   20.6900 C.3       1 RO1        -0.0494
     49 C20        16.8580    0.3300   20.9610 C.3       1 RO1        -0.0528
     50 C18        16.0170   -0.1390   19.7730 C.3       1 RO1        -0.0526
     51 H1         17.0309   -7.6318   12.6125 H         1 RO1         0.0464
     52 H2         15.3048   -8.1098   12.4751 H         1 RO1         0.0464
     53 H3         16.1360   -8.1930   14.0654 H         1 RO1         0.0464
     54 H4         16.6774   -3.5333   15.9345 H         1 RO1         0.0253
     55 H5         15.0311   -4.1539   15.5720 H         1 RO1         0.0253
     56 H6         15.9632   -3.2866   14.3049 H         1 RO1         0.0253
     57 H7         17.3535   -5.9481   16.6394 H         1 RO1         0.0253
     58 H8         17.0312   -7.2877   15.4869 H         1 RO1         0.0253
     59 H9         15.6624   -6.4298   16.2724 H         1 RO1         0.0253
     60 H10        17.9461   -4.4706   13.2115 H         1 RO1         0.0822
     61 H11        19.0948   -6.8263   14.6377 H         1 RO1         0.1884
     62 H12        20.5733   -7.6530   11.5445 H         1 RO1         0.0862
     63 H13        19.1694   -8.6007   12.1426 H         1 RO1         0.0862
     64 H14        22.1766   -8.8738   11.5253 H         1 RO1         0.0663
     65 H15        23.7256  -10.8092   11.5723 H         1 RO1         0.0681
     66 H16        23.9100  -12.1846   13.6203 H         1 RO1         0.0729
     67 H17        21.0523   -9.7920   15.5591 H         1 RO1         0.0751
     68 H18        19.4055   -2.9370   13.5216 H         1 RO1         0.1857
     69 H19        20.1770   -2.2518   16.3504 H         1 RO1         0.0606
     70 H20        22.3625   -1.5960   15.5694 H         1 RO1         0.0449
     71 H21        21.8775   -1.7758   13.8491 H         1 RO1         0.0449
     72 H22        22.2135   -3.8122   12.7322 H         1 RO1         0.0557
     73 H23        22.9943   -6.1623   12.7604 H         1 RO1         0.0599
     74 H24        23.4562   -7.2868   14.9166 H         1 RO1         0.0559
     75 H25        23.1895   -6.0480   17.0413 H         1 RO1         0.0599
     76 H26        22.3828   -3.7143   17.0195 H         1 RO1         0.0557
     77 H27        18.5975   -0.7355   15.0088 H         1 RO1         0.0672
     78 H28        19.6979    0.4764   13.3473 H         1 RO1         0.2101
     79 H29        20.0927    1.3940   15.3374 H         1 RO1         0.0841
     80 H30        21.2900    0.2511   16.0354 H         1 RO1         0.0841
     81 H31        19.2403   -0.5270   17.3505 H         1 RO1         0.2057
     82 H32        20.5344    2.0472   17.9067 H         1 RO1         0.1100
     83 H33        22.4446    2.0978   18.6822 H         1 RO1         0.1859
     84 H34        25.1078   -0.3296   20.4858 H         1 RO1         0.0254
     85 H35        23.4261   -0.9133   20.2452 H         1 RO1         0.0254
     86 H36        23.7238    0.6476   21.0829 H         1 RO1         0.0254
     87 H37        25.9197    1.6665   19.2348 H         1 RO1         0.0254
     88 H38        24.5116    2.6083   19.8321 H         1 RO1         0.0254
     89 H39        24.8370    2.5000   18.0688 H         1 RO1         0.0254
     90 H40        25.5424   -0.5002   18.0168 H         1 RO1         0.0254
     91 H41        24.4757    0.3656   16.8596 H         1 RO1         0.0254
     92 H42        23.8651   -1.0786   17.7361 H         1 RO1         0.0254
     93 H43        20.1828    1.3058   20.2901 H         1 RO1         0.0348
     94 H44        19.3172   -0.1471   19.6847 H         1 RO1         0.0348
     95 H45        18.5514    2.7541   19.1726 H         1 RO1         0.0309
     96 H46        16.6059    1.9068   18.0878 H         1 RO1         0.0355
     97 H47        17.6532   -0.9028   18.6041 H         1 RO1         0.0270
     98 H48        16.1958   -0.4575   17.6532 H         1 RO1         0.0270
     99 H49        17.6489    0.7541   16.1128 H         1 RO1         0.0818
    100 H50        18.5120    2.2360   16.6472 H         1 RO1         0.0818
    101 H51        16.7133    2.4475   20.6460 H         1 RO1         0.0268
    102 H52        18.1933    1.9158   21.5142 H         1 RO1         0.0268
    103 H53        16.2104    0.4138   21.8462 H         1 RO1         0.0265
    104 H54        17.6483   -0.4104   21.1536 H         1 RO1         0.0265
    105 H55        15.6376   -1.1508   19.9787 H         1 RO1         0.0265
    106 H56        15.1701    0.5499   19.6383 H         1 RO1         0.0265
@<TRIPOS>BOND
     1    1    2 2  
     2    2    3 2  
     3    2    4 1  
     4    2    5 1  
     5    5    6 1  
     6    5    7 1  
     7    5    8 1  
     8    8    9 1  
     9    8   20 1  
    10    9   10 am 
    11   10   11 2  
    12   10   12 1  
    13   12   13 1  
    14   13   14 1  
    15   14   15 ar 
    16   14   19 ar 
    17   15   16 ar 
    18   16   17 ar 
    19   17   18 ar 
    20   18   19 ar 
    21   20   21 2  
    22   20   22 am 
    23   22   23 1  
    24   23   24 1  
    25   23   31 1  
    26   24   25 1  
    27   25   26 ar 
    28   25   30 ar 
    29   26   27 ar 
    30   27   28 ar 
    31   28   29 ar 
    32   29   30 ar 
    33   31   32 1  
    34   31   33 1  
    35   33   34 1  
    36   34   35 1  
    37   34   47 1  
    38   35   36 1  
    39   35   43 1  
    40   36   37 2  
    41   36   38 am 
    42   38   39 1  
    43   39   40 1  
    44   39   41 1  
    45   39   42 1  
    46   43   44 1  
    47   44   45 1  
    48   44   48 1  
    49   45   46 1  
    50   45   47 1  
    51   46   50 1  
    52   48   49 1  
    53   49   50 1  
    54    4   51 1  
    55    4   52 1  
    56    4   53 1  
    57    6   54 1  
    58    6   55 1  
    59    6   56 1  
    60    7   57 1  
    61    7   58 1  
    62    7   59 1  
    63    8   60 1  
    64    9   61 1  
    65   12   62 1  
    66   12   63 1  
    67   15   64 1  
    68   16   65 1  
    69   17   66 1  
    70   19   67 1  
    71   22   68 1  
    72   23   69 1  
    73   24   70 1  
    74   24   71 1  
    75   26   72 1  
    76   27   73 1  
    77   28   74 1  
    78   29   75 1  
    79   30   76 1  
    80   31   77 1  
    81   32   78 1  
    82   33   79 1  
    83   33   80 1  
    84   34   81 1  
    85   35   82 1  
    86   38   83 1  
    87   40   84 1  
    88   40   85 1  
    89   40   86 1  
    90   41   87 1  
    91   41   88 1  
    92   41   89 1  
    93   42   90 1  
    94   42   91 1  
    95   42   92 1  
    96   43   93 1  
    97   43   94 1  
    98   44   95 1  
    99   45   96 1  
   100   46   97 1  
   101   46   98 1  
   102   47   99 1  
   103   47  100 1  
   104   48  101 1  
   105   48  102 1  
   106   49  103 1  
   107   49  104 1  
   108   50  105 1  
   109   50  106 1  
@<TRIPOS>SUBSTRUCTURE
     1 RO1         1

