### 
### Created by X-TOOL on Mon Sep 10 21:12:54 2018
### 

@<TRIPOS>MOLECULE
2f4b_ligand
   69    73     1     0     0
SMALL
GAST_HUCK


@<TRIPOS>ATOM
      1 CAN         6.1460   -5.5160   45.6100 C.ar      1 EHA        -0.0435
      2 CAO         6.6020   -6.0440   46.8170 C.ar      1 EHA        -0.0561
      3 CAP         6.5930   -7.4170   47.0180 C.ar      1 EHA        -0.0574
      4 CAQ         6.1360   -8.2560   46.0120 C.ar      1 EHA        -0.0561
      5 CAR         5.6790   -7.7360   44.8000 C.ar      1 EHA        -0.0435
      6 CAL         5.6900   -6.3550   44.5850 C.ar      1 EHA         0.0333
      7 CAK         5.1730   -5.7420   43.2430 C.2       1 EHA         0.1572
      8 OAM         3.9520   -5.6540   43.0390 O.2       1 EHA        -0.3694
      9 CAH         6.1570   -5.1650   42.1950 C.ar      1 EHA         0.0291
     10 CAG         7.4820   -4.8710   42.5360 C.ar      1 EHA        -0.0413
     11 CAI         5.6960   -4.8860   40.9000 C.ar      1 EHA        -0.0502
     12 CAJ         6.5570   -4.3400   39.9520 C.ar      1 EHA        -0.0576
     13 CAD         7.8900   -4.0480   40.2840 C.ar      1 EHA        -0.0192
     14 CAE         8.7540   -3.4970   39.3090 C.ar      1 EHA        -0.0045
     15 CBK         8.2620   -3.1950   37.8640 C.3       1 EHA        -0.0212
     16 CBL         8.5260   -4.3550   36.8850 C.3       1 EHA        -0.0478
     17 CBM         8.2480   -3.9750   35.4160 C.3       1 EHA        -0.0637
     18 CAC         8.3470   -4.3220   41.5880 C.ar      1 EHA        -0.0243
     19 CAB         9.6710   -4.0430   41.9460 C.ar      1 EHA        -0.0626
     20 CAA        10.5390   -3.4930   40.9990 C.ar      1 EHA        -0.0346
     21 CAF        10.0840   -3.2160   39.7000 C.ar      1 EHA         0.0947
     22 OBJ        10.9270   -2.6880   38.7620 O.3       1 EHA        -0.3218
     23 CBI        12.2730   -2.2210   39.1350 C.3       1 EHA         0.0712
     24 CBH        13.3760   -2.8120   38.2280 C.3       1 EHA         0.0022
     25 CBG        12.7990   -3.1720   36.8670 C.3       1 EHA         0.0703
     26 OBF        13.4340   -4.2450   36.1510 O.3       1 EHA        -0.3266
     27 CAS        12.6650   -5.3400   35.8150 C.ar      1 EHA         0.0730
     28 CAX        12.9900   -6.5680   36.3910 C.ar      1 EHA        -0.0492
     29 CAT        11.5940   -5.2790   34.9160 C.ar      1 EHA        -0.0453
     30 CAU        10.8500   -6.4230   34.6030 C.ar      1 EHA        -0.0483
     31 CAV        11.1780   -7.6470   35.2000 C.ar      1 EHA         0.0586
     32 CAW        12.2500   -7.7140   36.0990 C.ar      1 EHA        -0.0375
     33 CBA        12.3670   -8.9730   36.5120 C.2       1 EHA        -0.0677
     34 CAZ        11.4130   -9.6970   35.9170 C.2       1 EHA         0.0234
     35 N          10.6980   -8.8940   35.1220 N.pl3     1 EHA        -0.2579
     36 CA          9.5460   -9.3370   34.3080 C.3       1 EHA         0.1029
     37 C           9.8250  -10.6020   33.4770 C.2       1 EHA         0.0638
     38 O           9.5090  -11.7010   34.0060 O.co2     1 EHA        -0.5663
     39 OXT        10.3190  -10.4450   32.3270 O.co2     1 EHA        -0.5663
     40 H1          6.1443   -4.4421   45.4627 H         1 EHA         0.0669
     41 H2          6.9629   -5.3833   47.5969 H         1 EHA         0.0630
     42 H3          6.9415   -7.8321   47.9568 H         1 EHA         0.0654
     43 H4          6.1338   -9.3285   46.1692 H         1 EHA         0.0630
     44 H5          5.3159   -8.4026   44.0262 H         1 EHA         0.0669
     45 H6          7.8380   -5.0704   43.5403 H         1 EHA         0.0676
     46 H7          4.6658   -5.0962   40.6364 H         1 EHA         0.0623
     47 H8          6.1958   -4.1387   38.9500 H         1 EHA         0.0599
     48 H9          8.7839   -2.2995   37.4957 H         1 EHA         0.0404
     49 H10         7.1796   -3.0018   37.8951 H         1 EHA         0.0404
     50 H11         7.8764   -5.1997   37.1581 H         1 EHA         0.0283
     51 H12         9.5795   -4.6583   36.9758 H         1 EHA         0.0283
     52 H13         8.4537   -4.8400   34.7683 H         1 EHA         0.0231
     53 H14         8.8976   -3.1364   35.1249 H         1 EHA         0.0231
     54 H15         7.1945   -3.6778   35.3072 H         1 EHA         0.0231
     55 H16        10.0206   -4.2520   42.9506 H         1 EHA         0.0553
     56 H17        11.5671   -3.2795   41.2682 H         1 EHA         0.0569
     57 H18        12.4742   -2.5184   40.1747 H         1 EHA         0.0612
     58 H19        12.3007   -1.1242   39.0554 H         1 EHA         0.0612
     59 H20        13.7879   -3.7167   38.6990 H         1 EHA         0.0317
     60 H21        14.1768   -2.0691   38.0983 H         1 EHA         0.0317
     61 H22        12.8542   -2.2733   36.2351 H         1 EHA         0.0610
     62 H23        11.7455   -3.4509   37.0166 H         1 EHA         0.0610
     63 H24        13.8287   -6.6328   37.0746 H         1 EHA         0.0430
     64 H25        11.3368   -4.3321   34.4553 H         1 EHA         0.0481
     65 H26        10.0249   -6.3619   33.9027 H         1 EHA         0.0528
     66 H27        13.1107   -9.3490   37.2131 H         1 EHA         0.0273
     67 H28        11.2460  -10.7640   36.0568 H         1 EHA         0.0929
     68 H29         9.2733   -8.5230   33.6202 H         1 EHA         0.0771
     69 H30         8.7029   -9.5443   34.9834 H         1 EHA         0.0771
@<TRIPOS>BOND
     1    1    2 ar 
     2    1    6 ar 
     3    2    3 ar 
     4    3    4 ar 
     5    4    5 ar 
     6    5    6 ar 
     7    6    7 1  
     8    7    8 2  
     9    7    9 1  
    10    9   10 ar 
    11    9   11 ar 
    12   10   18 ar 
    13   11   12 ar 
    14   12   13 ar 
    15   13   14 ar 
    16   13   18 ar 
    17   14   15 1  
    18   14   21 ar 
    19   15   16 1  
    20   16   17 1  
    21   18   19 ar 
    22   19   20 ar 
    23   20   21 ar 
    24   21   22 1  
    25   22   23 1  
    26   23   24 1  
    27   24   25 1  
    28   25   26 1  
    29   26   27 1  
    30   27   28 ar 
    31   27   29 ar 
    32   28   32 ar 
    33   29   30 ar 
    34   30   31 ar 
    35   31   32 ar 
    36   31   35 1  
    37   32   33 1  
    38   33   34 2  
    39   34   35 1  
    40   35   36 1  
    41   36   37 1  
    42   37   38 ar 
    43   37   39 ar 
    44    1   40 1  
    45    2   41 1  
    46    3   42 1  
    47    4   43 1  
    48    5   44 1  
    49   10   45 1  
    50   11   46 1  
    51   12   47 1  
    52   15   48 1  
    53   15   49 1  
    54   16   50 1  
    55   16   51 1  
    56   17   52 1  
    57   17   53 1  
    58   17   54 1  
    59   19   55 1  
    60   20   56 1  
    61   23   57 1  
    62   23   58 1  
    63   24   59 1  
    64   24   60 1  
    65   25   61 1  
    66   25   62 1  
    67   28   63 1  
    68   29   64 1  
    69   30   65 1  
    70   33   66 1  
    71   34   67 1  
    72   36   68 1  
    73   36   69 1  
@<TRIPOS>SUBSTRUCTURE
     1 EHA         1

