### 
### Created by X-TOOL on Mon Sep 10 21:12:54 2018
### 

@<TRIPOS>MOLECULE
2f4j_ligand
   62    66     1     0     0
SMALL
GAST_HUCK


@<TRIPOS>ATOM
      1 N1          4.0480   -5.7010  -32.3330 N.4       1 VX6         0.2360
      2 C2          4.8630   -5.2040  -31.1770 C.3       1 VX6        -0.0111
      3 C3          4.7900   -6.1190  -29.9500 C.3       1 VX6         0.0715
      4 N4          3.3730   -6.6210  -29.5090 N.pl3     1 VX6        -0.2821
      5 C5          2.4800   -6.9450  -30.7200 C.3       1 VX6         0.0715
      6 C6          2.6470   -5.9780  -31.9390 C.3       1 VX6        -0.0111
      7 C7          4.1610   -4.7620  -33.5150 C.3       1 VX6        -0.0429
      8 C8          2.9410   -6.8290  -28.1480 C.ar      1 VX6         0.1084
      9 C9          1.7350   -7.6070  -27.8250 C.ar      1 VX6         0.0174
     10 C10         1.4040   -7.7640  -26.4390 C.ar      1 VX6         0.1222
     11 N11         2.2290   -7.1970  -25.5230 N.ar      1 VX6        -0.2565
     12 C12         3.3000   -6.4960  -25.8670 C.ar      1 VX6         0.1445
     13 N13         3.6710   -6.2970  -27.1230 N.ar      1 VX6        -0.2590
     14 N14         0.2810   -8.4830  -26.1230 N.pl3     1 VX6        -0.2610
     15 C15        -0.3180   -8.9380  -24.8800 C.2       1 VX6         0.0964
     16 C17         0.1140   -8.6020  -23.5870 C.2       1 VX6        -0.0260
     17 C18        -0.7650   -9.2460  -22.7200 C.2       1 VX6         0.0559
     18 N19        -1.7150   -9.9640  -23.4620 N.pl3     1 VX6        -0.2338
     19 N20        -1.4390   -9.7740  -24.7750 N.2       1 VX6        -0.2287
     20 C21        -0.7830   -9.2290  -21.2080 C.3       1 VX6        -0.0040
     21 S23         4.2820   -5.7760  -24.5270 S.3       1 VX6        -0.0159
     22 C24         3.5870   -6.2600  -23.0170 C.ar      1 VX6         0.0217
     23 C25         2.8600   -5.3390  -22.2520 C.ar      1 VX6        -0.0596
     24 C26         2.2500   -5.7700  -21.0340 C.ar      1 VX6        -0.0458
     25 C27         2.3780   -7.0940  -20.6020 C.ar      1 VX6         0.0602
     26 C28         3.1180   -8.0230  -21.3800 C.ar      1 VX6        -0.0458
     27 C29         3.7360   -7.5750  -22.6130 C.ar      1 VX6        -0.0596
     28 N30         1.7610   -7.5600  -19.3910 N.am      1 VX6        -0.2372
     29 C31         1.7010   -8.7610  -18.7430 C.2       1 VX6         0.2051
     30 O32         2.2160   -9.8050  -19.1370 O.2       1 VX6        -0.3854
     31 C33         0.8850   -8.7370  -17.4500 C.3       1 VX6         0.0545
     32 C34        -0.6020   -9.2660  -17.3890 C.3       1 VX6        -0.0304
     33 C35         0.4870   -9.8100  -16.4320 C.3       1 VX6        -0.0304
     34 H1          4.4466   -6.5811  -32.6204 H         1 VX6         0.2032
     35 H2          4.4948   -4.2073  -30.8923 H         1 VX6         0.0835
     36 H3          5.9132   -5.1297  -31.4958 H         1 VX6         0.0835
     37 H4          5.2240   -5.5691  -29.1019 H         1 VX6         0.0577
     38 H5          5.4030   -7.0070  -30.1635 H         1 VX6         0.0577
     39 H6          1.4309   -6.9032  -30.3919 H         1 VX6         0.0577
     40 H7          2.7184   -7.9645  -31.0574 H         1 VX6         0.0577
     41 H8          2.1322   -6.4254  -32.8020 H         1 VX6         0.0835
     42 H9          2.1693   -5.0209  -31.6828 H         1 VX6         0.0835
     43 H10         5.2224   -4.5995  -33.7540 H         1 VX6         0.0778
     44 H11         3.6900   -3.7998  -33.2653 H         1 VX6         0.0778
     45 H12         3.6529   -5.2043  -34.3846 H         1 VX6         0.0778
     46 H13         1.1210   -8.0442  -28.6040 H         1 VX6         0.0505
     47 H14        -0.2600   -8.7640  -26.9532 H         1 VX6         0.2116
     48 H15         0.9593   -7.9702  -23.3184 H         1 VX6         0.0218
     49 H16        -2.4832  -10.5327  -23.0781 H         1 VX6         0.2453
     50 H17         0.0462   -8.6079  -20.8384 H         1 VX6         0.0437
     51 H18        -0.6699  -10.2552  -20.8284 H         1 VX6         0.0437
     52 H19        -1.7384   -8.8115  -20.8573 H         1 VX6         0.0437
     53 H20         2.7613   -4.3107  -22.5804 H         1 VX6         0.0535
     54 H21         1.6824   -5.0638  -20.4389 H         1 VX6         0.0489
     55 H22         3.2196   -9.0527  -21.0568 H         1 VX6         0.0489
     56 H23         4.3124   -8.2675  -23.2158 H         1 VX6         0.0535
     57 H24         1.2601   -6.8390  -18.9122 H         1 VX6         0.2236
     58 H25         1.0969   -7.7519  -17.0088 H         1 VX6         0.0543
     59 H26        -0.9975   -9.9007  -18.1957 H         1 VX6         0.0294
     60 H27        -1.4044   -8.6194  -17.0043 H         1 VX6         0.0294
     61 H28         0.4475   -9.5584  -15.3619 H         1 VX6         0.0294
     62 H29         0.8544  -10.8397  -16.5533 H         1 VX6         0.0294
@<TRIPOS>BOND
     1    1    2 1  
     2    1    6 1  
     3    1    7 1  
     4    2    3 1  
     5    3    4 1  
     6    4    5 1  
     7    4    8 1  
     8    5    6 1  
     9    8    9 ar 
    10    8   13 ar 
    11    9   10 ar 
    12   10   11 ar 
    13   10   14 1  
    14   11   12 ar 
    15   12   13 ar 
    16   12   21 1  
    17   14   15 1  
    18   15   16 1  
    19   15   19 2  
    20   16   17 2  
    21   17   18 1  
    22   17   20 1  
    23   18   19 1  
    24   21   22 1  
    25   22   23 ar 
    26   22   27 ar 
    27   23   24 ar 
    28   24   25 ar 
    29   25   26 ar 
    30   25   28 1  
    31   26   27 ar 
    32   28   29 am 
    33   29   30 2  
    34   29   31 1  
    35   31   32 1  
    36   31   33 1  
    37   32   33 1  
    38    1   34 1  
    39    2   35 1  
    40    2   36 1  
    41    3   37 1  
    42    3   38 1  
    43    5   39 1  
    44    5   40 1  
    45    6   41 1  
    46    6   42 1  
    47    7   43 1  
    48    7   44 1  
    49    7   45 1  
    50    9   46 1  
    51   14   47 1  
    52   16   48 1  
    53   18   49 1  
    54   20   50 1  
    55   20   51 1  
    56   20   52 1  
    57   23   53 1  
    58   24   54 1  
    59   26   55 1  
    60   27   56 1  
    61   28   57 1  
    62   31   58 1  
    63   32   59 1  
    64   32   60 1  
    65   33   61 1  
    66   33   62 1  
@<TRIPOS>SUBSTRUCTURE
     1 VX6         1

