### 
### Created by X-TOOL on Sun Sep  9 21:50:21 2018
### 

@<TRIPOS>MOLECULE
2f5t_ligand
   45    46     1     0     0
SMALL
GAST_HUCK


@<TRIPOS>ATOM
      1 C1         34.4190   33.4820   30.6460 C.3       1 NON         0.1884
      2 C2         33.1780   32.6280   30.2940 C.3       1 NON         0.1341
      3 C3         33.6850   31.3090   29.7090 C.3       1 NON         0.1141
      4 C4         34.5990   31.5520   28.4880 C.3       1 NON         0.1119
      5 C5         35.7010   32.5520   28.8180 C.3       1 NON         0.1130
      6 C6         36.4390   32.9750   27.5430 C.3       1 NON         0.0730
      7 O1         35.1540   32.7630   31.5820 O.3       1 NON        -0.3401
      8 O2         32.3840   32.4080   31.4230 O.3       1 NON        -0.3841
      9 O3         32.5520   30.4710   29.3950 O.3       1 NON        -0.3864
     10 O4         35.1120   30.2950   28.0700 O.3       1 NON        -0.3865
     11 O5         35.1410   33.7160   29.4380 O.3       1 NON        -0.3405
     12 O6         35.5550   33.5740   26.5600 O.3       1 NON        -0.3924
     13 C1'        36.8910   33.3440   35.2690 C.3       1 NON         0.1854
     14 C2'        35.7240   34.2810   34.9740 C.3       1 NON         0.1339
     15 C3'        34.9570   33.8190   33.7270 C.3       1 NON         0.1144
     16 C4'        35.8830   33.4960   32.5460 C.3       1 NON         0.1184
     17 C5'        37.0170   32.5890   32.9990 C.3       1 NON         0.1134
     18 C6'        38.0400   32.3270   31.8840 C.3       1 NON         0.0730
     19 O1'        37.6070   33.7320   36.3590 O.3       1 NON        -0.3649
     20 O2'        34.8000   34.4230   36.0340 O.3       1 NON        -0.3841
     21 O3'        34.0430   34.8130   33.3610 O.3       1 NON        -0.3864
     22 O5'        37.6840   33.1200   34.1370 O.3       1 NON        -0.3407
     23 O6'        38.8680   33.4540   31.6510 O.3       1 NON        -0.3924
     24 H1         34.1137   34.4453   31.0805 H         1 NON         0.0938
     25 H2         32.5756   33.1538   29.5386 H         1 NON         0.0671
     26 H3         34.2846   30.7981   30.4767 H         1 NON         0.0648
     27 H4         33.9948   31.9722   27.6705 H         1 NON         0.0647
     28 H5         36.4151   32.0810   29.5096 H         1 NON         0.0647
     29 H6         36.9108   32.0867   27.0977 H         1 NON         0.0584
     30 H7         37.2151   33.7069   27.8113 H         1 NON         0.0584
     31 H8         32.0835   33.2419   31.7648 H         1 NON         0.2101
     32 H9         32.8597   29.6266   29.0872 H         1 NON         0.2100
     33 H10        34.3904   29.7082   27.8765 H         1 NON         0.2100
     34 H11        34.8842   32.9473   26.3154 H         1 NON         0.2095
     35 H12        36.4472   32.3714   35.5279 H         1 NON         0.0935
     36 H13        36.1506   35.2742   34.7701 H         1 NON         0.0671
     37 H14        34.4017   32.9049   33.9838 H         1 NON         0.0648
     38 H15        36.2808   34.4257   32.1132 H         1 NON         0.0651
     39 H16        36.5736   31.6234   33.2835 H         1 NON         0.0647
     40 H17        37.5008   32.0840   30.9565 H         1 NON         0.0584
     41 H18        38.6724   31.4751   32.1745 H         1 NON         0.0584
     42 H19        38.2373   33.0562   36.5795 H         1 NON         0.2126
     43 H20        35.2580   34.7090   36.8157 H         1 NON         0.2101
     44 H21        33.4748   35.0059   34.0975 H         1 NON         0.2100
     45 H22        39.3419   33.6672   32.4463 H         1 NON         0.2095
@<TRIPOS>BOND
     1    1    2 1  
     2    7    1 1  
     3    1   11 1  
     4    2    3 1  
     5    2    8 1  
     6    3    4 1  
     7    3    9 1  
     8    5    4 1  
     9    4   10 1  
    10    5    6 1  
    11   11    5 1  
    12    6   12 1  
    13   16    7 1  
    14   14   13 1  
    15   13   19 1  
    16   13   22 1  
    17   15   14 1  
    18   14   20 1  
    19   15   16 1  
    20   15   21 1  
    21   16   17 1  
    22   17   18 1  
    23   17   22 1  
    24   18   23 1  
    25    1   24 1  
    26    2   25 1  
    27    3   26 1  
    28    4   27 1  
    29    5   28 1  
    30    6   29 1  
    31    6   30 1  
    32    8   31 1  
    33    9   32 1  
    34   10   33 1  
    35   12   34 1  
    36   13   35 1  
    37   14   36 1  
    38   15   37 1  
    39   16   38 1  
    40   17   39 1  
    41   18   40 1  
    42   18   41 1  
    43   19   42 1  
    44   20   43 1  
    45   21   44 1  
    46   23   45 1  
@<TRIPOS>SUBSTRUCTURE
     1 NON         1

