### 
### Created by X-TOOL on Mon Sep 10 21:12:52 2018
### 

@<TRIPOS>MOLECULE
2f6t_ligand
   48    49     1     0     0
SMALL
GAST_HUCK


@<TRIPOS>ATOM
      1 O6        -10.2890   46.9830   46.3080 O.co2     1 1C2        -0.4632
      2 S1         -9.1500   47.6340   46.9710 S.o2      1 1C2        -0.0961
      3 O4         -8.0610   46.6760   47.1530 O.co2     1 1C2        -0.4632
      4 O5         -8.7600   48.9290   46.3640 O.co2     1 1C2        -0.4632
      5 N3         -9.6980   48.0460   48.4440 N.am      1 1C2        -0.2261
      6 C15       -10.2950   47.1330   49.2730 C.ar      1 1C2         0.0460
      7 C16        -9.5240   46.3910   50.1720 C.ar      1 1C2        -0.0587
      8 C14       -11.6840   46.9590   49.2730 C.ar      1 1C2        -0.0487
      9 C13       -12.3190   46.0530   50.1310 C.ar      1 1C2        -0.0336
     10 C12       -13.8250   45.8760   50.1120 C.3       1 1C2         0.0665
     11 N2        -14.3710   45.3040   51.3590 N.am      1 1C2        -0.2160
     12 C7        -15.6750   45.0640   51.4650 C.2       1 1C2         0.3269
     13 O3        -16.2550   44.5920   52.4330 O.2       1 1C2        -0.3772
     14 O2        -16.3980   45.4300   50.2750 O.3       1 1C2        -0.2578
     15 C8        -17.8140   45.4510   50.0410 C.3       1 1C2         0.0905
     16 C11       -18.0090   45.6610   48.5410 C.3       1 1C2        -0.0320
     17 C10       -18.4640   46.5780   50.8350 C.3       1 1C2        -0.0320
     18 C9        -18.3630   44.0820   50.4060 C.3       1 1C2        -0.0320
     19 C4        -13.4950   44.9840   52.4800 C.3       1 1C2         0.1436
     20 C5        -13.2760   46.1750   53.3680 C.2       1 1C2         0.2033
     21 O1        -12.4680   46.1370   54.2770 O.2       1 1C2        -0.3944
     22 N1        -13.9980   47.2640   53.1280 N.am      1 1C2        -0.2880
     23 C6        -13.8350   48.4550   53.9550 C.3       1 1C2         0.0196
     24 C3        -12.2180   44.3430   51.9280 C.3       1 1C2         0.0117
     25 C2        -11.5380   45.3190   50.9990 C.ar      1 1C2        -0.0511
     26 C1        -10.1510   45.4740   51.0300 C.ar      1 1C2        -0.0816
     27 H1         -9.5968   48.9914   48.7539 H         1 1C2         0.2102
     28 H2         -8.4486   46.5228   50.2065 H         1 1C2         0.0410
     29 H3        -12.2866   47.5438   48.5875 H         1 1C2         0.0402
     30 H4        -14.0855   45.2060   49.2794 H         1 1C2         0.0670
     31 H5        -14.2884   46.8603   49.9494 H         1 1C2         0.0670
     32 H6        -19.0844   45.6844   48.3108 H         1 1C2         0.0260
     33 H7        -17.5340   44.8356   47.9904 H         1 1C2         0.0260
     34 H8        -17.5491   46.6143   48.2413 H         1 1C2         0.0260
     35 H9        -19.5477   46.5819   50.6461 H         1 1C2         0.0260
     36 H10       -18.0341   47.5414   50.5235 H         1 1C2         0.0260
     37 H11       -18.2795   46.4241   51.9084 H         1 1C2         0.0260
     38 H12       -19.4498   44.0659   50.2371 H         1 1C2         0.0260
     39 H13       -18.1535   43.8735   51.4655 H         1 1C2         0.0260
     40 H14       -17.8832   43.3156   49.7796 H         1 1C2         0.0260
     41 H15       -13.9992   44.2240   53.0950 H         1 1C2         0.0821
     42 H16       -14.6572   47.2675   52.3760 H         1 1C2         0.1848
     43 H17       -14.5155   49.2433   53.6007 H         1 1C2         0.0484
     44 H18       -12.7960   48.8096   53.8865 H         1 1C2         0.0484
     45 H19       -14.0707   48.2101   55.0011 H         1 1C2         0.0484
     46 H20       -12.4745   43.4267   51.3761 H         1 1C2         0.0428
     47 H21       -11.5420   44.0934   52.7591 H         1 1C2         0.0428
     48 H22        -9.5565   44.8845   51.7186 H         1 1C2         0.0497
@<TRIPOS>BOND
     1    1    2 ar 
     2    2    3 ar 
     3    2    4 ar 
     4    2    5 am 
     5    5    6 1  
     6    6    7 ar 
     7    6    8 ar 
     8    7   26 ar 
     9    8    9 ar 
    10    9   10 1  
    11    9   25 ar 
    12   10   11 1  
    13   11   12 am 
    14   11   19 1  
    15   12   13 2  
    16   12   14 1  
    17   14   15 1  
    18   15   16 1  
    19   15   17 1  
    20   15   18 1  
    21   19   20 1  
    22   19   24 1  
    23   20   21 2  
    24   20   22 am 
    25   22   23 1  
    26   24   25 1  
    27   25   26 ar 
    28    5   27 1  
    29    7   28 1  
    30    8   29 1  
    31   10   30 1  
    32   10   31 1  
    33   16   32 1  
    34   16   33 1  
    35   16   34 1  
    36   17   35 1  
    37   17   36 1  
    38   17   37 1  
    39   18   38 1  
    40   18   39 1  
    41   18   40 1  
    42   19   41 1  
    43   22   42 1  
    44   23   43 1  
    45   23   44 1  
    46   23   45 1  
    47   24   46 1  
    48   24   47 1  
    49   26   48 1  
@<TRIPOS>SUBSTRUCTURE
     1 1C2         1

