### 
### Created by X-TOOL on Mon Sep 10 21:12:52 2018
### 

@<TRIPOS>MOLECULE
2f6v_ligand
   49    51     1     0     0
SMALL
GAST_HUCK


@<TRIPOS>ATOM
      1 O6        -10.3300   46.8010   46.3010 O.co2     1 SK2        -0.4632
      2 S1         -9.2080   47.5010   46.9620 S.o2      1 SK2        -0.0961
      3 O4         -8.1040   46.5490   47.1250 O.co2     1 SK2        -0.4632
      4 O5         -8.8170   48.7640   46.3200 O.co2     1 SK2        -0.4632
      5 N3         -9.7340   47.8960   48.4470 N.am      1 SK2        -0.2261
      6 C15       -10.2590   46.9640   49.2960 C.ar      1 SK2         0.0460
      7 C16        -9.4100   46.1880   50.0870 C.ar      1 SK2        -0.0587
      8 C14       -11.6370   46.7980   49.4300 C.ar      1 SK2        -0.0487
      9 C13       -12.1540   45.8530   50.3210 C.ar      1 SK2        -0.0336
     10 C12       -13.6560   45.7040   50.4460 C.3       1 SK2         0.0665
     11 N2        -14.0510   44.9600   51.6520 N.am      1 SK2        -0.2159
     12 C4        -13.1020   44.6650   52.7160 C.3       1 SK2         0.1436
     13 C5        -12.8240   45.8690   53.5820 C.2       1 SK2         0.2033
     14 O1        -11.8210   45.9130   54.2870 O.2       1 SK2        -0.3944
     15 N1        -13.6590   46.8990   53.5410 N.am      1 SK2        -0.2880
     16 C6        -13.3930   48.0730   54.3700 C.3       1 SK2         0.0196
     17 C3        -11.8530   44.0680   52.0590 C.3       1 SK2         0.0117
     18 C2        -11.2920   45.0860   51.0830 C.ar      1 SK2        -0.0511
     19 C1         -9.9090   45.2360   50.9790 C.ar      1 SK2        -0.0816
     20 C7        -15.2950   44.5370   51.8310 C.2       1 SK2         0.3285
     21 O3        -15.7010   43.9060   52.8020 O.2       1 SK2        -0.3771
     22 O2        -16.1740   44.8840   50.7490 O.3       1 SK2        -0.2503
     23 C8        -17.5160   44.3950   50.7670 C.3       1 SK2         0.1113
     24 C11       -18.2600   45.2870   49.8000 C.ar      1 SK2        -0.0130
     25 C19       -18.4100   46.6580   50.0310 C.ar      1 SK2        -0.0578
     26 C9        -19.1090   47.4230   49.1010 C.ar      1 SK2        -0.0685
     27 C18       -18.7790   44.6840   48.6540 C.ar      1 SK2        -0.0578
     28 C10       -19.4870   45.4500   47.7260 C.ar      1 SK2        -0.0685
     29 C17       -19.6380   46.8140   47.9600 C.ar      1 SK2        -0.0687
     30 H1         -9.6717   48.8476   48.7479 H         1 SK2         0.2102
     31 H2         -8.3380   46.3275   50.0071 H         1 SK2         0.0410
     32 H3        -12.3122   47.4061   48.8390 H         1 SK2         0.0402
     33 H4        -14.0319   45.1678   49.5621 H         1 SK2         0.0670
     34 H5        -14.1076   46.7062   50.4864 H         1 SK2         0.0670
     35 H6        -13.5421   43.8957   53.3675 H         1 SK2         0.0821
     36 H7        -14.4637   46.8724   52.9479 H         1 SK2         0.1848
     37 H8        -14.1824   48.8219   54.2091 H         1 SK2         0.0484
     38 H9        -12.4184   48.5028   54.0952 H         1 SK2         0.0484
     39 H10       -13.3780   47.7779   55.4296 H         1 SK2         0.0484
     40 H11       -12.1205   43.1463   51.5215 H         1 SK2         0.0428
     41 H12       -11.1018   43.8385   52.8291 H         1 SK2         0.0428
     42 H13        -9.2381   44.6287   51.5758 H         1 SK2         0.0497
     43 H14       -17.9447   44.4744   51.7769 H         1 SK2         0.0776
     44 H15       -17.5519   43.3470   50.4347 H         1 SK2         0.0776
     45 H16       -17.9895   47.1171   50.9184 H         1 SK2         0.0557
     46 H17       -19.2423   48.4867   49.2615 H         1 SK2         0.0599
     47 H18       -18.6329   43.6233   48.4845 H         1 SK2         0.0557
     48 H19       -19.9111   44.9914   46.8401 H         1 SK2         0.0599
     49 H20       -20.1786   47.4178   47.2402 H         1 SK2         0.0559
@<TRIPOS>BOND
     1    1    2 ar 
     2    2    3 ar 
     3    2    4 ar 
     4    2    5 am 
     5    5    6 1  
     6    6    7 ar 
     7    6    8 ar 
     8    7   19 ar 
     9    8    9 ar 
    10    9   10 1  
    11    9   18 ar 
    12   10   11 1  
    13   11   12 1  
    14   11   20 am 
    15   12   13 1  
    16   12   17 1  
    17   13   14 2  
    18   13   15 am 
    19   15   16 1  
    20   17   18 1  
    21   18   19 ar 
    22   20   21 2  
    23   20   22 1  
    24   22   23 1  
    25   23   24 1  
    26   24   25 ar 
    27   24   27 ar 
    28   25   26 ar 
    29   26   29 ar 
    30   27   28 ar 
    31   28   29 ar 
    32    5   30 1  
    33    7   31 1  
    34    8   32 1  
    35   10   33 1  
    36   10   34 1  
    37   12   35 1  
    38   15   36 1  
    39   16   37 1  
    40   16   38 1  
    41   16   39 1  
    42   17   40 1  
    43   17   41 1  
    44   19   42 1  
    45   23   43 1  
    46   23   44 1  
    47   25   45 1  
    48   26   46 1  
    49   27   47 1  
    50   28   48 1  
    51   29   49 1  
@<TRIPOS>SUBSTRUCTURE
     1 SK2         1

