### 
### Created by X-TOOL on Mon Sep 10 21:12:52 2018
### 

@<TRIPOS>MOLECULE
2f6y_ligand
   48    49     1     0     0
SMALL
GAST_HUCK


@<TRIPOS>ATOM
      1 O6         41.4250   16.9190   11.7600 O.co2     1 ENT        -0.4632
      2 S1         42.5050   15.9160   12.1170 S.o2      1 ENT        -0.0961
      3 O4         42.5170   14.6270   11.3730 O.co2     1 ENT        -0.4632
      4 O5         43.8120   16.5170   12.5160 O.co2     1 ENT        -0.4632
      5 N1         41.8880   15.4410   13.5230 N.am      1 ENT        -0.2261
      6 C5         42.3520   14.5050   14.3850 C.ar      1 ENT         0.0460
      7 C4         42.0870   13.1430   14.1930 C.ar      1 ENT        -0.0587
      8 C1         42.5380   12.1660   15.0810 C.ar      1 ENT        -0.0816
      9 C2         43.0640   14.9680   15.4820 C.ar      1 ENT        -0.0487
     10 C6         43.4920   13.9900   16.3750 C.ar      1 ENT        -0.0336
     11 C8         44.2340   14.5300   17.5840 C.3       1 ENT         0.0665
     12 N2         44.4160   13.5130   18.6340 N.am      1 ENT        -0.2160
     13 C9         43.7290   12.2120   18.5550 C.3       1 ENT         0.1436
     14 C10        42.3130   12.2070   19.0800 C.2       1 ENT         0.2033
     15 O3         41.6230   11.2630   18.7450 O.2       1 ENT        -0.3944
     16 N3         41.8030   13.1670   19.8680 N.am      1 ENT        -0.2880
     17 C16        40.4530   13.2550   20.4200 C.3       1 ENT         0.0196
     18 C7         43.7490   11.5850   17.1630 C.3       1 ENT         0.0117
     19 C3         43.2520   12.6210   16.1830 C.ar      1 ENT        -0.0511
     20 C11        45.2240   13.7050   19.6880 C.2       1 ENT         0.3269
     21 O1         45.8570   14.7510   19.8550 O.2       1 ENT        -0.3772
     22 O2         45.3810   12.6060   20.6450 O.3       1 ENT        -0.2578
     23 C12        46.7450   12.3330   21.0090 C.3       1 ENT         0.0905
     24 C15        47.3790   11.1610   20.2910 C.3       1 ENT        -0.0320
     25 C14        47.7320   13.4740   20.7860 C.3       1 ENT        -0.0320
     26 C13        46.8190   11.9150   22.4610 C.3       1 ENT        -0.0320
     27 H1         41.0441   15.9005   13.7999 H         1 ENT         0.2102
     28 H2         41.5125   12.8380   13.3258 H         1 ENT         0.0410
     29 H3         42.3426   11.1119   14.9205 H         1 ENT         0.0497
     30 H4         43.2730   16.0208   15.6335 H         1 ENT         0.0402
     31 H5         43.6617   15.3709   18.0027 H         1 ENT         0.0670
     32 H6         45.2239   14.8848   17.2611 H         1 ENT         0.0670
     33 H7         44.3029   11.5390   19.2089 H         1 ENT         0.0821
     34 H8         42.4236   13.9139   20.1066 H         1 ENT         0.1848
     35 H9         40.3631   14.1694   21.0248 H         1 ENT         0.0484
     36 H10        40.2574   12.3764   21.0523 H         1 ENT         0.0484
     37 H11        39.7222   13.2855   19.5984 H         1 ENT         0.0484
     38 H12        43.0921   10.7030   17.1404 H         1 ENT         0.0428
     39 H13        44.7747   11.2851   16.9023 H         1 ENT         0.0428
     40 H14        48.4155   11.0359   20.6375 H         1 ENT         0.0260
     41 H15        47.3749   11.3492   19.2072 H         1 ENT         0.0260
     42 H16        46.8074   10.2462   20.5065 H         1 ENT         0.0260
     43 H17        48.7377   13.1549   21.0972 H         1 ENT         0.0260
     44 H18        47.4240   14.3468   21.3804 H         1 ENT         0.0260
     45 H19        47.7464   13.7432   19.7196 H         1 ENT         0.0260
     46 H20        47.8654   11.7084   22.7302 H         1 ENT         0.0260
     47 H21        46.2155   11.0080   22.6127 H         1 ENT         0.0260
     48 H22        46.4301   12.7247   23.0960 H         1 ENT         0.0260
@<TRIPOS>BOND
     1    1    2 ar 
     2    2    3 ar 
     3    2    4 ar 
     4    2    5 am 
     5    5    6 1  
     6    6    7 ar 
     7    6    9 ar 
     8    7    8 ar 
     9    8   19 ar 
    10    9   10 ar 
    11   10   11 1  
    12   10   19 ar 
    13   11   12 1  
    14   12   13 1  
    15   12   20 am 
    16   13   14 1  
    17   13   18 1  
    18   14   15 2  
    19   14   16 am 
    20   16   17 1  
    21   18   19 1  
    22   20   21 2  
    23   20   22 1  
    24   22   23 1  
    25   23   24 1  
    26   23   25 1  
    27   23   26 1  
    28    5   27 1  
    29    7   28 1  
    30    8   29 1  
    31    9   30 1  
    32   11   31 1  
    33   11   32 1  
    34   13   33 1  
    35   16   34 1  
    36   17   35 1  
    37   17   36 1  
    38   17   37 1  
    39   18   38 1  
    40   18   39 1  
    41   24   40 1  
    42   24   41 1  
    43   24   42 1  
    44   25   43 1  
    45   25   44 1  
    46   25   45 1  
    47   26   46 1  
    48   26   47 1  
    49   26   48 1  
@<TRIPOS>SUBSTRUCTURE
     1 ENT         1

