### 
### Created by X-TOOL on Mon Sep 10 21:12:52 2018
### 

@<TRIPOS>MOLECULE
2f6z_ligand
   56    58     1     0     0
SMALL
GAST_HUCK


@<TRIPOS>ATOM
      1 O8         42.1340   12.7070   19.3600 O.2       1 UN5        -0.3944
      2 C9         41.6850   11.8470   18.6070 C.2       1 UN5         0.2033
      3 N4         40.3630   11.7330   18.5270 N.am      1 UN5        -0.2880
      4 C20        39.5740   12.5390   19.4440 C.3       1 UN5         0.0196
      5 C8         42.5750   10.9990   17.7340 C.3       1 UN5         0.1417
      6 N2         41.7810   10.4200   16.6450 N.am      1 UN5        -0.2402
      7 C11        41.4220   11.1840   15.4460 C.3       1 UN5         0.0645
      8 C6         42.1220   12.5330   15.3730 C.ar      1 UN5        -0.0336
      9 C2         41.5980   13.4880   14.4970 C.ar      1 UN5        -0.0487
     10 C5         42.1780   14.7620   14.3900 C.ar      1 UN5         0.0460
     11 N1         41.6450   15.6930   13.5530 N.am      1 UN5        -0.2261
     12 S1         42.2500   15.9450   12.0670 S.o2      1 UN5        -0.0961
     13 O3         41.3270   16.9030   11.4450 O.co2     1 UN5        -0.4632
     14 O2         43.6240   16.3930   12.2180 O.co2     1 UN5        -0.4632
     15 O1         42.2530   14.6100   11.4220 O.co2     1 UN5        -0.4632
     16 C4         43.2600   15.0460   15.2200 C.ar      1 UN5        -0.0587
     17 C3         43.2070   12.8430   16.1720 C.ar      1 UN5        -0.0511
     18 C7         43.7350   11.7880   17.1210 C.3       1 UN5         0.0117
     19 C1         43.7940   14.1040   16.0960 C.ar      1 UN5        -0.0816
     20 C10        41.3780    9.1580   16.7880 C.2       1 UN5         0.1845
     21 O4         41.6760    8.4940   17.7750 O.2       1 UN5        -0.3964
     22 C12        40.5310    8.5820   15.6790 C.3       1 UN5         0.0470
     23 C13        40.0970    7.1420   15.9500 C.3       1 UN5        -0.0061
     24 C14        39.0860    6.7490   14.8920 C.ar      1 UN5        -0.0569
     25 C16        39.5100    6.0780   13.7460 C.ar      1 UN5        -0.0774
     26 C19        38.5880    5.7110   12.7610 C.ar      1 UN5        -0.0842
     27 C15        37.2410    6.0330   12.9180 C.ar      1 UN5        -0.0525
     28 C18        36.8210    6.7180   14.0610 C.ar      1 UN5         0.0526
     29 C17        37.7440    7.0840   15.0360 C.ar      1 UN5        -0.0449
     30 N3         35.5350    7.0730   14.2770 N.am      1 UN5        -0.2221
     31 S2         34.4960    7.6230   13.1840 S.o2      1 UN5        -0.0947
     32 O5         33.9520    6.4720   12.4250 O.co2     1 UN5        -0.4630
     33 O6         35.1430    8.5670   12.2350 O.co2     1 UN5        -0.4630
     34 O7         33.4560    8.3920   13.9150 O.co2     1 UN5        -0.4630
     35 H1         39.9306   11.1202   17.8656 H         1 UN5         0.1848
     36 H2         38.5043   12.3492   19.2716 H         1 UN5         0.0484
     37 H3         39.7894   13.6043   19.2743 H         1 UN5         0.0484
     38 H4         39.8312   12.2734   20.4800 H         1 UN5         0.0484
     39 H5         42.9913   10.1878   18.3493 H         1 UN5         0.0822
     40 H6         40.3350   11.3522   15.4492 H         1 UN5         0.0670
     41 H7         41.6995   10.5960   14.5587 H         1 UN5         0.0670
     42 H8         40.7326   13.2417   13.8925 H         1 UN5         0.0402
     43 H9         40.8625   16.2347   13.8600 H         1 UN5         0.2102
     44 H10        43.7020   16.0351   15.1828 H         1 UN5         0.0410
     45 H11        44.3914   11.0991   16.5693 H         1 UN5         0.0428
     46 H12        44.3072   12.2755   17.9241 H         1 UN5         0.0428
     47 H13        44.6536   14.3485   16.7095 H         1 UN5         0.0497
     48 H14        41.1125    8.6037   14.7456 H         1 UN5         0.0525
     49 H15        39.6312    9.2043   15.5650 H         1 UN5         0.0525
     50 H16        39.6391    7.0719   16.9477 H         1 UN5         0.0447
     51 H17        40.9692    6.4737   15.8990 H         1 UN5         0.0447
     52 H18        40.5597    5.8396   13.6179 H         1 UN5         0.0415
     53 H19        38.9199    5.1775   11.8777 H         1 UN5         0.0556
     54 H20        36.5222    5.7531   12.1564 H         1 UN5         0.0427
     55 H21        37.4155    7.6325   15.9114 H         1 UN5         0.0415
     56 H22        35.1960    6.9839   15.2136 H         1 UN5         0.2128
@<TRIPOS>BOND
     1    1    2 2  
     2    2    3 am 
     3    2    5 1  
     4    3    4 1  
     5    5    6 1  
     6    5   18 1  
     7    6    7 1  
     8    6   20 am 
     9    7    8 1  
    10    8    9 ar 
    11    8   17 ar 
    12    9   10 ar 
    13   10   11 1  
    14   10   16 ar 
    15   11   12 am 
    16   12   13 ar 
    17   12   14 ar 
    18   12   15 ar 
    19   16   19 ar 
    20   17   18 1  
    21   17   19 ar 
    22   20   21 2  
    23   20   22 1  
    24   22   23 1  
    25   23   24 1  
    26   24   25 ar 
    27   24   29 ar 
    28   25   26 ar 
    29   26   27 ar 
    30   27   28 ar 
    31   28   29 ar 
    32   28   30 1  
    33   30   31 am 
    34   31   32 ar 
    35   31   33 ar 
    36   31   34 ar 
    37    3   35 1  
    38    4   36 1  
    39    4   37 1  
    40    4   38 1  
    41    5   39 1  
    42    7   40 1  
    43    7   41 1  
    44    9   42 1  
    45   11   43 1  
    46   16   44 1  
    47   18   45 1  
    48   18   46 1  
    49   19   47 1  
    50   22   48 1  
    51   22   49 1  
    52   23   50 1  
    53   23   51 1  
    54   25   52 1  
    55   26   53 1  
    56   27   54 1  
    57   29   55 1  
    58   30   56 1  
@<TRIPOS>SUBSTRUCTURE
     1 UN5         1

