### 
### Created by X-TOOL on Mon Sep 10 21:12:52 2018
### 

@<TRIPOS>MOLECULE
2f70_ligand
   45    46     1     0     0
SMALL
GAST_HUCK


@<TRIPOS>ATOM
      1 O7        -20.7290   49.8970   49.0850 O.co2     1 UN6        -0.4630
      2 S1        -20.5930   49.3700   47.7150 S.o2      1 UN6        -0.0947
      3 O5        -21.6840   49.8030   46.8180 O.co2     1 UN6        -0.4630
      4 O6        -19.4170   50.0460   47.1420 O.co2     1 UN6        -0.4630
      5 N1        -20.4840   47.7680   47.6600 N.am      1 UN6        -0.2221
      6 C5        -19.5450   47.0300   48.3060 C.ar      1 UN6         0.0527
      7 C4        -19.2520   45.7920   47.7420 C.ar      1 UN6        -0.0525
      8 C1        -18.3110   44.9450   48.3160 C.ar      1 UN6        -0.0842
      9 C2        -18.9360   47.4710   49.4910 C.ar      1 UN6        -0.0431
     10 C6        -17.9910   46.6420   50.1150 C.ar      1 UN6        -0.0372
     11 C3        -17.7270   45.4190   49.5010 C.ar      1 UN6        -0.0757
     12 C7        -17.3150   47.0880   51.4030 C.3       1 UN6         0.0607
     13 N2        -15.8630   47.1960   51.2690 N.am      1 UN6        -0.2758
     14 C8        -15.0080   46.2830   51.7430 C.2       1 UN6         0.1798
     15 O1        -15.3940   45.2730   52.3370 O.2       1 UN6        -0.3967
     16 C9        -13.5290   46.5180   51.4820 C.3       1 UN6         0.0467
     17 C10       -13.0880   45.5270   50.3780 C.3       1 UN6        -0.0062
     18 C11       -11.5900   45.7680   50.2520 C.ar      1 UN6        -0.0569
     19 C14       -11.0980   46.7000   49.3410 C.ar      1 UN6        -0.0449
     20 C15        -9.7350   46.9760   49.2220 C.ar      1 UN6         0.0526
     21 N3         -9.2960   47.9050   48.3250 N.am      1 UN6        -0.2221
     22 S2         -8.7890   47.6070   46.8320 S.o2      1 UN6        -0.0947
     23 O4        -10.0170   47.0390   46.2150 O.co2     1 UN6        -0.4630
     24 O3         -8.5110   48.9790   46.3740 O.co2     1 UN6        -0.4630
     25 O2         -7.6920   46.6320   46.9610 O.co2     1 UN6        -0.4630
     26 C12        -8.8510   46.3040   50.0680 C.ar      1 UN6        -0.0525
     27 C16        -9.3050   45.3730   50.9920 C.ar      1 UN6        -0.0842
     28 C13       -10.6770   45.1210   51.0820 C.ar      1 UN6        -0.0774
     29 H1        -21.1586   47.2774   47.1084 H         1 UN6         0.2128
     30 H2        -19.7665   45.4828   46.8394 H         1 UN6         0.0427
     31 H3        -18.0474   43.9881   47.8801 H         1 UN6         0.0556
     32 H4        -19.1910   48.4347   49.9167 H         1 UN6         0.0416
     33 H5        -17.0026   44.7732   49.9840 H         1 UN6         0.0415
     34 H6        -17.5422   46.3557   52.1918 H         1 UN6         0.0680
     35 H7        -17.7163   48.0715   51.6890 H         1 UN6         0.0680
     36 H8        -15.4892   47.9950   50.7979 H         1 UN6         0.1878
     37 H9        -12.9521   46.3373   52.4010 H         1 UN6         0.0525
     38 H10       -13.3669   47.5524   51.1447 H         1 UN6         0.0525
     39 H11       -13.6010   45.7434   49.4293 H         1 UN6         0.0447
     40 H12       -13.2941   44.4889   50.6779 H         1 UN6         0.0447
     41 H13       -11.7972   47.2286   48.7032 H         1 UN6         0.0415
     42 H14        -9.2895   48.8589   48.6252 H         1 UN6         0.2128
     43 H15        -7.7894   46.5133   50.0021 H         1 UN6         0.0427
     44 H16        -8.6061   44.8492   51.6341 H         1 UN6         0.0556
     45 H17       -11.0383   44.4069   51.8132 H         1 UN6         0.0415
@<TRIPOS>BOND
     1    1    2 ar 
     2    2    3 ar 
     3    2    4 ar 
     4    2    5 am 
     5    5    6 1  
     6    6    7 ar 
     7    6    9 ar 
     8    7    8 ar 
     9    8   11 ar 
    10    9   10 ar 
    11   10   11 ar 
    12   10   12 1  
    13   12   13 1  
    14   13   14 am 
    15   14   15 2  
    16   14   16 1  
    17   16   17 1  
    18   17   18 1  
    19   18   19 ar 
    20   18   28 ar 
    21   19   20 ar 
    22   20   21 1  
    23   20   26 ar 
    24   21   22 am 
    25   22   23 ar 
    26   22   24 ar 
    27   22   25 ar 
    28   26   27 ar 
    29   27   28 ar 
    30    5   29 1  
    31    7   30 1  
    32    8   31 1  
    33    9   32 1  
    34   11   33 1  
    35   12   34 1  
    36   12   35 1  
    37   13   36 1  
    38   16   37 1  
    39   16   38 1  
    40   17   39 1  
    41   17   40 1  
    42   19   41 1  
    43   21   42 1  
    44   26   43 1  
    45   27   44 1  
    46   28   45 1  
@<TRIPOS>SUBSTRUCTURE
     1 UN6         1

