### 
### Created by X-TOOL on Mon Sep 10 21:12:52 2018
### 

@<TRIPOS>MOLECULE
2f71_ligand
   53    55     1     0     0
SMALL
GAST_HUCK


@<TRIPOS>ATOM
      1 O53        41.5150   16.9390   11.3980 O.co2     1 UN7        -0.4632
      2 S33        42.4310   15.9710   12.0000 S.o2      1 UN7        -0.0961
      3 O51        42.3620   14.6510   11.3360 O.co2     1 UN7        -0.4632
      4 O52        43.7990   16.4410   12.1400 O.co2     1 UN7        -0.4632
      5 N9         41.7570   15.7350   13.4570 N.am      1 UN7        -0.2261
      6 C5         42.2810   14.8420   14.3530 C.ar      1 UN7         0.0460
      7 C4         43.3590   15.1170   15.1920 C.ar      1 UN7        -0.0587
      8 C2         41.7350   13.5610   14.4090 C.ar      1 UN7        -0.0487
      9 C6         42.2260   12.5910   15.2790 C.ar      1 UN7        -0.0336
     10 C3         43.2930   12.8630   16.0950 C.ar      1 UN7        -0.0511
     11 C7         43.7810   11.7700   17.0300 C.3       1 UN7         0.0117
     12 C1         43.8710   14.1370   16.0500 C.ar      1 UN7        -0.0816
     13 C19        41.6110   11.2240   15.3350 C.3       1 UN7         0.0645
     14 N15        41.8800   10.4400   16.5350 N.am      1 UN7        -0.2402
     15 C13        42.6140   10.9920   17.6800 C.3       1 UN7         0.1417
     16 C16        41.7320   11.8860   18.5090 C.2       1 UN7         0.2033
     17 N27        40.4270   11.7160   18.4000 N.am      1 UN7        -0.2880
     18 C28        39.4050   12.4840   19.0980 C.3       1 UN7         0.0196
     19 O26        42.1830   12.7750   19.2110 O.2       1 UN7        -0.3944
     20 C20        41.4280    9.1810   16.6110 C.2       1 UN7         0.1845
     21 O21        41.6650    8.5230   17.6300 O.2       1 UN7        -0.3964
     22 C22        40.6810    8.4600   15.5040 C.3       1 UN7         0.0474
     23 C25        39.9190    7.1810   15.8530 C.3       1 UN7        -0.0016
     24 C35        39.0500    6.7600   14.6890 C.ar      1 UN7        -0.0373
     25 C39        37.7340    7.1950   14.5210 C.ar      1 UN7        -0.0461
     26 C42        36.9790    6.8250   13.4060 C.ar      1 UN7         0.0035
     27 C46        35.5620    7.2660   13.1680 C.2       1 UN7         0.0613
     28 O49        35.2140    8.1330   12.3210 O.co2     1 UN7        -0.5607
     29 O48        34.7390    6.6740   13.9090 O.co2     1 UN7        -0.5607
     30 C38        37.5560    5.9870   12.4650 C.ar      1 UN7        -0.0546
     31 C41        38.8660    5.5500   12.6100 C.ar      1 UN7        -0.0650
     32 C40        39.6130    5.9410   13.7190 C.ar      1 UN7        -0.0576
     33 H1         40.9395   16.2541   13.7065 H         1 UN7         0.2102
     34 H2         43.8074   16.1039   15.1800 H         1 UN7         0.0410
     35 H3         40.9051   13.3129   13.7572 H         1 UN7         0.0402
     36 H4         44.3870   12.2288   17.8252 H         1 UN7         0.0428
     37 H5         44.4010   11.0647   16.4571 H         1 UN7         0.0428
     38 H6         44.7203   14.3660   16.6835 H         1 UN7         0.0497
     39 H7         41.9846   10.6534   14.4719 H         1 UN7         0.0670
     40 H8         40.5208   11.3439   15.2512 H         1 UN7         0.0670
     41 H9         43.0012   10.1830   18.3168 H         1 UN7         0.0822
     42 H10        40.1121   10.9951   17.7827 H         1 UN7         0.1848
     43 H11        38.4092   12.1171   18.8087 H         1 UN7         0.0484
     44 H12        39.4968   13.5465   18.8286 H         1 UN7         0.0484
     45 H13        39.5371   12.3683   20.1839 H         1 UN7         0.0484
     46 H14        41.4186    8.1982   14.7311 H         1 UN7         0.0525
     47 H15        39.9509    9.1701   15.0885 H         1 UN7         0.0525
     48 H16        39.2848    7.3639   16.7330 H         1 UN7         0.0451
     49 H17        40.6376    6.3795   16.0791 H         1 UN7         0.0451
     50 H18        37.2879    7.8349   15.2737 H         1 UN7         0.0590
     51 H19        36.9776    5.6688   11.6052 H         1 UN7         0.0593
     52 H20        39.3077    4.9042   11.8598 H         1 UN7         0.0606
     53 H21        40.6380    5.6046   13.8252 H         1 UN7         0.0578
@<TRIPOS>BOND
     1    1    2 ar 
     2    2    3 ar 
     3    2    4 ar 
     4    2    5 am 
     5    5    6 1  
     6    6    7 ar 
     7    6    8 ar 
     8    7   12 ar 
     9    8    9 ar 
    10    9   10 ar 
    11    9   13 1  
    12   10   11 1  
    13   10   12 ar 
    14   11   15 1  
    15   13   14 1  
    16   14   15 1  
    17   14   20 am 
    18   15   16 1  
    19   16   17 am 
    20   16   19 2  
    21   17   18 1  
    22   20   21 2  
    23   20   22 1  
    24   22   23 1  
    25   23   24 1  
    26   24   25 ar 
    27   24   32 ar 
    28   25   26 ar 
    29   26   27 1  
    30   26   30 ar 
    31   27   28 ar 
    32   27   29 ar 
    33   30   31 ar 
    34   31   32 ar 
    35    5   33 1  
    36    7   34 1  
    37    8   35 1  
    38   11   36 1  
    39   11   37 1  
    40   12   38 1  
    41   13   39 1  
    42   13   40 1  
    43   15   41 1  
    44   17   42 1  
    45   18   43 1  
    46   18   44 1  
    47   18   45 1  
    48   22   46 1  
    49   22   47 1  
    50   23   48 1  
    51   23   49 1  
    52   25   50 1  
    53   30   51 1  
    54   31   52 1  
    55   32   53 1  
@<TRIPOS>SUBSTRUCTURE
     1 UN7         1

