### 
### Created by X-TOOL on Sun Sep  9 21:50:18 2018
### 

@<TRIPOS>MOLECULE
2f7i_ligand
   24    25     1     0     0
SMALL
GAST_HUCK


@<TRIPOS>ATOM
      1 O17        20.9760   86.1010   29.1210 O.co2     1 NON        -0.5611
      2 C15        21.6430   85.0980   28.4360 C.2       1 NON         0.0618
      3 O16        22.2410   84.1940   29.0500 O.co2     1 NON        -0.5611
      4 C6         21.6450   85.1010   26.9500 C.ar      1 NON         0.0086
      5 C1         20.9650   86.1320   26.2590 C.ar      1 NON        -0.0487
      6 C5         22.3230   84.0790   26.2360 C.ar      1 NON        -0.0487
      7 C4         22.3360   84.0920   24.9170 C.ar      1 NON        -0.0528
      8 C3         21.6390   85.1240   24.1540 C.ar      1 NON        -0.0155
      9 C2         20.9610   86.1450   24.8890 C.ar      1 NON        -0.0528
     10 C7         21.6360   85.1360   22.7760 C.ar      1 NON         0.0519
     11 C12        21.6380   83.9080   21.9550 C.ar      1 NON         0.1407
     12 F2         21.6030   82.6700   22.5720 F         1 NON        -0.1822
     13 C11        21.6510   83.9380   20.6360 C.ar      1 NON        -0.0306
     14 C10        21.6310   85.1600   19.9930 C.ar      1 NON        -0.0647
     15 C9         21.6130   86.3700   20.7100 C.ar      1 NON        -0.0306
     16 C8         21.6150   86.3710   22.0830 C.ar      1 NON         0.1407
     17 F1         21.6660   87.6030   22.7220 F         1 NON        -0.1822
     18 H1         20.4491   86.9088   26.8118 H         1 NON         0.0647
     19 H2         22.8306   83.2871   26.7749 H         1 NON         0.0647
     20 H3         22.8775   83.3174   24.3862 H         1 NON         0.0617
     21 H4         20.4404   86.9346   24.3593 H         1 NON         0.0617
     22 H5         21.6770   83.0168   20.0653 H         1 NON         0.0572
     23 H6         21.6291   85.1874   18.9093 H         1 NON         0.0602
     24 H7         21.5974   87.3115   20.1730 H         1 NON         0.0572
@<TRIPOS>BOND
     1    1    2 ar 
     2    2    3 ar 
     3    2    4 1  
     4    4    5 ar 
     5    4    6 ar 
     6    5    9 ar 
     7    6    7 ar 
     8    7    8 ar 
     9    8    9 ar 
    10    8   10 1  
    11   10   11 ar 
    12   10   16 ar 
    13   11   12 1  
    14   11   13 ar 
    15   13   14 ar 
    16   14   15 ar 
    17   15   16 ar 
    18   16   17 1  
    19    5   18 1  
    20    6   19 1  
    21    7   20 1  
    22    9   21 1  
    23   13   22 1  
    24   14   23 1  
    25   15   24 1  
@<TRIPOS>SUBSTRUCTURE
     1 NON         1

