### 
### Created by X-TOOL on Mon Sep 10 21:12:53 2018
### 

@<TRIPOS>MOLECULE
2f7p_ligand
   38    39     1     0     0
SMALL
GAST_HUCK


@<TRIPOS>ATOM
      1 C5         31.3020   66.1950    9.0630 C.3       1 2SK         0.0224
      2 N5         31.1040   64.8680    9.6610 N.4       1 2SK         0.2440
      3 C4         32.7860   66.5780    9.0790 C.3       1 2SK         0.1268
      4 O4         33.6320   65.5030    9.5100 O.3       1 2SK        -0.3835
      5 C3         33.1520   67.0770    7.6940 C.3       1 2SK         0.1133
      6 O3         33.7860   66.0820    6.9070 O.3       1 2SK        -0.3864
      7 C2         31.7850   67.3730    7.0690 C.3       1 2SK         0.1007
      8 O2         31.7250   67.5970    5.6690 O.3       1 2SK        -0.3878
      9 C1         30.9320   66.2310    7.5900 C.3       1 2SK         0.0785
     10 S6         29.1720   66.3690    7.3850 S.3       1 2SK        -0.1524
     11 C7         28.5300   68.0320    7.6240 C.3       1 2SK        -0.0176
     12 C8         29.7680   64.2680    9.7680 C.3       1 2SK         0.0005
     13 C9         28.9780   64.5820   11.0560 C.ar      1 2SK         0.0013
     14 C14        28.2240   65.7460   11.0990 C.ar      1 2SK        -0.0553
     15 C13        27.5150   66.0230   12.2820 C.ar      1 2SK        -0.0684
     16 C10        29.0130   63.7240   12.1650 C.ar      1 2SK        -0.0553
     17 C11        28.3120   64.0040   13.3530 C.ar      1 2SK        -0.0684
     18 C12        27.5400   65.1880   13.4060 C.ar      1 2SK        -0.0687
     19 H1         30.7059   66.9308    9.6228 H         1 2SK         0.0889
     20 H2         31.4680   64.9214   10.5994 H         1 2SK         0.2032
     21 H3         31.6619   64.2259    9.1202 H         1 2SK         0.2032
     22 H4         32.9195   67.4059    9.7909 H         1 2SK         0.0677
     23 H5         34.5372   65.7911    9.5020 H         1 2SK         0.2102
     24 H6         33.7847   67.9751    7.7503 H         1 2SK         0.0647
     25 H7         33.9947   66.4410    6.0526 H         1 2SK         0.2100
     26 H8         31.4129   68.3047    7.5200 H         1 2SK         0.0633
     27 H9         32.2656   68.3454    5.4458 H         1 2SK         0.2099
     28 H10        31.2457   65.2994    7.0965 H         1 2SK         0.0495
     29 H11        27.4395   68.0283    7.4796 H         1 2SK         0.0341
     30 H12        28.9940   68.7125    6.8949 H         1 2SK         0.0341
     31 H13        28.7637   68.3723    8.6436 H         1 2SK         0.0341
     32 H14        29.8850   63.1761    9.7046 H         1 2SK         0.0980
     33 H15        29.1719   64.6231    8.9144 H         1 2SK         0.0980
     34 H16        28.1827   66.4188   10.2501 H         1 2SK         0.0558
     35 H17        26.9197   66.9278   12.3257 H         1 2SK         0.0599
     36 H18        29.5998   62.8145   12.1051 H         1 2SK         0.0558
     37 H19        28.3623   63.3321   14.2022 H         1 2SK         0.0599
     38 H20        26.9795   65.4437   14.2979 H         1 2SK         0.0559
@<TRIPOS>BOND
     1    1    2 1  
     2    1    3 1  
     3    1    9 1  
     4    2   12 1  
     5    3    4 1  
     6    3    5 1  
     7    5    6 1  
     8    5    7 1  
     9    7    8 1  
    10    7    9 1  
    11    9   10 1  
    12   10   11 1  
    13   12   13 1  
    14   13   14 ar 
    15   13   16 ar 
    16   14   15 ar 
    17   15   18 ar 
    18   16   17 ar 
    19   17   18 ar 
    20    1   19 1  
    21    2   20 1  
    22    2   21 1  
    23    3   22 1  
    24    4   23 1  
    25    5   24 1  
    26    6   25 1  
    27    7   26 1  
    28    8   27 1  
    29    9   28 1  
    30   11   29 1  
    31   11   30 1  
    32   11   31 1  
    33   12   32 1  
    34   12   33 1  
    35   14   34 1  
    36   15   35 1  
    37   16   36 1  
    38   17   37 1  
    39   18   38 1  
@<TRIPOS>SUBSTRUCTURE
     1 2SK         1

