### 
### Created by X-TOOL on Mon Sep 10 21:12:53 2018
### 

@<TRIPOS>MOLECULE
2f80_ligand
   75    78     1     0     0
SMALL
GAST_HUCK


@<TRIPOS>ATOM
      1 N1         21.1430   28.7980   14.0100 N.pl3     1 017        -0.3369
      2 C2         20.5620   27.6460   14.4460 C.ar      1 017         0.0353
      3 C3         19.2200   27.4510   14.1280 C.ar      1 017        -0.0429
      4 C4         18.5750   26.2900   14.5490 C.ar      1 017        -0.0471
      5 C5         19.3070   25.3530   15.2830 C.ar      1 017         0.0949
      6 C6         20.6580   25.5150   15.6220 C.ar      1 017        -0.0471
      7 C7         21.2920   26.6990   15.1850 C.ar      1 017        -0.0429
      8 S8         18.4080   23.8460   15.8120 S.o2      1 017         0.0648
      9 O9         17.2190   23.5220   14.8850 O.2       1 017        -0.1518
     10 O10        19.4760   22.6930   15.9630 O.2       1 017        -0.1518
     11 N11        17.8200   24.1710   17.4900 N.am      1 017        -0.2327
     12 C12        18.8420   24.5720   18.5060 C.3       1 017         0.0319
     13 C13        18.5320   23.9580   19.8970 C.3       1 017        -0.0296
     14 C14        18.3170   22.4680   19.6970 C.3       1 017        -0.0612
     15 C15        19.7340   24.2060   20.8030 C.3       1 017        -0.0612
     16 C16        16.5610   25.0320   17.5180 C.3       1 017         0.0578
     17 C17        15.4090   24.0820   18.0090 C.3       1 017         0.0967
     18 O18        14.2840   24.8750   18.3430 O.3       1 017        -0.3877
     19 C19        15.0610   22.9430   17.0100 C.3       1 017         0.0807
     20 N20        14.1470   22.0380   17.6660 N.am      1 017        -0.2550
     21 C21        14.4610   20.7880   18.0620 C.2       1 017         0.3203
     22 O22        15.5720   20.2090   17.7850 O.2       1 017        -0.3775
     23 O23        13.4090   20.1960   18.8200 O.3       1 017        -0.2578
     24 C24        13.5140   18.7410   19.0150 C.3       1 017         0.1189
     25 C25        12.8390   18.3920   20.3620 C.3       1 017         0.0815
     26 O26        11.4100   18.6260   20.1590 O.3       1 017        -0.3480
     27 C27        11.1950   18.2080   18.8220 C.3       1 017         0.1648
     28 O28        10.2770   19.0030   18.0950 O.3       1 017        -0.3509
     29 C29        11.1260   19.5880   17.0830 C.3       1 017         0.0512
     30 C30        12.2140   18.5700   16.7260 C.3       1 017        -0.0191
     31 C31        12.4780   18.0440   18.1150 C.3       1 017         0.0449
     32 C32        14.3430   23.3390   15.6960 C.3       1 017         0.0064
     33 C33        12.5470   21.8390   14.6860 C.ar      1 017        -0.0603
     34 C34        12.1480   20.7570   13.8910 C.ar      1 017        -0.0686
     35 C35        13.1250   19.9890   13.2360 C.ar      1 017        -0.0687
     36 C36        14.4820   20.3080   13.3800 C.ar      1 017        -0.0686
     37 C37        14.8810   21.3940   14.1770 C.ar      1 017        -0.0603
     38 C38        13.9040   22.1590   14.8300 C.ar      1 017        -0.0408
     39 H1         20.5920   29.4802   13.4697 H         1 017         0.1719
     40 H2         22.1334   28.9870   14.2205 H         1 017         0.1719
     41 H3         18.6808   28.1978   13.5566 H         1 017         0.0515
     42 H4         17.5311   26.1179   14.3130 H         1 017         0.0602
     43 H5         21.1920   24.7649   16.1940 H         1 017         0.0602
     44 H6         22.3357   26.8764   15.4182 H         1 017         0.0515
     45 H7         18.8488   25.6685   18.5928 H         1 017         0.0480
     46 H8         19.8315   24.2243   18.1743 H         1 017         0.0480
     47 H9         17.6315   24.4164   20.3317 H         1 017         0.0311
     48 H10        18.0939   21.9965   20.6655 H         1 017         0.0233
     49 H11        19.2273   22.0199   19.2721 H         1 017         0.0233
     50 H12        17.4740   22.3083   19.0087 H         1 017         0.0233
     51 H13        19.8750   25.2887   20.9369 H         1 017         0.0233
     52 H14        20.6349   23.7730   20.3438 H         1 017         0.0233
     53 H15        19.5589   23.7353   21.7816 H         1 017         0.0233
     54 H16        16.3376   25.4182   16.5125 H         1 017         0.0504
     55 H17        16.6872   25.8740   18.2145 H         1 017         0.0504
     56 H18        15.7575   23.5939   18.9311 H         1 017         0.0634
     57 H19        14.0008   25.3595   17.5766 H         1 017         0.2100
     58 H20        15.9961   22.4240   16.7527 H         1 017         0.0604
     59 H21        13.2164   22.3607   17.8386 H         1 017         0.1873
     60 H22        14.5448   18.3738   18.9023 H         1 017         0.0675
     61 H23        13.2239   19.0397   21.1634 H         1 017         0.0590
     62 H24        13.0223   17.3390   20.6217 H         1 017         0.0590
     63 H25        10.7411   17.2079   18.8841 H         1 017         0.0913
     64 H26        11.5888   20.5074   17.4708 H         1 017         0.0561
     65 H27        10.5307   19.8260   16.1892 H         1 017         0.0561
     66 H28        13.1021   19.0472   16.2860 H         1 017         0.0293
     67 H29        11.8446   17.7868   16.0477 H         1 017         0.0293
     68 H30        12.7557   16.9829   18.0325 H         1 017         0.0380
     69 H31        15.0297   23.9620   15.1042 H         1 017         0.0449
     70 H32        13.4490   23.9245   15.9566 H         1 017         0.0449
     71 H33        11.7984   22.4351   15.1952 H         1 017         0.0557
     72 H34        11.0970   20.5150   13.7824 H         1 017         0.0599
     73 H35        12.8289   19.1487   12.6185 H         1 017         0.0559
     74 H36        15.2308   19.7113   12.8717 H         1 017         0.0599
     75 H37        15.9316   21.6376   14.2858 H         1 017         0.0557
@<TRIPOS>BOND
     1    2    1 1  
     2    3    2 ar 
     3    7    2 ar 
     4    4    3 ar 
     5    5    4 ar 
     6    5    6 ar 
     7    8    5 1  
     8    6    7 ar 
     9    8    9 2  
    10    8   10 2  
    11   11    8 am 
    12   11   12 1  
    13   16   11 1  
    14   12   13 1  
    15   13   14 1  
    16   13   15 1  
    17   17   16 1  
    18   17   18 1  
    19   19   17 1  
    20   19   20 1  
    21   32   19 1  
    22   20   21 am 
    23   21   22 2  
    24   21   23 1  
    25   23   24 1  
    26   24   25 1  
    27   24   31 1  
    28   25   26 1  
    29   27   26 1  
    30   27   28 1  
    31   31   27 1  
    32   29   28 1  
    33   30   29 1  
    34   31   30 1  
    35   38   32 1  
    36   33   34 ar 
    37   33   38 ar 
    38   34   35 ar 
    39   35   36 ar 
    40   36   37 ar 
    41   37   38 ar 
    42    1   39 1  
    43    1   40 1  
    44    3   41 1  
    45    4   42 1  
    46    6   43 1  
    47    7   44 1  
    48   12   45 1  
    49   12   46 1  
    50   13   47 1  
    51   14   48 1  
    52   14   49 1  
    53   14   50 1  
    54   15   51 1  
    55   15   52 1  
    56   15   53 1  
    57   16   54 1  
    58   16   55 1  
    59   17   56 1  
    60   18   57 1  
    61   19   58 1  
    62   20   59 1  
    63   24   60 1  
    64   25   61 1  
    65   25   62 1  
    66   27   63 1  
    67   29   64 1  
    68   29   65 1  
    69   30   66 1  
    70   30   67 1  
    71   31   68 1  
    72   32   69 1  
    73   32   70 1  
    74   33   71 1  
    75   34   72 1  
    76   35   73 1  
    77   36   74 1  
    78   37   75 1  
@<TRIPOS>SUBSTRUCTURE
     1 017         1

