### 
### Created by X-TOOL on Mon Sep 10 21:12:53 2018
### 

@<TRIPOS>MOLECULE
2f81_ligand
   75    78     1     0     0
SMALL
GAST_HUCK


@<TRIPOS>ATOM
      1 N1          8.1990   57.2630   14.1130 N.pl3     1 017        -0.3369
      2 C2          8.6730   58.4230   14.5710 C.ar      1 017         0.0353
      3 C3         10.0100   58.6630   14.2710 C.ar      1 017        -0.0429
      4 C4         10.5810   59.8330   14.7070 C.ar      1 017        -0.0471
      5 C5          9.7660   60.7150   15.4280 C.ar      1 017         0.0949
      6 C6          8.4290   60.4810   15.7340 C.ar      1 017        -0.0471
      7 C7          7.8370   59.2820   15.2920 C.ar      1 017        -0.0429
      8 S8         10.6440   62.2180   15.9530 S.o2      1 017         0.0648
      9 O9         11.8530   62.4980   15.0290 O.2       1 017        -0.1518
     10 O10         9.6620   63.3930   16.1790 O.2       1 017        -0.1518
     11 N11        11.3060   61.8570   17.5900 N.am      1 017        -0.2327
     12 C12        10.2860   61.5940   18.6410 C.3       1 017         0.0319
     13 C13        10.7920   62.1880   19.9860 C.3       1 017        -0.0296
     14 C14        10.7790   63.6990   19.8520 C.3       1 017        -0.0612
     15 C15         9.8740   61.7390   21.0950 C.3       1 017        -0.0612
     16 C16        12.6140   61.1770   17.5660 C.3       1 017         0.0578
     17 C17        13.7530   62.0970   18.1130 C.3       1 017         0.0967
     18 O18        14.9180   61.2810   18.3050 O.3       1 017        -0.3877
     19 C19        14.1140   63.2160   17.0780 C.3       1 017         0.0807
     20 N20        14.9710   64.1310   17.7720 N.am      1 017        -0.2550
     21 C21        14.6300   65.3880   18.1050 C.2       1 017         0.3203
     22 O22        13.5360   65.9490   17.8240 O.2       1 017        -0.3775
     23 O23        15.7420   65.9160   18.8150 O.3       1 017        -0.2578
     24 C24        15.6310   67.3850   19.0220 C.3       1 017         0.1189
     25 C25        16.2760   67.5730   20.4170 C.3       1 017         0.0815
     26 O26        17.7030   67.4920   20.2200 O.3       1 017        -0.3480
     27 C27        17.9450   67.9230   18.8900 C.3       1 017         0.1648
     28 O28        18.8550   67.0570   18.1820 O.3       1 017        -0.3509
     29 C29        18.0780   66.5450   17.1070 C.3       1 017         0.0512
     30 C30        17.0330   67.6250   16.7630 C.3       1 017        -0.0191
     31 C31        16.6820   68.1000   18.1650 C.3       1 017         0.0449
     32 C32        14.8240   62.7100   15.7830 C.3       1 017         0.0064
     33 C33        16.5910   64.3280   14.7970 C.ar      1 017        -0.0603
     34 C34        16.9590   65.4490   13.9880 C.ar      1 017        -0.0686
     35 C35        15.9410   66.1220   13.3210 C.ar      1 017        -0.0687
     36 C36        14.6090   65.7340   13.4210 C.ar      1 017        -0.0686
     37 C37        14.2890   64.6420   14.2180 C.ar      1 017        -0.0603
     38 C38        15.2590   63.9200   14.9130 C.ar      1 017        -0.0408
     39 H1          8.8133   56.6293   13.5819 H         1 017         0.1719
     40 H2          7.2188   57.0011   14.2905 H         1 017         0.1719
     41 H3         10.5886   57.9418   13.7052 H         1 017         0.0515
     42 H4         11.6199   60.0647   14.5017 H         1 017         0.0602
     43 H5          7.8555   61.2058   16.3003 H         1 017         0.0602
     44 H6          6.8004   59.0404   15.4973 H         1 017         0.0515
     45 H7         10.1361   60.5096   18.7484 H         1 017         0.0480
     46 H8          9.3346   62.0697   18.3609 H         1 017         0.0480
     47 H9         11.8152   61.8413   20.1930 H         1 017         0.0311
     48 H10        11.1326   64.1533   20.7893 H         1 017         0.0233
     49 H11         9.7542   64.0398   19.6432 H         1 017         0.0233
     50 H12        11.4408   63.9996   19.0264 H         1 017         0.0233
     51 H13         9.9011   60.6420   21.1718 H         1 017         0.0233
     52 H14         8.8469   62.0659   20.8758 H         1 017         0.0233
     53 H15        10.2045   62.1814   22.0463 H         1 017         0.0233
     54 H16        12.8504   60.8949   16.5294 H         1 017         0.0504
     55 H17        12.5569   60.2718   18.1884 H         1 017         0.0504
     56 H18        13.4413   62.5539   19.0638 H         1 017         0.0634
     57 H19        15.1736   60.8955   17.4751 H         1 017         0.2100
     58 H20        13.1885   63.7292   16.7779 H         1 017         0.0604
     59 H21        15.8845   63.8130   18.0258 H         1 017         0.1873
     60 H22        14.6086   67.7742   18.9074 H         1 017         0.0675
     61 H23        15.9408   66.7796   21.1012 H         1 017         0.0590
     62 H24        16.0045   68.5546   20.8326 H         1 017         0.0590
     63 H25        18.4267   68.9099   18.9522 H         1 017         0.0913
     64 H26        17.5759   65.6148   17.4114 H         1 017         0.0561
     65 H27        18.7197   66.3472   16.2358 H         1 017         0.0561
     66 H28        16.1608   67.2002   16.2445 H         1 017         0.0293
     67 H29        17.4645   68.4326   16.1534 H         1 017         0.0293
     68 H30        16.3960   69.1604   18.1034 H         1 017         0.0380
     69 H31        14.1297   62.0788   15.2090 H         1 017         0.0449
     70 H32        15.7113   62.1216   16.0594 H         1 017         0.0449
     71 H33        17.3612   63.7835   15.3313 H         1 017         0.0557
     72 H34        17.9929   65.7622   13.8982 H         1 017         0.0599
     73 H35        16.1937   66.9763   12.7034 H         1 017         0.0559
     74 H36        13.8351   66.2736   12.8871 H         1 017         0.0599
     75 H37        13.2510   64.3411   14.3025 H         1 017         0.0557
@<TRIPOS>BOND
     1    2    1 1  
     2    3    2 ar 
     3    7    2 ar 
     4    4    3 ar 
     5    5    4 ar 
     6    5    6 ar 
     7    8    5 1  
     8    6    7 ar 
     9    8    9 2  
    10    8   10 2  
    11   11    8 am 
    12   11   12 1  
    13   16   11 1  
    14   12   13 1  
    15   13   14 1  
    16   13   15 1  
    17   17   16 1  
    18   17   18 1  
    19   19   17 1  
    20   19   20 1  
    21   32   19 1  
    22   20   21 am 
    23   21   22 2  
    24   21   23 1  
    25   23   24 1  
    26   24   25 1  
    27   24   31 1  
    28   25   26 1  
    29   27   26 1  
    30   27   28 1  
    31   31   27 1  
    32   29   28 1  
    33   30   29 1  
    34   31   30 1  
    35   38   32 1  
    36   33   34 ar 
    37   33   38 ar 
    38   34   35 ar 
    39   35   36 ar 
    40   36   37 ar 
    41   37   38 ar 
    42    1   39 1  
    43    1   40 1  
    44    3   41 1  
    45    4   42 1  
    46    6   43 1  
    47    7   44 1  
    48   12   45 1  
    49   12   46 1  
    50   13   47 1  
    51   14   48 1  
    52   14   49 1  
    53   14   50 1  
    54   15   51 1  
    55   15   52 1  
    56   15   53 1  
    57   16   54 1  
    58   16   55 1  
    59   17   56 1  
    60   18   57 1  
    61   19   58 1  
    62   20   59 1  
    63   24   60 1  
    64   25   61 1  
    65   25   62 1  
    66   27   63 1  
    67   29   64 1  
    68   29   65 1  
    69   30   66 1  
    70   30   67 1  
    71   31   68 1  
    72   32   69 1  
    73   32   70 1  
    74   33   71 1  
    75   34   72 1  
    76   35   73 1  
    77   36   74 1  
    78   37   75 1  
@<TRIPOS>SUBSTRUCTURE
     1 017         1

