### 
### Created by X-TOOL on Mon Sep 10 21:12:53 2018
### 

@<TRIPOS>MOLECULE
2f8g_ligand
   75    78     1     0     0
SMALL
GAST_HUCK


@<TRIPOS>ATOM
      1 N1         11.3930   17.4080   21.4820 N.pl3     1 017        -0.3369
      2 C2         12.4430   18.0070   20.8380 C.ar      1 017         0.0353
      3 C3         13.3160   18.8320   21.5430 C.ar      1 017        -0.0429
      4 C4         14.3420   19.4980   20.8770 C.ar      1 017        -0.0471
      5 C5         14.5400   19.2250   19.5170 C.ar      1 017         0.0949
      6 C6         13.6350   18.4830   18.7400 C.ar      1 017        -0.0471
      7 C7         12.5820   17.8360   19.4380 C.ar      1 017        -0.0429
      8 S8         15.7490   20.2650   18.6240 S.o2      1 017         0.0648
      9 O9         16.7860   20.7570   19.6270 O.2       1 017        -0.1518
     10 O10        16.2630   19.4170   17.4360 O.2       1 017        -0.1518
     11 N11        14.9730   21.6620   17.8780 N.am      1 017        -0.2327
     12 C12        13.9330   21.3620   16.8460 C.3       1 017         0.0319
     13 C13        13.9560   22.4270   15.7360 C.3       1 017        -0.0296
     14 C14        15.2940   22.4620   15.0410 C.3       1 017        -0.0612
     15 C15        12.8080   22.2160   14.7760 C.3       1 017        -0.0612
     16 C16        14.7330   22.8000   18.8470 C.3       1 017         0.0578
     17 C17        15.6880   23.9740   18.3970 C.3       1 017         0.0967
     18 O18        15.1770   25.1080   19.0740 O.3       1 017        -0.3877
     19 C19        17.2020   23.8050   18.7000 C.3       1 017         0.0807
     20 N20        17.9170   24.9210   18.1120 N.am      1 017        -0.2550
     21 C21        18.6570   24.7060   16.9980 C.2       1 017         0.3203
     22 O22        18.8760   23.6180   16.3790 O.2       1 017        -0.3775
     23 O23        19.1820   25.9290   16.5510 O.3       1 017        -0.2578
     24 C24        20.2890   25.8870   15.5890 C.3       1 017         0.1189
     25 C25        20.1990   27.1730   14.7640 C.3       1 017         0.0815
     26 O26        20.7120   28.2250   15.6150 O.3       1 017        -0.3480
     27 C27        21.6620   27.5630   16.4550 C.3       1 017         0.1648
     28 O28        21.5090   27.9890   17.8050 O.3       1 017        -0.3509
     29 C29        21.2250   26.7880   18.5540 C.3       1 017         0.0512
     30 C30        21.8090   25.6060   17.7370 C.3       1 017        -0.0191
     31 C31        21.6130   26.1030   16.3410 C.3       1 017         0.0449
     32 C32        17.5850   23.7370   20.2080 C.3       1 017         0.0064
     33 C33        19.8570   24.5860   20.9110 C.ar      1 017        -0.0603
     34 C34        21.2340   24.3730   21.0570 C.ar      1 017        -0.0686
     35 C35        21.8300   23.1710   20.6820 C.ar      1 017        -0.0687
     36 C36        21.0340   22.1420   20.1670 C.ar      1 017        -0.0686
     37 C37        19.6680   22.3300   19.9990 C.ar      1 017        -0.0603
     38 C38        19.0810   23.5350   20.4250 C.ar      1 017        -0.0408
     39 H1         11.2792   17.5234   22.4992 H         1 017         0.1719
     40 H2         10.7172   16.8421   20.9491 H         1 017         0.1719
     41 H3         13.1966   18.9561   22.6132 H         1 017         0.0515
     42 H4         14.9719   20.2100   21.3979 H         1 017         0.0602
     43 H5         13.7356   18.4084   17.6633 H         1 017         0.0602
     44 H6         11.8816   17.2089   18.8983 H         1 017         0.0515
     45 H7         12.9413   21.3559   17.3219 H         1 017         0.0480
     46 H8         14.1342   20.3746   16.4050 H         1 017         0.0480
     47 H9         13.8101   23.4080   16.2118 H         1 017         0.0311
     48 H10        15.2788   23.2313   14.2549 H         1 017         0.0233
     49 H11        15.4983   21.4801   14.5892 H         1 017         0.0233
     50 H12        16.0808   22.7002   15.7719 H         1 017         0.0233
     51 H13        11.8609   22.1990   15.3352 H         1 017         0.0233
     52 H14        12.9407   21.2588   14.2504 H         1 017         0.0233
     53 H15        12.7868   23.0366   14.0437 H         1 017         0.0233
     54 H16        14.9747   22.4843   19.8726 H         1 017         0.0504
     55 H17        13.6829   23.1244   18.8010 H         1 017         0.0504
     56 H18        15.5854   24.1097   17.3102 H         1 017         0.0634
     57 H19        15.2105   24.9575   20.0114 H         1 017         0.2100
     58 H20        17.5351   22.8701   18.2257 H         1 017         0.0604
     59 H21        17.8648   25.8320   18.5211 H         1 017         0.1873
     60 H22        20.2785   24.9693   14.9826 H         1 017         0.0675
     61 H23        19.1542   27.3788   14.4884 H         1 017         0.0590
     62 H24        20.8085   27.0866   13.8524 H         1 017         0.0590
     63 H25        22.6626   27.8759   16.1219 H         1 017         0.0913
     64 H26        20.1387   26.6648   18.6757 H         1 017         0.0561
     65 H27        21.7017   26.8368   19.5441 H         1 017         0.0561
     66 H28        21.2510   24.6753   17.9169 H         1 017         0.0293
     67 H29        22.8734   25.4449   17.9631 H         1 017         0.0293
     68 H30        22.4333   25.7097   15.7226 H         1 017         0.0380
     69 H31        17.0455   22.8976   20.6710 H         1 017         0.0449
     70 H32        17.2830   24.6780   20.6909 H         1 017         0.0449
     71 H33        19.4088   25.5389   21.1681 H         1 017         0.0557
     72 H34        21.8504   25.1624   21.4717 H         1 017         0.0599
     73 H35        22.9001   23.0342   20.7882 H         1 017         0.0559
     74 H36        21.4853   21.1939   19.8979 H         1 017         0.0599
     75 H37        19.0606   21.5559   19.5442 H         1 017         0.0557
@<TRIPOS>BOND
     1    2    1 1  
     2    3    2 ar 
     3    7    2 ar 
     4    4    3 ar 
     5    5    4 ar 
     6    5    6 ar 
     7    8    5 1  
     8    6    7 ar 
     9    8    9 2  
    10    8   10 2  
    11   11    8 am 
    12   11   12 1  
    13   16   11 1  
    14   12   13 1  
    15   13   14 1  
    16   13   15 1  
    17   17   16 1  
    18   17   18 1  
    19   19   17 1  
    20   19   20 1  
    21   32   19 1  
    22   20   21 am 
    23   21   22 2  
    24   21   23 1  
    25   23   24 1  
    26   24   25 1  
    27   24   31 1  
    28   25   26 1  
    29   27   26 1  
    30   27   28 1  
    31   31   27 1  
    32   29   28 1  
    33   30   29 1  
    34   31   30 1  
    35   38   32 1  
    36   33   34 ar 
    37   33   38 ar 
    38   34   35 ar 
    39   35   36 ar 
    40   36   37 ar 
    41   37   38 ar 
    42    1   39 1  
    43    1   40 1  
    44    3   41 1  
    45    4   42 1  
    46    6   43 1  
    47    7   44 1  
    48   12   45 1  
    49   12   46 1  
    50   13   47 1  
    51   14   48 1  
    52   14   49 1  
    53   14   50 1  
    54   15   51 1  
    55   15   52 1  
    56   15   53 1  
    57   16   54 1  
    58   16   55 1  
    59   17   56 1  
    60   18   57 1  
    61   19   58 1  
    62   20   59 1  
    63   24   60 1  
    64   25   61 1  
    65   25   62 1  
    66   27   63 1  
    67   29   64 1  
    68   29   65 1  
    69   30   66 1  
    70   30   67 1  
    71   31   68 1  
    72   32   69 1  
    73   32   70 1  
    74   33   71 1  
    75   34   72 1  
    76   35   73 1  
    77   36   74 1  
    78   37   75 1  
@<TRIPOS>SUBSTRUCTURE
     1 017         1

