### 
### Created by X-TOOL on Mon Sep 10 21:12:53 2018
### 

@<TRIPOS>MOLECULE
2f8i_ligand
   26    28     1     0     0
SMALL
GAST_HUCK


@<TRIPOS>ATOM
      1 C1         22.0900    0.3930    4.5450 C.ar      1 205        -0.0541
      2 C2         21.6120    0.0640    5.8110 C.ar      1 205         0.0523
      3 C6         21.3660   -0.0380    3.4060 C.ar      1 205        -0.0602
      4 C5         20.2060   -0.7660    3.5620 C.ar      1 205         0.0002
      5 C4         19.7250   -1.1040    4.8320 C.ar      1 205        -0.0130
      6 C3         20.4370   -0.6710    5.9510 C.ar      1 205         0.1478
      7 C11        21.2480    1.0140   10.1030 C.ar      1 205         0.0606
      8 C10        21.3030   -0.1830    9.4180 C.ar      1 205         0.0747
      9 C8         21.1760   -0.2480    7.9570 C.2       1 205         0.2052
     10 C12        21.3540    1.0660   11.4820 C.ar      1 205        -0.0421
     11 C14        21.5800   -1.3180   11.5120 C.ar      1 205        -0.0421
     12 C13        21.5220   -0.1130   12.2040 C.ar      1 205        -0.0565
     13 C15        21.4670   -1.3450   10.1370 C.ar      1 205         0.0606
     14 C18        19.4870   -1.1920    2.3170 C.2       1 205         0.0578
     15 O19        19.6810   -0.5170    1.2750 O.co2     1 205        -0.5621
     16 O20        18.7390   -2.1840    2.3280 O.co2     1 205        -0.5621
     17 O17        20.1510   -0.8840    7.3110 O.3       1 205        -0.2200
     18 N17        22.0440    0.3190    7.0640 N.2       1 205        -0.2847
     19 CL16       21.5430   -2.9260    9.3490 Cl        1 205        -0.0642
     20 CL17       21.0070    2.5360    9.2150 Cl        1 205        -0.0642
     21 H1         23.0012    0.9695    4.4329 H         1 205         0.0568
     22 H2         21.7242    0.2047    2.4121 H         1 205         0.0565
     23 H3         18.8194   -1.6892    4.9438 H         1 205         0.0601
     24 H4         21.3065    2.0187   11.9970 H         1 205         0.0636
     25 H5         21.7152   -2.2447   12.0579 H         1 205         0.0636
     26 H6         21.6059   -0.0919   13.2845 H         1 205         0.0653
@<TRIPOS>BOND
     1    2    1 ar 
     2    1    3 ar 
     3    6    2 ar 
     4    2   18 1  
     5    4    3 ar 
     6    5    4 ar 
     7    4   14 1  
     8    6    5 ar 
     9   17    6 1  
    10    8    7 ar 
    11    7   10 ar 
    12    7   20 1  
    13    9    8 1  
    14    8   13 ar 
    15    9   17 1  
    16    9   18 2  
    17   10   12 ar 
    18   12   11 ar 
    19   11   13 ar 
    20   13   19 1  
    21   14   15 ar 
    22   14   16 ar 
    23    1   21 1  
    24    3   22 1  
    25    5   23 1  
    26   10   24 1  
    27   11   25 1  
    28   12   26 1  
@<TRIPOS>SUBSTRUCTURE
     1 205         1

