### 
### Created by X-TOOL on Mon Sep 10 21:12:54 2018
### 

@<TRIPOS>MOLECULE
2f9b_ligand
   45    48     1     0     0
SMALL
GAST_HUCK


@<TRIPOS>ATOM
      1 C1         47.3280   -9.0340   12.4180 C.ar      1 N1H         0.1522
      2 C2         47.1790   -7.7050   11.9870 C.ar      1 N1H         0.0385
      3 C3         48.1510   -7.0680   11.2280 C.ar      1 N1H         0.0404
      4 C4         49.2370   -7.8290   10.9410 C.ar      1 N1H         0.1675
      5 C5         49.4100   -9.0820   11.3330 C.ar      1 N1H         0.1568
      6 N6         48.4600   -9.6540   12.0570 N.ar      1 N1H        -0.2430
      7 N7         46.3940   -9.6240   13.1250 N.pl3     1 N1H        -0.3101
      8 N3         50.3240   -7.5330   10.2380 N.pl3     1 N1H        -0.1827
      9 CN4        50.5730   -9.5780   10.9020 C.2       1 N1H         0.1115
     10 C8         51.1830   -8.5520   10.1710 C.2       1 N1H         0.2286
     11 C1'        52.3800   -8.4240    9.4460 C.ar      1 N1H         0.1793
     12 C2'        53.2400   -9.5130    9.2950 C.ar      1 N1H         0.0184
     13 C3'        54.4380   -9.4190    8.5970 C.ar      1 N1H         0.0232
     14 C31'       55.3420  -10.6470    8.4540 C.3       1 N1H         0.0501
     15 C32'       55.9840  -10.9640    9.8040 C.2       1 N1H         0.0514
     16 O33'       55.2840  -11.5700   10.6000 O.co2     1 N1H        -0.5653
     17 O34'       57.1330  -10.5750    9.9530 O.co2     1 N1H        -0.5653
     18 C4'        54.8010   -8.2120    8.0330 C.ar      1 N1H         0.0097
     19 C5'        53.9890   -7.0790    8.1460 C.ar      1 N1H         0.0953
     20 C6'        52.7820   -7.2230    8.8550 C.ar      1 N1H         0.2256
     21 O6'        51.9170   -6.1640    8.9670 O.3       1 N1H        -0.2565
     22 C1''       54.4050   -5.8730    7.5760 C.ar      1 N1H         0.0057
     23 C2''       53.4900   -5.0430    6.9270 C.ar      1 N1H        -0.0486
     24 C3''       53.9070   -3.8580    6.3420 C.ar      1 N1H        -0.0540
     25 C4''       55.2440   -3.4720    6.3910 C.ar      1 N1H        -0.0285
     26 C5''       56.1950   -4.2480    7.0250 C.ar      1 N1H         0.0845
     27 N5''       57.4540   -3.8360    7.0770 N.2       1 N1H        -0.2165
     28 O51        58.3800   -4.3120    8.1070 O.2       1 N1H        -0.4885
     29 O52        58.0340   -2.8290    6.0780 O.2       1 N1H        -0.4885
     30 C6''       55.7700   -5.4480    7.6150 C.ar      1 N1H        -0.0200
     31 H1         46.2798   -7.1620   12.2547 H         1 N1H         0.1106
     32 H2         48.0503   -6.0427   10.8909 H         1 N1H         0.0837
     33 H3         46.5196  -10.5989   13.4328 H         1 N1H         0.1829
     34 H4         45.5349   -9.1124   13.3724 H         1 N1H         0.1829
     35 H5         50.4862   -6.6181    9.7936 H         1 N1H         0.2492
     36 H6         50.9665  -10.5773   11.0826 H         1 N1H         0.1493
     37 H7         52.9642  -10.4637    9.7369 H         1 N1H         0.0745
     38 H8         56.1283  -10.4397    7.7133 H         1 N1H         0.0651
     39 H9         54.7426  -11.5074    8.1215 H         1 N1H         0.0651
     40 H10        55.7367   -8.1411    7.4903 H         1 N1H         0.1019
     41 H11        51.1576   -6.4290    9.4725 H         1 N1H         0.2971
     42 H12        52.4450   -5.3274    6.8801 H         1 N1H         0.0659
     43 H13        53.1843   -3.2244    5.8406 H         1 N1H         0.0631
     44 H14        55.5451   -2.5425    5.9215 H         1 N1H         0.0685
     45 H15        56.4998   -6.0731    8.1166 H         1 N1H         0.0691
@<TRIPOS>BOND
     1    1    2 ar 
     2    1    6 ar 
     3    1    7 1  
     4    2    3 ar 
     5    3    4 ar 
     6    4    5 ar 
     7    4    8 1  
     8    5    6 ar 
     9    5    9 1  
    10    8   10 1  
    11    9   10 2  
    12   10   11 1  
    13   11   12 ar 
    14   11   20 ar 
    15   12   13 ar 
    16   13   14 1  
    17   13   18 ar 
    18   14   15 1  
    19   15   16 ar 
    20   15   17 ar 
    21   18   19 ar 
    22   19   20 ar 
    23   19   22 1  
    24   20   21 1  
    25   22   23 ar 
    26   22   30 ar 
    27   23   24 ar 
    28   24   25 ar 
    29   25   26 ar 
    30   26   27 1  
    31   26   30 ar 
    32   27   28 2  
    33   27   29 2  
    34    2   31 1  
    35    3   32 1  
    36    7   33 1  
    37    7   34 1  
    38    8   35 1  
    39    9   36 1  
    40   12   37 1  
    41   14   38 1  
    42   14   39 1  
    43   18   40 1  
    44   21   41 1  
    45   23   42 1  
    46   24   43 1  
    47   25   44 1  
    48   30   45 1  
@<TRIPOS>SUBSTRUCTURE
     1 N1H         1

