### 
### Created by X-TOOL on Mon Sep 10 21:12:54 2018
### 

@<TRIPOS>MOLECULE
2f9u_ligand
  113   116     1     0     0
SMALL
GAST_HUCK


@<TRIPOS>ATOM
      1 C1        192.3850  -10.4450   48.9620 C.2       1 5NH         0.3223
      2 O2        192.9010  -11.5410   49.1980 O.2       1 5NH        -0.3774
      3 O3        191.1160  -10.0490   49.0680 O.3       1 5NH        -0.2580
      4 C4        190.0660  -10.9010   49.5470 C.3       1 5NH         0.0905
      5 C5        190.2420  -10.8880   51.0960 C.3       1 5NH        -0.0320
      6 C6        188.7600  -10.1850   49.1290 C.3       1 5NH        -0.0320
      7 C7        190.1160  -12.3080   48.8790 C.3       1 5NH        -0.0320
      8 N8        193.0620   -9.3950   48.5190 N.am      1 5NH        -0.2409
      9 C9        194.5100   -9.3770   48.4160 C.3       1 5NH         0.1358
     10 C10       194.9300   -8.7540   47.0780 C.3       1 5NH        -0.0006
     11 C11       196.4370   -8.4790   47.0240 C.3       1 5NH        -0.0460
     12 C12       196.8630   -7.8570   45.7040 C.3       1 5NH        -0.0526
     13 C13       196.4370   -8.7340   44.5240 C.3       1 5NH        -0.0530
     14 C14       194.9370   -9.0390   44.5610 C.3       1 5NH        -0.0526
     15 C15       194.5400   -9.6460   45.9040 C.3       1 5NH        -0.0460
     16 C16       195.1130   -8.5280   49.5360 C.2       1 5NH         0.2069
     17 O17       195.0420   -7.2940   49.4880 O.2       1 5NH        -0.3942
     18 C18       197.2430   -7.4950   51.2240 C.2       1 5NH         0.2026
     19 O19       197.9690   -7.7590   50.2590 O.2       1 5NH        -0.3945
     20 N20       195.6290   -9.1650   50.5990 N.am      1 5NH        -0.2465
     21 C21       196.2570   -8.5210   51.7570 C.3       1 5NH         0.1367
     22 C22       196.7880   -9.7020   52.5980 C.3       1 5NH         0.0018
     23 C23       195.6070  -10.4200   53.2570 C.3       1 5NH        -0.0438
     24 C24       194.8760  -11.0180   52.0590 C.3       1 5NH        -0.0290
     25 C25       195.7560  -10.6320   50.8620 C.3       1 5NH         0.0483
     26 C26       197.1290  -10.6800   51.4870 C.3       1 5NH        -0.0224
     27 N27       197.1720   -6.2900   51.7750 N.am      1 5NH        -0.2772
     28 C28       198.0320   -5.2030   51.3440 C.3       1 5NH         0.0850
     29 C29       197.1950   -4.1660   50.5770 C.3       1 5NH        -0.0253
     30 C30       197.4550   -4.1490   49.0720 C.3       1 5NH        -0.0510
     31 C31       196.1850   -4.3950   48.2520 C.3       1 5NH        -0.0558
     32 C32       196.3370   -4.0030   46.7940 C.3       1 5NH        -0.0653
     33 O33       199.1670   -5.6760   53.5550 O.3       1 5NH        -0.3691
     34 C34       198.7800   -4.6370   52.5630 C.3       1 5NH         0.1663
     35 O35       199.8180   -2.8940   51.4560 O.2       1 5NH        -0.3940
     36 N36       201.1850   -4.6080   51.8750 N.am      1 5NH        -0.2661
     37 C37       202.4250   -3.9030   51.5900 C.3       1 5NH         0.1203
     38 C38       202.8720   -3.8590   50.1450 C.2       1 5NH         0.2025
     39 O39       202.1240   -4.1940   49.2260 O.2       1 5NH        -0.3945
     40 C40       200.0050   -4.0110   51.9260 C.2       1 5NH         0.2093
     41 N41       204.1030   -3.4100   49.9470 N.am      1 5NH        -0.2534
     42 C42       204.6810   -3.3300   48.6210 C.3       1 5NH         0.1644
     43 C43       204.4270   -2.0210   47.9520 C.ar      1 5NH         0.0010
     44 C44       204.1930   -1.9700   46.5870 C.ar      1 5NH        -0.0557
     45 C45       204.0510   -0.7550   45.9470 C.ar      1 5NH        -0.0681
     46 C46       204.1420    0.4290   46.6860 C.ar      1 5NH        -0.0684
     47 C47       204.3690    0.3790   48.0540 C.ar      1 5NH        -0.0681
     48 C48       204.5060   -0.8420   48.6760 C.ar      1 5NH        -0.0557
     49 C49       206.2060   -3.3140   48.7520 C.2       1 5NH         0.2155
     50 O50       206.7480   -2.7720   49.7240 O.2       1 5NH        -0.3913
     51 N51       206.9170   -3.9080   47.7770 N.am      1 5NH        -0.2758
     52 C52       208.3980   -3.8330   47.8450 C.3       1 5NH         0.0224
     53 C53       206.2890   -4.6380   46.6230 C.3       1 5NH         0.0224
     54 H1        189.4711  -11.5223   51.5579 H         1 5NH         0.0260
     55 H2        190.1404   -9.8578   51.4680 H         1 5NH         0.0260
     56 H3        191.2386  -11.2748   51.3551 H         1 5NH         0.0260
     57 H4        187.8947  -10.7774   49.4611 H         1 5NH         0.0260
     58 H5        188.7338  -10.0796   48.0344 H         1 5NH         0.0260
     59 H6        188.7228   -9.1890   49.5943 H         1 5NH         0.0260
     60 H7        189.2976  -12.9294   49.2714 H         1 5NH         0.0260
     61 H8        191.0803  -12.7868   49.1043 H         1 5NH         0.0260
     62 H9        190.0053  -12.2010   47.7898 H         1 5NH         0.0260
     63 H10       192.5530   -8.5795   48.2437 H         1 5NH         0.1899
     64 H11       194.8920  -10.4063   48.4842 H         1 5NH         0.0802
     65 H12       194.4018   -7.7948   46.9735 H         1 5NH         0.0348
     66 H13       196.9750   -9.4292   47.1572 H         1 5NH         0.0270
     67 H14       196.7005   -7.7908   47.8406 H         1 5NH         0.0270
     68 H15       197.9574   -7.7471   45.6943 H         1 5NH         0.0265
     69 H16       196.3941   -6.8669   45.6045 H         1 5NH         0.0265
     70 H17       196.9949   -9.6812   44.5635 H         1 5NH         0.0265
     71 H18       196.6715   -8.2091   43.5862 H         1 5NH         0.0265
     72 H19       194.6937   -9.7502   43.7579 H         1 5NH         0.0265
     73 H20       194.3754   -8.1058   44.4070 H         1 5NH         0.0265
     74 H21       193.4500   -9.7930   45.9177 H         1 5NH         0.0270
     75 H22       195.0425  -10.6181   46.0156 H         1 5NH         0.0270
     76 H23       195.5073   -7.9824   52.3552 H         1 5NH         0.0805
     77 H24       197.6041   -9.4418   53.2881 H         1 5NH         0.0349
     78 H25       194.9650   -9.7122   53.8019 H         1 5NH         0.0271
     79 H26       195.9527  -11.2058   53.9447 H         1 5NH         0.0271
     80 H27       193.8688  -10.5872   51.9597 H         1 5NH         0.0288
     81 H28       194.7996  -12.1113   52.1525 H         1 5NH         0.0288
     82 H29       195.6075  -11.2636   49.9737 H         1 5NH         0.0560
     83 H30       197.3983  -11.6792   51.8598 H         1 5NH         0.0292
     84 H31       197.9206  -10.3128   50.8173 H         1 5NH         0.0292
     85 H32       196.5092   -6.1266   52.5057 H         1 5NH         0.1857
     86 H33       198.7839   -5.6041   50.6484 H         1 5NH         0.0607
     87 H34       197.4263   -3.1687   50.9793 H         1 5NH         0.0290
     88 H35       196.1308   -4.3901   50.7417 H         1 5NH         0.0290
     89 H36       198.1869   -4.9343   48.8320 H         1 5NH         0.0266
     90 H37       197.8673   -3.1670   48.7968 H         1 5NH         0.0266
     91 H38       195.3653   -3.8065   48.6898 H         1 5NH         0.0263
     92 H39       195.9361   -5.4652   48.3033 H         1 5NH         0.0263
     93 H40       195.3959   -4.2026   46.2606 H         1 5NH         0.0230
     94 H41       197.1480   -4.5905   46.3390 H         1 5NH         0.0230
     95 H42       196.5772   -2.9317   46.7254 H         1 5NH         0.0230
     96 H43       198.3864   -6.1119   53.8762 H         1 5NH         0.2134
     97 H44       198.1681   -3.8760   53.0694 H         1 5NH         0.0861
     98 H45       201.2262   -5.5933   52.0407 H         1 5NH         0.1881
     99 H46       203.2238   -4.3882   52.1701 H         1 5NH         0.0763
    100 H47       202.3027   -2.8646   51.9315 H         1 5NH         0.0763
    101 H48       204.6473   -3.1187   50.7337 H         1 5NH         0.1909
    102 H49       204.3248   -4.1693   48.0056 H         1 5NH         0.0960
    103 H50       204.1210   -2.8900   46.0182 H         1 5NH         0.0562
    104 H51       203.8702   -0.7189   44.8788 H         1 5NH         0.0600
    105 H52       204.0351    1.3867   46.1895 H         1 5NH         0.0561
    106 H53       204.4380    1.2951   48.6294 H         1 5NH         0.0600
    107 H54       204.6778   -0.8814   49.7456 H         1 5NH         0.0562
    108 H55       208.8318   -4.3620   46.9837 H         1 5NH         0.0486
    109 H56       208.7465   -4.3022   48.7769 H         1 5NH         0.0486
    110 H57       208.7131   -2.7793   47.8248 H         1 5NH         0.0486
    111 H58       205.1938   -4.6026   46.7191 H         1 5NH         0.0486
    112 H59       206.6236   -5.6858   46.6261 H         1 5NH         0.0486
    113 H60       206.5898   -4.1598   45.6792 H         1 5NH         0.0486
@<TRIPOS>BOND
     1    1    2 2  
     2    1    3 1  
     3    8    1 am 
     4    3    4 1  
     5    4    5 1  
     6    4    6 1  
     7    4    7 1  
     8    9    8 1  
     9    9   10 1  
    10   16    9 1  
    11   10   11 1  
    12   10   15 1  
    13   11   12 1  
    14   12   13 1  
    15   14   13 1  
    16   15   14 1  
    17   16   17 2  
    18   20   16 am 
    19   18   19 2  
    20   18   21 1  
    21   27   18 am 
    22   21   20 1  
    23   20   25 1  
    24   21   22 1  
    25   22   23 1  
    26   22   26 1  
    27   23   24 1  
    28   25   24 1  
    29   26   25 1  
    30   28   27 1  
    31   28   29 1  
    32   34   28 1  
    33   29   30 1  
    34   30   31 1  
    35   31   32 1  
    36   34   33 1  
    37   40   34 1  
    38   40   35 2  
    39   36   37 1  
    40   36   40 am 
    41   37   38 1  
    42   38   39 2  
    43   38   41 am 
    44   41   42 1  
    45   42   43 1  
    46   42   49 1  
    47   43   44 ar 
    48   43   48 ar 
    49   44   45 ar 
    50   45   46 ar 
    51   46   47 ar 
    52   47   48 ar 
    53   49   50 2  
    54   49   51 am 
    55   51   52 1  
    56   51   53 1  
    57    5   54 1  
    58    5   55 1  
    59    5   56 1  
    60    6   57 1  
    61    6   58 1  
    62    6   59 1  
    63    7   60 1  
    64    7   61 1  
    65    7   62 1  
    66    8   63 1  
    67    9   64 1  
    68   10   65 1  
    69   11   66 1  
    70   11   67 1  
    71   12   68 1  
    72   12   69 1  
    73   13   70 1  
    74   13   71 1  
    75   14   72 1  
    76   14   73 1  
    77   15   74 1  
    78   15   75 1  
    79   21   76 1  
    80   22   77 1  
    81   23   78 1  
    82   23   79 1  
    83   24   80 1  
    84   24   81 1  
    85   25   82 1  
    86   26   83 1  
    87   26   84 1  
    88   27   85 1  
    89   28   86 1  
    90   29   87 1  
    91   29   88 1  
    92   30   89 1  
    93   30   90 1  
    94   31   91 1  
    95   31   92 1  
    96   32   93 1  
    97   32   94 1  
    98   32   95 1  
    99   33   96 1  
   100   34   97 1  
   101   36   98 1  
   102   37   99 1  
   103   37  100 1  
   104   41  101 1  
   105   42  102 1  
   106   44  103 1  
   107   45  104 1  
   108   46  105 1  
   109   47  106 1  
   110   48  107 1  
   111   52  108 1  
   112   52  109 1  
   113   52  110 1  
   114   53  111 1  
   115   53  112 1  
   116   53  113 1  
@<TRIPOS>SUBSTRUCTURE
     1 5NH         1

