### 
### Created by X-TOOL on Mon Sep 10 21:12:55 2018
### 

@<TRIPOS>MOLECULE
2f9v_ligand
  101   104     1     0     0
SMALL
GAST_HUCK


@<TRIPOS>ATOM
      1 C1        191.1850  -10.7460   48.6260 C.2       1 BN6         0.3218
      2 O2        191.8470  -11.6030   49.2300 O.2       1 BN6        -0.3774
      3 O3        189.7790  -10.7020   48.5180 O.3       1 BN6        -0.2636
      4 C4        188.8650  -11.4700   49.3690 C.3       1 BN6         0.0796
      5 C5        188.1080  -10.7420   50.4920 C.3       1 BN6        -0.0189
      6 C6        187.6970   -9.3360   50.1170 C.3       1 BN6        -0.0603
      7 C7        188.8670  -10.7660   51.8050 C.3       1 BN6        -0.0603
      8 N8        191.7560   -9.7500   47.9440 N.am      1 BN6        -0.2409
      9 C9        193.2010   -9.5480   47.9140 C.3       1 BN6         0.1373
     10 C10       193.5820   -8.6330   46.7290 C.3       1 BN6        -0.0006
     11 C11       195.0740   -8.2760   46.7530 C.3       1 BN6        -0.0460
     12 C12       193.2910   -9.3330   45.3950 C.3       1 BN6        -0.0460
     13 C13       195.5050   -7.4270   45.5500 C.3       1 BN6        -0.0526
     14 C14       193.6930   -8.5140   44.1670 C.3       1 BN6        -0.0526
     15 C15       195.1690   -8.1340   44.2290 C.3       1 BN6        -0.0530
     16 C16       193.5440   -8.8590   49.2310 C.2       1 BN6         0.2228
     17 O17       193.0750   -7.7410   49.4750 O.2       1 BN6        -0.3926
     18 N18       194.3110   -9.5390   50.0860 N.am      1 BN6        -0.1780
     19 C20       195.6560   -7.8540   50.9680 C.2       1 BN6         0.2820
     20 O21       196.5970   -8.0290   50.1850 O.2       1 BN6        -0.3990
     21 C22       194.6860   -9.4710   52.5600 C.3       1 BN6         0.0621
     22 C23       194.0250  -10.8450   52.4970 C.3       1 BN6        -0.0186
     23 C24       192.6290  -10.9680   53.0930 C.3       1 BN6        -0.0480
     24 C25       193.8340  -11.6080   53.8140 C.3       1 BN6        -0.0480
     25 N26       195.4590   -6.7080   51.6160 N.am      1 BN6        -0.2636
     26 C27       196.0800   -5.4670   51.1630 C.3       1 BN6         0.0856
     27 C28       195.0320   -4.5310   50.5370 C.3       1 BN6        -0.0226
     28 C29       195.0980   -4.7140   49.0250 C.3       1 BN6        -0.0387
     29 C30       194.4740   -3.6740   48.0970 C.3       1 BN6        -0.0499
     30 C31       193.7640   -5.0150   48.3360 C.3       1 BN6        -0.0499
     31 O32       197.5990   -5.7530   53.0680 O.3       1 BN6        -0.3691
     32 C33       196.8430   -4.7410   52.3070 C.3       1 BN6         0.1661
     33 O34       197.6760   -2.8170   51.0880 O.2       1 BN6        -0.3940
     34 C37       200.7800   -3.8450   49.8770 C.2       1 BN6         0.2019
     35 N40       202.0880   -3.6700   49.7050 N.am      1 BN6        -0.2589
     36 C41       202.7290   -3.6380   48.3970 C.3       1 BN6         0.1278
     37 C42       202.4820   -2.3110   47.6110 C.ar      1 BN6        -0.0049
     38 C43       202.5640   -1.0190   48.2290 C.ar      1 BN6        -0.0564
     39 C44       202.1880   -2.3600   46.2420 C.ar      1 BN6        -0.0564
     40 C45       202.3760    0.1720   47.5100 C.ar      1 BN6        -0.0682
     41 C46       201.9960   -1.1620   45.5150 C.ar      1 BN6        -0.0682
     42 C47       202.0860    0.0900   46.1490 C.ar      1 BN6        -0.0685
     43 C48       204.2280   -3.8730   48.6180 C.2       1 BN6         0.0723
     44 O49       204.7710   -3.4810   49.6640 O.co2     1 BN6        -0.5642
     45 O50       204.8900   -4.4520   47.7580 O.co2     1 BN6        -0.5642
     46 N19       194.7740   -8.8290   51.2420 N.am      1 BN6        -0.1547
     47 N35       199.0790   -4.5290   51.4640 N.am      1 BN6        -0.2661
     48 C36       200.3400   -3.8280   51.3220 C.3       1 BN6         0.1202
     49 O38       199.9770   -4.0030   48.9440 O.2       1 BN6        -0.3946
     50 C39       197.9010   -3.9220   51.5600 C.2       1 BN6         0.2092
     51 H1        189.4574  -12.2667   49.8427 H         1 BN6         0.0614
     52 H2        188.1088  -11.9189   48.7082 H         1 BN6         0.0614
     53 H3        187.1780  -11.3064   50.6547 H         1 BN6         0.0321
     54 H4        187.1625   -8.8732   50.9597 H         1 BN6         0.0233
     55 H5        187.0367   -9.3691   49.2379 H         1 BN6         0.0233
     56 H6        188.5927   -8.7428   49.8807 H         1 BN6         0.0233
     57 H7        189.1496  -11.8013   52.0463 H         1 BN6         0.0233
     58 H8        188.2281  -10.3644   52.6053 H         1 BN6         0.0233
     59 H9        189.7738  -10.1498   51.7157 H         1 BN6         0.0233
     60 H10       191.1713   -9.1187   47.4345 H         1 BN6         0.1899
     61 H11       193.7273  -10.5101   47.8282 H         1 BN6         0.0803
     62 H12       192.9884   -7.7092   46.7933 H         1 BN6         0.0348
     63 H13       195.6579   -9.2082   46.7516 H         1 BN6         0.0270
     64 H14       195.2851   -7.7124   47.6737 H         1 BN6         0.0270
     65 H15       192.2114   -9.5359   45.3381 H         1 BN6         0.0270
     66 H16       193.8444  -10.2834   45.3742 H         1 BN6         0.0270
     67 H17       196.5905   -7.2562   45.6006 H         1 BN6         0.0265
     68 H18       194.9798   -6.4611   45.5847 H         1 BN6         0.0265
     69 H19       193.0859   -7.5975   44.1302 H         1 BN6         0.0265
     70 H20       193.5119   -9.1104   43.2606 H         1 BN6         0.0265
     71 H21       195.7782   -9.0461   44.1450 H         1 BN6         0.0265
     72 H22       195.4013   -7.4595   43.3917 H         1 BN6         0.0265
     73 H23       194.5509  -10.4968   49.9278 H         1 BN6         0.2165
     74 H24       195.7023   -9.5865   52.9648 H         1 BN6         0.0546
     75 H25       194.0963   -8.8260   53.2280 H         1 BN6         0.0546
     76 H26       194.2991  -11.3723   51.5713 H         1 BN6         0.0321
     77 H27       191.8773  -11.6064   52.6057 H         1 BN6         0.0269
     78 H28       192.1356  -10.0847   53.5247 H         1 BN6         0.0269
     79 H29       194.2029  -11.1805   54.7580 H         1 BN6         0.0269
     80 H30       193.9446  -12.7021   53.8390 H         1 BN6         0.0269
     81 H31       194.8751   -6.6970   52.4277 H         1 BN6         0.1851
     82 H32       196.8126   -5.7257   50.3843 H         1 BN6         0.0604
     83 H33       195.2572   -3.4867   50.7989 H         1 BN6         0.0292
     84 H34       194.0284   -4.7927   50.9033 H         1 BN6         0.0292
     85 H35       196.0266   -5.2279   48.7358 H         1 BN6         0.0302
     86 H36       194.9340   -3.4615   47.1206 H         1 BN6         0.0268
     87 H37       194.0533   -2.7470   48.5136 H         1 BN6         0.0268
     88 H38       192.8354   -5.0493   48.9247 H         1 BN6         0.0268
     89 H39       193.7161   -5.7639   47.5317 H         1 BN6         0.0268
     90 H40       196.9957   -6.3914   53.4300 H         1 BN6         0.2134
     91 H41       196.1853   -4.1339   52.9464 H         1 BN6         0.0861
     92 H42       202.6611   -3.5544   50.5163 H         1 BN6         0.1901
     93 H43       202.3244   -4.4634   47.7929 H         1 BN6         0.0887
     94 H44       202.7790   -0.9602   49.2898 H         1 BN6         0.0560
     95 H45       202.1076   -3.3171   45.7394 H         1 BN6         0.0560
     96 H46       202.4546    1.1345   48.0025 H         1 BN6         0.0600
     97 H47       201.7765   -1.2096   44.4545 H         1 BN6         0.0600
     98 H48       201.9289    0.9967   45.5760 H         1 BN6         0.0560
     99 H49       199.0968   -5.5285   51.4913 H         1 BN6         0.1881
    100 H50       200.2171   -2.7863   51.6533 H         1 BN6         0.0763
    101 H51       201.1032   -4.3221   51.9412 H         1 BN6         0.0763
@<TRIPOS>BOND
     1    1    2 2  
     2    1    3 1  
     3    8    1 am 
     4    3    4 1  
     5    4    5 1  
     6    5    6 1  
     7    5    7 1  
     8    9    8 1  
     9    9   10 1  
    10   16    9 1  
    11   10   11 1  
    12   10   12 1  
    13   11   13 1  
    14   12   14 1  
    15   13   15 1  
    16   14   15 1  
    17   16   17 2  
    18   18   16 am 
    19   46   18 1  
    20   19   20 2  
    21   25   19 am 
    22   19   46 am 
    23   21   22 1  
    24   46   21 1  
    25   22   23 1  
    26   22   24 1  
    27   24   23 1  
    28   26   25 1  
    29   26   27 1  
    30   32   26 1  
    31   27   28 1  
    32   28   29 1  
    33   28   30 1  
    34   30   29 1  
    35   32   31 1  
    36   50   32 1  
    37   50   33 2  
    38   34   35 am 
    39   48   34 1  
    40   34   49 2  
    41   35   36 1  
    42   36   37 1  
    43   36   43 1  
    44   37   38 ar 
    45   37   39 ar 
    46   38   40 ar 
    47   39   41 ar 
    48   40   42 ar 
    49   41   42 ar 
    50   43   44 ar 
    51   43   45 ar 
    52   47   48 1  
    53   47   50 am 
    54    4   51 1  
    55    4   52 1  
    56    5   53 1  
    57    6   54 1  
    58    6   55 1  
    59    6   56 1  
    60    7   57 1  
    61    7   58 1  
    62    7   59 1  
    63    8   60 1  
    64    9   61 1  
    65   10   62 1  
    66   11   63 1  
    67   11   64 1  
    68   12   65 1  
    69   12   66 1  
    70   13   67 1  
    71   13   68 1  
    72   14   69 1  
    73   14   70 1  
    74   15   71 1  
    75   15   72 1  
    76   18   73 1  
    77   21   74 1  
    78   21   75 1  
    79   22   76 1  
    80   23   77 1  
    81   23   78 1  
    82   24   79 1  
    83   24   80 1  
    84   25   81 1  
    85   26   82 1  
    86   27   83 1  
    87   27   84 1  
    88   28   85 1  
    89   29   86 1  
    90   29   87 1  
    91   30   88 1  
    92   30   89 1  
    93   31   90 1  
    94   32   91 1  
    95   35   92 1  
    96   36   93 1  
    97   38   94 1  
    98   39   95 1  
    99   40   96 1  
   100   41   97 1  
   101   42   98 1  
   102   47   99 1  
   103   48  100 1  
   104   48  101 1  
@<TRIPOS>SUBSTRUCTURE
     1 BN6         1

