### 
### Created by X-TOOL on Sun Sep  9 21:50:23 2018
### 

@<TRIPOS>MOLECULE
2fah_ligand
    9     8     1     0     0
SMALL
GAST_HUCK


@<TRIPOS>ATOM
      1 C1         20.6440   47.5890    2.4790 C.2       1 NON         0.0480
      2 O1A        21.1060   48.0250    1.4000 O.co2     1 NON        -0.5669
      3 O1B        19.4400   47.3110    2.6570 O.co2     1 NON        -0.5669
      4 C2         21.5890   47.3790    3.6350 C.3       1 NON         0.0528
      5 C3         22.6750   46.4360    3.1960 C.2       1 NON         0.0480
      6 O3A        22.3550   45.2520    2.9600 O.co2     1 NON        -0.5669
      7 O3B        23.8420   46.8740    3.0830 O.co2     1 NON        -0.5669
      8 H1         21.0436   46.9465    4.4867 H         1 NON         0.0595
      9 H2         22.0309   48.3413    3.9330 H         1 NON         0.0595
@<TRIPOS>BOND
     1    1    2 ar 
     2    1    3 ar 
     3    1    4 1  
     4    4    5 1  
     5    5    6 ar 
     6    5    7 ar 
     7    4    8 1  
     8    4    9 1  
@<TRIPOS>SUBSTRUCTURE
     1 NON         1

