### 
### Created by X-TOOL on Mon Sep 10 21:12:54 2018
### 

@<TRIPOS>MOLECULE
2fai_ligand
   42    44     1     0     0
SMALL
GAST_HUCK


@<TRIPOS>ATOM
      1 CAT         3.6660    0.2770   -3.0930 C.3       1 459        -0.0595
      2 CAK         3.9640   -0.4210   -4.4090 C.3       1 459        -0.0178
      3 CAJ         5.4600   -0.4160   -4.7500 C.3       1 459         0.0213
      4 CAN         5.5760   -1.4260   -5.8560 C.2       1 459        -0.0765
      5 CAQ         6.7550   -2.4130   -5.8780 C.3       1 459        -0.0399
      6 CAP         4.5540   -1.4350   -6.8140 C.2       1 459        -0.1078
      7 CAO         3.4280   -0.5890   -6.8690 C.3       1 459        -0.0369
      8 CAL         3.2010    0.2170   -5.5720 C.3       1 459         0.0252
      9 CAR         1.7120    0.3400   -5.2700 C.3       1 459         0.0534
     10 OAS         1.3190   -0.6960   -4.3670 O.3       1 459        -0.3942
     11 CAM         3.7370    1.6170   -5.7650 C.3       1 459         0.0598
     12 OAH         5.0690    1.4540   -6.2780 O.3       1 459        -0.3629
     13 CAI         5.9280    0.9750   -5.2420 C.3       1 459         0.0988
     14 CAD         7.3800    1.0900   -5.7800 C.ar      1 459        -0.0231
     15 CAC         7.7380    0.7920   -7.1010 C.ar      1 459        -0.0661
     16 CAB         9.0780    0.9200   -7.5080 C.ar      1 459        -0.0397
     17 CAA        10.0410    1.3690   -6.6040 C.ar      1 459         0.0805
     18 OAG        11.3500    1.5310   -6.9570 O.3       1 459        -0.3376
     19 CAF         9.6670    1.6780   -5.3040 C.ar      1 459        -0.0397
     20 CAE         8.3500    1.5390   -4.9020 C.ar      1 459        -0.0661
     21 H1          4.2312   -0.2089   -2.2840 H         1 459         0.0234
     22 H2          2.5891    0.2112   -2.8786 H         1 459         0.0234
     23 H3          3.9620    1.3341   -3.1633 H         1 459         0.0234
     24 H4          3.6370   -1.4668   -4.3119 H         1 459         0.0332
     25 H5          6.0591   -0.7161   -3.8777 H         1 459         0.0494
     26 H6          6.6680   -3.0685   -6.7571 H         1 459         0.0375
     27 H7          6.7397   -3.0230   -4.9628 H         1 459         0.0375
     28 H8          7.7007   -1.8535   -5.9300 H         1 459         0.0375
     29 H9          4.6390   -2.1789   -7.6048 H         1 459         0.0242
     30 H10         2.5370   -1.2065   -7.0559 H         1 459         0.0346
     31 H11         3.5643    0.1190   -7.6998 H         1 459         0.0346
     32 H12         1.1399    0.2472   -6.2049 H         1 459         0.0565
     33 H13         1.5109    1.3200   -4.8127 H         1 459         0.0565
     34 H14         0.3908   -0.6169   -4.1806 H         1 459         0.2094
     35 H15         3.7582    2.1555   -4.8061 H         1 459         0.0570
     36 H16         3.1143    2.1709   -6.4829 H         1 459         0.0570
     37 H17         5.8473    1.6530   -4.3795 H         1 459         0.0764
     38 H18         6.9843    0.4637   -7.8075 H         1 459         0.0531
     39 H19         9.3625    0.6699   -8.5237 H         1 459         0.0525
     40 H20        11.7041    0.6984   -7.2466 H         1 459         0.2458
     41 H21        10.4110    2.0305   -4.5988 H         1 459         0.0525
     42 H22         8.0743    1.7859   -3.8831 H         1 459         0.0531
@<TRIPOS>BOND
     1    1    2 1  
     2    2    3 1  
     3    2    8 1  
     4    3    4 1  
     5    3   13 1  
     6    4    5 1  
     7    4    6 2  
     8    6    7 1  
     9    7    8 1  
    10    8    9 1  
    11    8   11 1  
    12    9   10 1  
    13   11   12 1  
    14   12   13 1  
    15   13   14 1  
    16   14   15 ar 
    17   14   20 ar 
    18   15   16 ar 
    19   16   17 ar 
    20   17   18 1  
    21   17   19 ar 
    22   19   20 ar 
    23    1   21 1  
    24    1   22 1  
    25    1   23 1  
    26    2   24 1  
    27    3   25 1  
    28    5   26 1  
    29    5   27 1  
    30    5   28 1  
    31    6   29 1  
    32    7   30 1  
    33    7   31 1  
    34    9   32 1  
    35    9   33 1  
    36   10   34 1  
    37   11   35 1  
    38   11   36 1  
    39   13   37 1  
    40   15   38 1  
    41   16   39 1  
    42   18   40 1  
    43   19   41 1  
    44   20   42 1  
@<TRIPOS>SUBSTRUCTURE
     1 459         1

