### 
### Created by X-TOOL on Mon Sep 10 21:12:54 2018
### 

@<TRIPOS>MOLECULE
2fb8_ligand
   62    66     1     0     0
SMALL
GAST_HUCK


@<TRIPOS>ATOM
      1 C3        -40.2150   28.1860   -1.2220 C.2       1 215         0.0947
      2 C5        -40.0400   30.3740   -1.0660 C.2       1 215         0.1340
      3 C6        -40.3950   31.8590   -1.0180 C.ar      1 215         0.0192
      4 C21       -41.7370   32.3100   -0.9810 C.ar      1 215        -0.0545
      5 C23       -41.1560   37.0120    0.2430 C.3       1 215         0.1112
      6 C31       -41.9050   22.3800   -0.0430 C.3       1 215         0.0032
      7 C32       -42.5880   22.9610   -1.2680 C.2       1 215         0.0527
      8 O34       -44.0520   22.6690   -3.0790 O.3       1 215        -0.2684
      9 N33       -43.4000   22.2460   -1.9310 N.2       1 215        -0.1775
     10 C30       -40.9450   23.4730    0.4440 C.3       1 215        -0.0079
     11 C29       -41.1920   24.6410   -0.5050 C.ar      1 215        -0.0318
     12 C9        -40.5810   25.8900   -0.4460 C.ar      1 215        -0.0512
     13 C28       -42.1260   24.3710   -1.4790 C.ar      1 215        -0.0025
     14 C10       -42.4830   25.3530   -2.4220 C.ar      1 215        -0.0594
     15 C11       -41.8510   26.6170   -2.3630 C.ar      1 215        -0.0592
     16 C8        -40.8810   26.8680   -1.3890 C.ar      1 215         0.0014
     17 C2        -38.8780   28.4470   -0.9090 C.2       1 215         0.0465
     18 C7        -37.7210   27.4730   -0.6630 C.ar      1 215        -0.0053
     19 C16       -37.7670   26.1150   -1.0170 C.ar      1 215        -0.0340
     20 C15       -36.7040   25.2790   -0.7270 C.ar      1 215         0.0038
     21 N14       -35.6290   25.7380   -0.0900 N.ar      1 215        -0.3059
     22 C13       -35.5430   27.0090    0.2830 C.ar      1 215         0.0038
     23 C12       -36.5820   27.8980    0.0210 C.ar      1 215        -0.0340
     24 N4        -40.8830   29.3550   -1.3000 N.pl3     1 215        -0.2501
     25 N1        -38.8260   29.7950   -0.8210 N.2       1 215        -0.3091
     26 C20       -42.0980   33.6850   -0.9090 C.ar      1 215        -0.0286
     27 C19       -41.0950   34.6630   -0.8070 C.ar      1 215         0.0956
     28 C18       -39.7560   34.1980   -0.8300 C.ar      1 215        -0.0286
     29 C17       -39.4040   32.8330   -0.9160 C.ar      1 215        -0.0545
     30 O22       -41.3980   36.0270   -0.7640 O.3       1 215        -0.3099
     31 C24       -42.3800   37.9000    0.0650 C.3       1 215        -0.0038
     32 N25       -43.6490   37.3560    0.6590 N.4       1 215         0.2328
     33 C27       -44.5760   36.5610   -0.2100 C.3       1 215        -0.0433
     34 C26       -43.3550   36.6260    1.9160 C.3       1 215        -0.0433
     35 H1        -42.5293   31.5707   -1.0089 H         1 215         0.0622
     36 H2        -40.2234   37.5641    0.0549 H         1 215         0.0670
     37 H3        -41.1214   36.5653    1.2476 H         1 215         0.0670
     38 H4        -41.3484   21.4690   -0.3082 H         1 215         0.0452
     39 H5        -42.6458   22.1437    0.7351 H         1 215         0.0452
     40 H6        -44.6073   21.9694   -3.4024 H         1 215         0.2734
     41 H7        -39.9012   23.1322    0.3791 H         1 215         0.0453
     42 H8        -41.1736   23.7587    1.4813 H         1 215         0.0453
     43 H9        -39.8660   26.1025    0.3406 H         1 215         0.0546
     44 H10       -43.2292   25.1443   -3.1801 H         1 215         0.0599
     45 H11       -42.1191   27.3908   -3.0732 H         1 215         0.0563
     46 H12       -38.6414   25.7192   -1.5209 H         1 215         0.0671
     47 H13       -36.7468   24.2368   -1.0222 H         1 215         0.0802
     48 H14       -34.6548   27.3584    0.7968 H         1 215         0.0802
     49 H15       -36.5053   28.9277    0.3509 H         1 215         0.0671
     50 H16       -41.8872   29.4516   -1.5075 H         1 215         0.2371
     51 H17       -43.1420   33.9760   -0.9328 H         1 215         0.0555
     52 H18       -38.9585   34.9304   -0.7788 H         1 215         0.0555
     53 H19       -38.3598   32.5423   -0.9026 H         1 215         0.0622
     54 H20       -42.5425   38.0456   -1.0131 H         1 215         0.0841
     55 H21       -42.1698   38.8704    0.5385 H         1 215         0.0841
     56 H22       -44.1805   38.1715    0.9207 H         1 215         0.2029
     57 H23       -45.4483   36.2424    0.3796 H         1 215         0.0777
     58 H24       -44.0493   35.6748   -0.5936 H         1 215         0.0777
     59 H25       -44.9109   37.1823   -1.0537 H         1 215         0.0777
     60 H26       -42.6743   37.2260    2.5378 H         1 215         0.0777
     61 H27       -42.8808   35.6624    1.6781 H         1 215         0.0777
     62 H28       -44.2918   36.4482    2.4645 H         1 215         0.0777
@<TRIPOS>BOND
     1    1   16 1  
     2   17    1 2  
     3   24    1 1  
     4    3    2 1  
     5    2   24 1  
     6    2   25 2  
     7    4    3 ar 
     8    3   29 ar 
     9   26    4 ar 
    10   30    5 1  
    11    5   31 1  
    12    7    6 1  
    13   10    6 1  
    14    7    9 2  
    15   13    7 1  
    16    9    8 1  
    17   11   10 1  
    18   12   11 ar 
    19   11   13 ar 
    20   16   12 ar 
    21   14   13 ar 
    22   15   14 ar 
    23   16   15 ar 
    24   17   18 1  
    25   25   17 1  
    26   18   19 ar 
    27   18   23 ar 
    28   19   20 ar 
    29   20   21 ar 
    30   22   21 ar 
    31   23   22 ar 
    32   27   26 ar 
    33   27   28 ar 
    34   27   30 1  
    35   28   29 ar 
    36   31   32 1  
    37   32   33 1  
    38   32   34 1  
    39    4   35 1  
    40    5   36 1  
    41    5   37 1  
    42    6   38 1  
    43    6   39 1  
    44    8   40 1  
    45   10   41 1  
    46   10   42 1  
    47   12   43 1  
    48   14   44 1  
    49   15   45 1  
    50   19   46 1  
    51   20   47 1  
    52   22   48 1  
    53   23   49 1  
    54   24   50 1  
    55   26   51 1  
    56   28   52 1  
    57   29   53 1  
    58   31   54 1  
    59   31   55 1  
    60   32   56 1  
    61   33   57 1  
    62   33   58 1  
    63   33   59 1  
    64   34   60 1  
    65   34   61 1  
    66   34   62 1  
@<TRIPOS>SUBSTRUCTURE
     1 215         1

