### 
### Created by X-TOOL on Mon Sep 10 21:12:54 2018
### 

@<TRIPOS>MOLECULE
2fda_ligand
   54    54     1     0     0
SMALL
GAST_HUCK


@<TRIPOS>ATOM
      1 CX         11.3030   51.2840   25.5070 C.3       1 682         0.1476
      2 CY         11.5590   51.4010   23.9880 C.3       1 682         0.0846
      3 CZ         11.6850   52.5300   26.3190 C.2       1 682         0.1228
      4 OX         13.0080   53.5790   22.8310 O.2       1 682        -0.3945
      5 N4         13.0130   51.5390   23.8060 N.am      1 682        -0.2767
      6 O5          9.9130   51.0020   25.6330 O.3       1 682        -0.3688
      7 C6         11.2060   50.1440   23.1490 C.3       1 682        -0.0216
      8 C7         11.4300   50.2940   21.6390 C.3       1 682        -0.0174
      9 C8         11.1000   48.9970   20.9160 C.3       1 682         0.0626
     10 N9         11.2880   49.2230   19.4740 N.pl3     1 682        -0.2723
     11 C10        11.0960   48.3170   18.5030 C.cat     1 682         0.2882
     12 N11        10.7100   47.0670   18.8040 N.pl3     1 682        -0.2849
     13 N12        11.2880   48.6770   17.2270 N.pl3     1 682        -0.2849
     14 N13        12.9140   52.7780   26.5970 N.2       1 682        -0.3222
     15 C14        13.0170   53.9520   27.3360 C.2       1 682        -0.0304
     16 C15        11.7820   54.5390   27.5760 C.2       1 682         0.0024
     17 S16        10.5020   53.6440   26.8940 S.3       1 682        -0.0036
     18 N17        15.5300   53.1370   21.8290 N.am      1 682        -0.2518
     19 C18        15.1510   52.5430   23.1250 C.3       1 682         0.1334
     20 C19        13.6240   52.6000   23.2470 C.2       1 682         0.2022
     21 C20        15.8330   53.2930   24.3010 C.3       1 682        -0.0065
     22 C21        17.3180   52.9100   24.3910 C.3       1 682        -0.0585
     23 C22        15.7410   54.8320   24.1610 C.3       1 682        -0.0585
     24 C23        15.1390   52.7170   20.6050 C.2       1 682         0.2571
     25 N24        15.7000   53.5290   19.4360 N.am      1 682        -0.2869
     26 O25        14.3890   51.7560   20.4190 O.2       1 682        -0.4009
     27 H1         11.8865   50.4381   25.8995 H         1 682         0.0877
     28 H2         11.0169   52.2746   23.5969 H         1 682         0.0614
     29 H3         13.5913   50.7868   24.1219 H         1 682         0.1858
     30 H4          9.7004   50.2289   25.1234 H         1 682         0.2144
     31 H5         10.1445   49.9086   23.3156 H         1 682         0.0292
     32 H6         11.8271   49.3092   23.5056 H         1 682         0.0292
     33 H7         12.4829   50.5529   21.4539 H         1 682         0.0300
     34 H8         10.7823   51.0962   21.2556 H         1 682         0.0300
     35 H9         10.0567   48.7121   21.1168 H         1 682         0.0689
     36 H10        11.7714   48.1963   21.2595 H         1 682         0.0689
     37 H11        11.5950   50.1623   19.1836 H         1 682         0.2642
     38 H12        10.5649   46.3778   18.0525 H         1 682         0.2615
     39 H13        10.5589   46.7971   19.7865 H         1 682         0.2615
     40 H14        11.5842   49.6375   17.0019 H         1 682         0.2615
     41 H15        11.1394   47.9933   16.4711 H         1 682         0.2615
     42 H16        13.9615   54.3648   27.6873 H         1 682         0.0533
     43 H17        11.6469   55.4638   28.1350 H         1 682         0.0664
     44 H18        16.1376   53.9307   21.8589 H         1 682         0.1877
     45 H19        15.4743   51.4918   23.1471 H         1 682         0.0799
     46 H20        15.3297   52.9961   25.2329 H         1 682         0.0342
     47 H21        17.7856   53.4492   25.2280 H         1 682         0.0234
     48 H22        17.8239   53.1802   23.4524 H         1 682         0.0234
     49 H23        17.4078   51.8263   24.5572 H         1 682         0.0234
     50 H24        14.6847   55.1316   24.0946 H         1 682         0.0234
     51 H25        16.2701   55.1497   23.2505 H         1 682         0.0234
     52 H26        16.2027   55.3083   25.0385 H         1 682         0.0234
     53 H27        15.4599   53.2845   18.4966 H         1 682         0.1808
     54 H28        16.3068   54.3043   19.6113 H         1 682         0.1808
@<TRIPOS>BOND
     1    2    1 1  
     2    1    3 1  
     3    1    6 1  
     4    5    2 1  
     5    2    7 1  
     6    3   14 2  
     7    3   17 1  
     8   20    4 2  
     9   20    5 am 
    10    7    8 1  
    11    8    9 1  
    12    9   10 1  
    13   10   11 ar 
    14   11   12 ar 
    15   11   13 ar 
    16   14   15 1  
    17   16   15 2  
    18   17   16 1  
    19   19   18 1  
    20   18   24 am 
    21   19   20 1  
    22   19   21 1  
    23   21   22 1  
    24   21   23 1  
    25   24   25 am 
    26   24   26 2  
    27    1   27 1  
    28    2   28 1  
    29    5   29 1  
    30    6   30 1  
    31    7   31 1  
    32    7   32 1  
    33    8   33 1  
    34    8   34 1  
    35    9   35 1  
    36    9   36 1  
    37   10   37 1  
    38   12   38 1  
    39   12   39 1  
    40   13   40 1  
    41   13   41 1  
    42   15   42 1  
    43   16   43 1  
    44   18   44 1  
    45   19   45 1  
    46   21   46 1  
    47   22   47 1  
    48   22   48 1  
    49   22   49 1  
    50   23   50 1  
    51   23   51 1  
    52   23   52 1  
    53   25   53 1  
    54   25   54 1  
@<TRIPOS>SUBSTRUCTURE
     1 682         1

