### 
### Created by X-TOOL on Mon Sep 10 21:12:54 2018
### 

@<TRIPOS>MOLECULE
2fdd_ligand
   89    94     1     0     0
SMALL
GAST_HUCK


@<TRIPOS>ATOM
      1 C1         19.1120   16.4550   -2.6680 C.3       1 385         0.0449
      2 C2         19.1160   17.8320   -3.3210 C.3       1 385         0.1648
      3 C3         17.8580   15.7450   -3.2830 C.3       1 385         0.1189
      4 C4         19.1730   16.7540   -1.1380 C.3       1 385        -0.0191
      5 O5         18.1130   17.8380   -4.3430 O.3       1 385        -0.3480
      6 O6         18.8290   18.8250   -2.3170 O.3       1 385        -0.3509
      7 C7         17.7050   16.4760   -4.6130 C.3       1 385         0.0815
      8 O8         16.6510   15.8910   -2.5020 O.3       1 385        -0.2578
      9 C9         18.5420   18.1800   -1.0650 C.3       1 385         0.0512
     10 C10        16.1360   14.9530   -1.6710 C.2       1 385         0.3203
     11 N11        15.2730   15.3280   -0.7260 N.am      1 385        -0.2552
     12 O12        16.4630   13.7880   -1.7890 O.2       1 385        -0.3775
     13 C13        14.5630   14.5580    0.3010 C.3       1 385         0.0793
     14 C14        14.9040   15.1850    1.6950 C.3       1 385         0.0013
     15 C15        13.0500   14.4330   -0.0530 C.3       1 385         0.0965
     16 C16        16.3190   15.4780    2.0190 C.ar      1 385        -0.0515
     17 C17        12.2780   13.3500    0.7240 C.3       1 385         0.0578
     18 O18        12.4420   15.6830    0.1640 O.3       1 385        -0.3878
     19 C19        16.7650   16.8210    2.1710 C.ar      1 385        -0.0687
     20 C20        17.2540   14.4010    2.1620 C.ar      1 385        -0.0687
     21 N21        12.7790   12.0370    0.3920 N.am      1 385        -0.2326
     22 C22        18.1430   17.0970    2.4590 C.ar      1 385        -0.0394
     23 C23        18.6080   14.6730    2.4450 C.ar      1 385        -0.0394
     24 S24        13.6070   11.1740    1.6290 S.o2      1 385         0.0633
     25 C25        11.9630   11.2370   -0.5190 C.3       1 385         0.0319
     26 C26        19.0540   16.0180    2.5900 C.ar      1 385         0.0864
     27 C27        12.4000   10.4830    2.6670 C.ar      1 385         0.0885
     28 O28        14.4820   12.0190    2.3990 O.2       1 385        -0.1517
     29 O29        14.3940   10.1000    1.0750 O.2       1 385        -0.1517
     30 C30        12.1150   11.5210   -2.0320 C.3       1 385        -0.0296
     31 O31        20.3470   16.2800    2.8360 O.3       1 385        -0.3123
     32 C32        11.8290    9.2120    2.3430 C.ar      1 385        -0.0149
     33 C33        11.9540   11.1860    3.8300 C.ar      1 385        -0.0554
     34 C34        11.0020   10.8420   -2.8490 C.3       1 385        -0.0612
     35 C35        13.5260   11.1920   -2.5770 C.3       1 385        -0.0612
     36 C36        21.2310   16.9730    2.0080 C.3       1 385         0.1000
     37 C37        10.8300    8.6510    3.1650 C.ar      1 385         0.1250
     38 C38        10.9490   10.6200    4.6560 C.ar      1 385        -0.0395
     39 C39        22.6790   16.6290    2.3140 C.2       1 385         0.0155
     40 C40        10.3830    9.3510    4.3200 C.ar      1 385         0.1233
     41 O41        10.1540    7.4850    3.0580 O.3       1 385        -0.2909
     42 N42        23.5190   17.4660    2.9650 N.2       1 385        -0.3155
     43 C43        23.2240   15.4300    1.9360 C.2       1 385        -0.0026
     44 O44         9.4260    8.6180    4.9320 O.3       1 385        -0.2910
     45 C45         9.2510    7.4200    4.1580 C.3       1 385         0.1868
     46 C46        24.7090   16.9850    3.1170 C.2       1 385         0.0854
     47 S47        24.8660   15.3960    2.4370 S.3       1 385        -0.0204
     48 C48        25.8380   17.7150    3.8070 C.3       1 385         0.0060
     49 H1         20.0057   15.8748   -2.9413 H         1 385         0.0380
     50 H2         20.1007   18.0352   -3.7672 H         1 385         0.0913
     51 H3         18.0579   14.6739   -3.4342 H         1 385         0.0675
     52 H4         20.2101   16.7559   -0.7714 H         1 385         0.0293
     53 H5         18.5824   16.0250   -0.5637 H         1 385         0.0293
     54 H6         16.6590   16.4462   -4.9521 H         1 385         0.0590
     55 H7         18.3519   16.0237   -5.3791 H         1 385         0.0590
     56 H8         18.9866   18.7489   -0.2352 H         1 385         0.0561
     57 H9         17.4544   18.1059   -0.9177 H         1 385         0.0561
     58 H10        15.0747   16.3081   -0.7157 H         1 385         0.1873
     59 H11        14.9675   13.5351    0.3021 H         1 385         0.0602
     60 H12        14.5345   14.4884    2.4619 H         1 385         0.0428
     61 H13        14.3530   16.1344    1.7659 H         1 385         0.0428
     62 H14        12.9782   14.1846   -1.1222 H         1 385         0.0634
     63 H15        11.2112   13.4074    0.4622 H         1 385         0.0504
     64 H16        12.4004   13.5220    1.8035 H         1 385         0.0504
     65 H17        12.4576   15.8846    1.0922 H         1 385         0.2100
     66 H18        16.0606   17.6386    2.0687 H         1 385         0.0530
     67 H19        16.9194   13.3758    2.0524 H         1 385         0.0530
     68 H20        18.4843   18.1193    2.5752 H         1 385         0.0525
     69 H21        19.3121   13.8558    2.5526 H         1 385         0.0525
     70 H22        10.9086   11.4050   -0.2543 H         1 385         0.0480
     71 H23        12.2190   10.1803   -0.3525 H         1 385         0.0480
     72 H24        11.9810   12.6054   -2.1593 H         1 385         0.0311
     73 H25        12.1657    8.6779    1.4619 H         1 385         0.0528
     74 H26        12.3831   12.1496    4.0799 H         1 385         0.0514
     75 H27        11.1426   11.0656   -3.9168 H         1 385         0.0233
     76 H28        10.0229   11.2211   -2.5208 H         1 385         0.0233
     77 H29        11.0448    9.7539   -2.6936 H         1 385         0.0233
     78 H30        14.2840   11.6987   -1.9617 H         1 385         0.0233
     79 H31        13.6071   11.5386   -3.6178 H         1 385         0.0233
     80 H32        13.6896   10.1049   -2.5387 H         1 385         0.0233
     81 H33        21.0832   18.0531    2.1544 H         1 385         0.0746
     82 H34        21.0168   16.7121    0.9611 H         1 385         0.0746
     83 H35        10.6110   11.1486    5.5400 H         1 385         0.0509
     84 H36        22.7035   14.6330    1.4070 H         1 385         0.0504
     85 H37         9.4746    6.5378    4.7758 H         1 385         0.0973
     86 H38         8.2159    7.3579    3.7910 H         1 385         0.0973
     87 H39        25.4842   18.6993    4.1476 H         1 385         0.0486
     88 H40        26.6725   17.8488    3.1030 H         1 385         0.0486
     89 H41        26.1791   17.1283    4.6727 H         1 385         0.0486
@<TRIPOS>BOND
     1    1    2 1  
     2    1    3 1  
     3    1    4 1  
     4    2    5 1  
     5    2    6 1  
     6    3    7 1  
     7    3    8 1  
     8    4    9 1  
     9    5    7 1  
    10    6    9 1  
    11    8   10 1  
    12   10   11 am 
    13   10   12 2  
    14   11   13 1  
    15   13   14 1  
    16   13   15 1  
    17   14   16 1  
    18   15   17 1  
    19   15   18 1  
    20   16   19 ar 
    21   16   20 ar 
    22   17   21 1  
    23   19   22 ar 
    24   20   23 ar 
    25   21   24 am 
    26   21   25 1  
    27   22   26 ar 
    28   23   26 ar 
    29   24   27 1  
    30   24   28 2  
    31   24   29 2  
    32   25   30 1  
    33   26   31 1  
    34   27   32 ar 
    35   27   33 ar 
    36   30   34 1  
    37   30   35 1  
    38   31   36 1  
    39   32   37 ar 
    40   33   38 ar 
    41   36   39 1  
    42   37   40 ar 
    43   37   41 1  
    44   38   40 ar 
    45   39   42 1  
    46   39   43 2  
    47   40   44 1  
    48   41   45 1  
    49   42   46 2  
    50   43   47 1  
    51   44   45 1  
    52   46   47 1  
    53   46   48 1  
    54    1   49 1  
    55    2   50 1  
    56    3   51 1  
    57    4   52 1  
    58    4   53 1  
    59    7   54 1  
    60    7   55 1  
    61    9   56 1  
    62    9   57 1  
    63   11   58 1  
    64   13   59 1  
    65   14   60 1  
    66   14   61 1  
    67   15   62 1  
    68   17   63 1  
    69   17   64 1  
    70   18   65 1  
    71   19   66 1  
    72   20   67 1  
    73   22   68 1  
    74   23   69 1  
    75   25   70 1  
    76   25   71 1  
    77   30   72 1  
    78   32   73 1  
    79   33   74 1  
    80   34   75 1  
    81   34   76 1  
    82   34   77 1  
    83   35   78 1  
    84   35   79 1  
    85   35   80 1  
    86   36   81 1  
    87   36   82 1  
    88   38   83 1  
    89   43   84 1  
    90   45   85 1  
    91   45   86 1  
    92   48   87 1  
    93   48   88 1  
    94   48   89 1  
@<TRIPOS>SUBSTRUCTURE
     1 385         1

