### 
### Created by X-TOOL on Mon Sep 10 21:12:54 2018
### 

@<TRIPOS>MOLECULE
2fde_ligand
   89    94     1     0     0
SMALL
GAST_HUCK


@<TRIPOS>ATOM
      1 C1        -20.7840   40.2900    5.8800 C.3       1 385         0.0449
      2 C2        -20.1510   39.6720    7.1090 C.3       1 385         0.1648
      3 C3        -21.7770   39.1960    5.3520 C.3       1 385         0.1189
      4 C4        -19.5520   40.7060    5.0210 C.3       1 385        -0.0191
      5 O5        -21.0110   38.6200    7.5850 O.3       1 385        -0.3480
      6 O6        -18.8470   39.1580    6.7230 O.3       1 385        -0.3509
      7 C7        -21.9740   38.2550    6.5500 C.3       1 385         0.0815
      8 O8        -21.2950   38.4640    4.2510 O.3       1 385        -0.2578
      9 C9        -18.5140   39.5930    5.3800 C.3       1 385         0.0512
     10 C10       -21.6070   38.6590    2.9340 C.2       1 385         0.3203
     11 N11       -20.8440   38.0530    1.9970 N.am      1 385        -0.2552
     12 O12       -22.5510   39.3590    2.6200 O.2       1 385        -0.3775
     13 C13       -20.8970   38.0380    0.5340 C.3       1 385         0.0793
     14 C14       -19.6030   38.7570   -0.0320 C.3       1 385         0.0013
     15 C15       -21.1750   36.5690    0.0260 C.3       1 385         0.0965
     16 C16       -19.0780   39.9750    0.6290 C.ar      1 385        -0.0515
     17 C17       -21.5830   36.4570   -1.4360 C.3       1 385         0.0578
     18 O18       -20.0300   35.7900    0.2220 O.3       1 385        -0.3878
     19 C19       -17.8790   39.9290    1.4110 C.ar      1 385        -0.0687
     20 C20       -19.7960   41.2140    0.5080 C.ar      1 385        -0.0687
     21 N21       -22.8240   37.1370   -1.6670 N.am      1 385        -0.2326
     22 C22       -17.3960   41.1190    2.0700 C.ar      1 385        -0.0394
     23 C23       -19.3270   42.3890    1.1550 C.ar      1 385        -0.0394
     24 S24       -22.8180   38.6260   -2.6040 S.o2      1 385         0.0633
     25 C25       -23.9850   36.2690   -1.7690 C.3       1 385         0.0319
     26 C26       -18.1300   42.3410    1.9420 C.ar      1 385         0.0864
     27 C27       -22.8720   38.2470   -4.2700 C.ar      1 385         0.0885
     28 O28       -21.6600   39.4290   -2.3310 O.2       1 385        -0.1517
     29 O29       -23.9400   39.4760   -2.2830 O.2       1 385        -0.1517
     30 C30       -24.9530   36.2370   -0.5690 C.3       1 385        -0.0296
     31 O31       -17.6930   43.4480    2.5720 O.3       1 385        -0.3123
     32 C32       -24.1070   37.9510   -4.8760 C.ar      1 385        -0.0149
     33 C33       -21.6760   38.2120   -5.0320 C.ar      1 385        -0.0554
     34 C34       -26.4150   36.2240   -1.0620 C.3       1 385        -0.0612
     35 C35       -24.6880   37.3260    0.5160 C.3       1 385        -0.0612
     36 C36       -17.7520   43.7330    3.9560 C.3       1 385         0.1000
     37 C37       -24.1620   37.6280   -6.2420 C.ar      1 385         0.1250
     38 C38       -21.7240   37.8880   -6.4130 C.ar      1 385        -0.0395
     39 C39       -17.9980   45.2300    4.2330 C.2       1 385         0.0155
     40 C40       -22.9680   37.5820   -7.0180 C.ar      1 385         0.1233
     41 O41       -25.2150   37.3120   -7.0200 O.3       1 385        -0.2909
     42 N42       -17.7320   45.8070    5.4370 N.2       1 385        -0.3155
     43 C43       -18.5050   46.0920    3.2790 C.2       1 385        -0.0026
     44 O44       -23.2720   37.2520   -8.2990 O.3       1 385        -0.2910
     45 C45       -24.7000   37.0640   -8.3470 C.3       1 385         0.1868
     46 C46       -18.0010   47.0830    5.4780 C.2       1 385         0.0854
     47 S47       -18.6310   47.6820    3.9590 S.3       1 385        -0.0204
     48 C48       -17.7910   47.9560    6.7010 C.3       1 385         0.0060
     49 H1        -21.3621   41.1928    6.1264 H         1 385         0.0380
     50 H2        -20.0302   40.4307    7.8963 H         1 385         0.0913
     51 H3        -22.7300   39.6672    5.0697 H         1 385         0.0675
     52 H4        -19.1840   41.7026    5.3064 H         1 385         0.0293
     53 H5        -19.7920   40.6973    3.9475 H         1 385         0.0293
     54 H6        -21.8060   37.2141    6.2366 H         1 385         0.0590
     55 H7        -22.9969   38.3598    6.9406 H         1 385         0.0590
     56 H8        -17.4921   39.9991    5.3516 H         1 385         0.0561
     57 H9        -18.5944   38.7528    4.6746 H         1 385         0.0561
     58 H10       -20.0969   37.5081    2.3778 H         1 385         0.1873
     59 H11       -21.7581   38.6451    0.2179 H         1 385         0.0602
     60 H12       -19.8239   39.0324   -1.0738 H         1 385         0.0428
     61 H13       -18.7933   38.0126   -0.0132 H         1 385         0.0428
     62 H14       -21.9940   36.1577    0.6343 H         1 385         0.0634
     63 H15       -21.6983   35.3951   -1.6989 H         1 385         0.0504
     64 H16       -20.8013   36.9077   -2.0651 H         1 385         0.0504
     65 H17       -20.2228   34.8855    0.0050 H         1 385         0.2100
     66 H18       -17.3326   38.9978    1.5083 H         1 385         0.0530
     67 H19       -20.7042   41.2526   -0.0826 H         1 385         0.0530
     68 H20       -16.4851   41.0874    2.6568 H         1 385         0.0525
     69 H21       -19.8734   43.3197    1.0536 H         1 385         0.0525
     70 H22       -23.6182   35.2437   -1.9247 H         1 385         0.0480
     71 H23       -24.5610   36.5900   -2.6494 H         1 385         0.0480
     72 H24       -24.7845   35.2728   -0.0671 H         1 385         0.0311
     73 H25       -25.0173   37.9723   -4.2878 H         1 385         0.0528
     74 H26       -20.7256   38.4327   -4.5596 H         1 385         0.0514
     75 H27       -27.0936   36.2012   -0.1965 H         1 385         0.0233
     76 H28       -26.5843   35.3328   -1.6842 H         1 385         0.0233
     77 H29       -26.6095   37.1287   -1.6567 H         1 385         0.0233
     78 H30       -23.6334   37.2856    0.8261 H         1 385         0.0233
     79 H31       -25.3336   37.1405    1.3871 H         1 385         0.0233
     80 H32       -24.9101   38.3198    0.1000 H         1 385         0.0233
     81 H33       -16.7985   43.4392    4.4191 H         1 385         0.0746
     82 H34       -18.5714   43.1509    4.4029 H         1 385         0.0746
     83 H35       -20.8138   37.8747   -7.0016 H         1 385         0.0509
     84 H36       -18.7813   45.8165    2.2623 H         1 385         0.0504
     85 H37       -25.1480   37.7699   -9.0618 H         1 385         0.0973
     86 H38       -24.9331   36.0338   -8.6540 H         1 385         0.0973
     87 H39       -17.3875   47.3455    7.5223 H         1 385         0.0486
     88 H40       -18.7520   48.3944    7.0080 H         1 385         0.0486
     89 H41       -17.0812   48.7609    6.4595 H         1 385         0.0486
@<TRIPOS>BOND
     1    1    2 1  
     2    1    3 1  
     3    1    4 1  
     4    2    5 1  
     5    2    6 1  
     6    3    7 1  
     7    3    8 1  
     8    4    9 1  
     9    5    7 1  
    10    6    9 1  
    11    8   10 1  
    12   10   11 am 
    13   10   12 2  
    14   11   13 1  
    15   13   14 1  
    16   13   15 1  
    17   14   16 1  
    18   15   17 1  
    19   15   18 1  
    20   16   19 ar 
    21   16   20 ar 
    22   17   21 1  
    23   19   22 ar 
    24   20   23 ar 
    25   21   24 am 
    26   21   25 1  
    27   22   26 ar 
    28   23   26 ar 
    29   24   27 1  
    30   24   28 2  
    31   24   29 2  
    32   25   30 1  
    33   26   31 1  
    34   27   32 ar 
    35   27   33 ar 
    36   30   34 1  
    37   30   35 1  
    38   31   36 1  
    39   32   37 ar 
    40   33   38 ar 
    41   36   39 1  
    42   37   40 ar 
    43   37   41 1  
    44   38   40 ar 
    45   39   42 1  
    46   39   43 2  
    47   40   44 1  
    48   41   45 1  
    49   42   46 2  
    50   43   47 1  
    51   44   45 1  
    52   46   47 1  
    53   46   48 1  
    54    1   49 1  
    55    2   50 1  
    56    3   51 1  
    57    4   52 1  
    58    4   53 1  
    59    7   54 1  
    60    7   55 1  
    61    9   56 1  
    62    9   57 1  
    63   11   58 1  
    64   13   59 1  
    65   14   60 1  
    66   14   61 1  
    67   15   62 1  
    68   17   63 1  
    69   17   64 1  
    70   18   65 1  
    71   19   66 1  
    72   20   67 1  
    73   22   68 1  
    74   23   69 1  
    75   25   70 1  
    76   25   71 1  
    77   30   72 1  
    78   32   73 1  
    79   33   74 1  
    80   34   75 1  
    81   34   76 1  
    82   34   77 1  
    83   35   78 1  
    84   35   79 1  
    85   35   80 1  
    86   36   81 1  
    87   36   82 1  
    88   38   83 1  
    89   43   84 1  
    90   45   85 1  
    91   45   86 1  
    92   48   87 1  
    93   48   88 1  
    94   48   89 1  
@<TRIPOS>SUBSTRUCTURE
     1 385         1

