### 
### Created by X-TOOL on Mon Sep 10 21:12:54 2018
### 

@<TRIPOS>MOLECULE
2fdp_ligand
   83    85     1     0     0
SMALL
GAST_HUCK


@<TRIPOS>ATOM
      1 C31         6.4360   -3.4430   47.6330 C.ar      1 FRP        -0.0603
      2 C30         5.2030   -3.2140   48.2440 C.ar      1 FRP        -0.0686
      3 C28         6.2860   -3.1240   50.3960 C.ar      1 FRP        -0.0686
      4 C27        14.7320   -6.6620   50.3870 C.ar      1 FRP        -0.0426
      5 C26        14.9530   -6.4920   49.0190 C.ar      1 FRP         0.0625
      6 C24        15.8690   -8.7370   48.9100 C.ar      1 FRP        -0.0417
      7 C23        15.6420   -8.8990   50.2730 C.ar      1 FRP         0.1158
      8 C22        15.0760   -7.8620   51.0100 C.ar      1 FRP        -0.0417
      9 C16        11.3700   -3.1390   47.4280 C.3       1 FRP         0.0033
     10 C17         8.9240   -3.7690   47.6910 C.3       1 FRP         0.0092
     11 C20        14.1040   -4.2230   48.8310 C.2       1 FRP         0.2056
     12 C15        10.1190   -3.0290   48.3100 C.3       1 FRP         0.0935
     13 C12         9.9800   -0.8610   49.4780 C.2       1 FRP         0.2066
     14 C13         4.8430    3.0000   50.9840 C.3       1 FRP        -0.0634
     15 C14         4.9770    0.6060   45.3410 C.3       1 FRP        -0.0634
     16 C11         4.1570    1.9000   50.2020 C.3       1 FRP        -0.0354
     17 C10         4.0590    0.7510   46.5360 C.3       1 FRP        -0.0354
     18 C9          4.2710    2.0730   47.2780 C.3       1 FRP         0.0331
     19 C8          5.1400    1.0810   49.3640 C.3       1 FRP         0.0331
     20 C7          6.6200    2.3680   47.8440 C.2       1 FRP         0.2085
     21 C4          8.3560    0.8520   48.7260 C.ar      1 FRP        -0.0220
     22 C5          9.4810    0.5540   49.4830 C.ar      1 FRP         0.0554
     23 C6         10.0910    1.5610   50.2340 C.ar      1 FRP        -0.0378
     24 C3          7.8260    2.1370   48.7070 C.ar      1 FRP         0.0556
     25 C2          8.4390    3.1520   49.4410 C.ar      1 FRP        -0.0378
     26 C1          9.5700    2.8580   50.2080 C.ar      1 FRP        -0.0507
     27 F1         15.9740  -10.0530   50.8790 F         1 FRP        -0.1963
     28 C25        15.5220   -7.5390   48.2920 C.ar      1 FRP        -0.0426
     29 N3         14.6460   -5.3450   48.3450 N.am      1 FRP        -0.2359
     30 O3         13.7960   -4.0460   49.9960 O.2       1 FRP        -0.3851
     31 C19        13.8940   -3.1290   47.8200 C.3       1 FRP         0.0567
     32 C21        15.0500   -2.1360   47.9100 C.3       1 FRP        -0.0447
     33 C18        12.5660   -2.4110   48.0430 C.3       1 FRP         0.0124
     34 N4         11.1000   -2.6300   46.0980 N.4       1 FRP         0.2226
     35 C32         7.6010   -3.5130   48.3950 C.ar      1 FRP        -0.0406
     36 C33         7.5180   -3.3590   49.7830 C.ar      1 FRP        -0.0603
     37 C29         5.1250   -3.0530   49.6270 C.ar      1 FRP        -0.0687
     38 N2          9.7120   -1.6260   48.4130 N.am      1 FRP        -0.2756
     39 O2         10.6000   -1.2740   50.4470 O.2       1 FRP        -0.3846
     40 O1          6.7850    3.0060   46.8190 O.2       1 FRP        -0.3844
     41 N1          5.4190    1.8610   48.1560 N.am      1 FRP        -0.2723
     42 H1          6.4885   -3.5675   46.5574 H         1 FRP         0.0557
     43 H2          4.3030   -3.1611   47.6421 H         1 FRP         0.0599
     44 H3          6.2318   -2.9966   51.4711 H         1 FRP         0.0599
     45 H4         14.2917   -5.8590   50.9670 H         1 FRP         0.0494
     46 H5         16.3137   -9.5393   48.3324 H         1 FRP         0.0566
     47 H6         14.9019   -7.9876   52.0725 H         1 FRP         0.0566
     48 H7         11.6300   -4.2043   47.3417 H         1 FRP         0.0876
     49 H8          9.1306   -4.8488   47.7267 H         1 FRP         0.0450
     50 H9          8.8250   -3.4490   46.6433 H         1 FRP         0.0450
     51 H10        10.3401   -3.4385   49.3067 H         1 FRP         0.0635
     52 H11         4.0947    3.5566   51.5673 H         1 FRP         0.0230
     53 H12         5.3483    3.6849   50.2872 H         1 FRP         0.0230
     54 H13         5.5843    2.5577   51.6657 H         1 FRP         0.0230
     55 H14         4.7845   -0.3570   44.8455 H         1 FRP         0.0230
     56 H15         6.0240    0.6430   45.6763 H         1 FRP         0.0230
     57 H16         4.7895    1.4266   44.6329 H         1 FRP         0.0230
     58 H17         3.4136    2.3545   49.5306 H         1 FRP         0.0282
     59 H18         3.6497    1.2273   50.9091 H         1 FRP         0.0282
     60 H19         4.2509   -0.0792   47.2317 H         1 FRP         0.0282
     61 H20         3.0165    0.7044   46.1883 H         1 FRP         0.0282
     62 H21         3.3790    2.3269   47.8695 H         1 FRP         0.0522
     63 H22         4.4802    2.8831   46.5639 H         1 FRP         0.0522
     64 H23         4.6928    0.1128   49.0946 H         1 FRP         0.0522
     65 H24         6.0690    0.9116   49.9282 H         1 FRP         0.0522
     66 H25         7.8838    0.0710   48.1410 H         1 FRP         0.0723
     67 H26        10.9652    1.3378   50.8349 H         1 FRP         0.0703
     68 H27         8.0418    4.1603   49.4170 H         1 FRP         0.0703
     69 H28        10.0464    3.6411   50.7866 H         1 FRP         0.0640
     70 H29        15.6964   -7.4172   47.2291 H         1 FRP         0.0494
     71 H30        14.8520   -5.3436   47.3664 H         1 FRP         0.2244
     72 H31        13.8844   -3.5754   46.8147 H         1 FRP         0.0542
     73 H32        14.9020   -1.3332   47.1727 H         1 FRP         0.0257
     74 H33        15.9968   -2.6556   47.7012 H         1 FRP         0.0257
     75 H34        15.0841   -1.7036   48.9209 H         1 FRP         0.0257
     76 H35        12.3979   -2.3177   49.1261 H         1 FRP         0.0348
     77 H36        12.6322   -1.4088   47.5945 H         1 FRP         0.0348
     78 H37        10.3104   -3.1182   45.7053 H         1 FRP         0.1998
     79 H38        11.9083   -2.7731   45.5130 H         1 FRP         0.1998
     80 H39        10.8935   -1.6448   46.1508 H         1 FRP         0.1998
     81 H40         8.4163   -3.4226   50.3865 H         1 FRP         0.0557
     82 H41         4.1671   -2.8736   50.1016 H         1 FRP         0.0559
     83 H42         9.2091   -1.2196   47.6501 H         1 FRP         0.1852
@<TRIPOS>BOND
     1    1    2 ar 
     2   35    1 ar 
     3    2   37 ar 
     4    3   36 ar 
     5   37    3 ar 
     6    5    4 ar 
     7    4    8 ar 
     8    5   28 ar 
     9   29    5 1  
    10    6    7 ar 
    11   28    6 ar 
    12    8    7 ar 
    13    7   27 1  
    14    9   12 1  
    15   33    9 1  
    16    9   34 1  
    17   12   10 1  
    18   10   35 1  
    19   11   29 am 
    20   11   30 2  
    21   31   11 1  
    22   12   38 1  
    23   13   22 1  
    24   38   13 am 
    25   13   39 2  
    26   16   14 1  
    27   17   15 1  
    28   19   16 1  
    29   18   17 1  
    30   41   18 1  
    31   41   19 1  
    32   24   20 1  
    33   20   40 2  
    34   20   41 am 
    35   22   21 ar 
    36   21   24 ar 
    37   22   23 ar 
    38   23   26 ar 
    39   24   25 ar 
    40   26   25 ar 
    41   31   32 1  
    42   31   33 1  
    43   35   36 ar 
    44    1   42 1  
    45    2   43 1  
    46    3   44 1  
    47    4   45 1  
    48    6   46 1  
    49    8   47 1  
    50    9   48 1  
    51   10   49 1  
    52   10   50 1  
    53   12   51 1  
    54   14   52 1  
    55   14   53 1  
    56   14   54 1  
    57   15   55 1  
    58   15   56 1  
    59   15   57 1  
    60   16   58 1  
    61   16   59 1  
    62   17   60 1  
    63   17   61 1  
    64   18   62 1  
    65   18   63 1  
    66   19   64 1  
    67   19   65 1  
    68   21   66 1  
    69   23   67 1  
    70   25   68 1  
    71   26   69 1  
    72   28   70 1  
    73   29   71 1  
    74   31   72 1  
    75   32   73 1  
    76   32   74 1  
    77   32   75 1  
    78   33   76 1  
    79   33   77 1  
    80   34   78 1  
    81   34   79 1  
    82   34   80 1  
    83   36   81 1  
    84   37   82 1  
    85   38   83 1  
@<TRIPOS>SUBSTRUCTURE
     1 FRP         1

