### 
### Created by X-TOOL on Mon Sep 10 21:12:54 2018
### 

@<TRIPOS>MOLECULE
2feq_ligand
   63    65     1     0     0
SMALL
GAST_HUCK


@<TRIPOS>ATOM
      1 C1         12.3720   20.6940   22.7570 C.2       1 34P         0.0076
      2 C2         12.0080   21.9290   23.1170 C.2       1 34P         0.0566
      3 N3         12.7020   22.9720   22.3860 N.2       1 34P        -0.3175
      4 C4         13.5180   22.4360   21.4540 C.2       1 34P         0.1140
      5 S5         13.5020   20.6880   21.4600 S.3       1 34P        -0.0043
      6 C6         11.0140   22.2250   24.1080 C.cat     1 34P         0.2317
      7 C7         14.4130   23.1710   20.4910 C.3       1 34P         0.1010
      8 N8         15.8200   22.9400   20.8450 N.am      1 34P        -0.2649
      9 C9         16.3920   21.7600   20.5820 C.2       1 34P         0.2127
     10 O10        15.8020   20.8570   20.0270 O.2       1 34P        -0.3918
     11 C11        17.8280   21.5560   21.1030 C.3       1 34P         0.1524
     12 C12        18.7970   21.5540   19.9590 C.2       1 34P        -0.0526
     13 C13        19.6620   20.5400   20.0890 C.2       1 34P        -0.0712
     14 C14        19.3640   19.6960   21.2880 C.3       1 34P         0.0564
     15 N15        18.1240   20.2710   21.7860 N.am      1 34P        -0.2313
     16 C16        17.2540   19.6980   22.6740 C.2       1 34P         0.2325
     17 O17        16.2840   20.2970   23.1320 O.2       1 34P        -0.3902
     18 C18        17.4920   18.2390   23.1500 C.3       1 34P         0.0688
     19 N19        16.2380   17.4860   23.4440 N.4       1 34P         0.2577
     20 C20        15.3130   17.0190   22.3920 C.3       1 34P         0.0214
     21 C21        18.1350   18.3540   24.5570 C.3       1 34P         0.0108
     22 C22        19.5010   19.0520   24.6390 C.3       1 34P        -0.0338
     23 C23        19.8430   19.3890   26.0990 C.3       1 34P        -0.0499
     24 C24        21.2160   20.1110   26.2210 C.3       1 34P        -0.0528
     25 C25        22.3670   19.3010   25.6020 C.3       1 34P        -0.0530
     26 C26        22.0430   18.8670   24.1620 C.3       1 34P        -0.0528
     27 C27        20.6470   18.1910   24.0460 C.3       1 34P        -0.0499
     28 N28        10.2710   21.2570   24.6040 N.pl3     1 34P        -0.2737
     29 N29        10.8540   23.4810   24.4800 N.pl3     1 34P        -0.2737
     30 C30        14.0430   16.3290   22.8770 C.2       1 34P         0.0813
     31 O31        13.2210   15.9330   22.0810 O.co2     1 34P        -0.5645
     32 O32        13.8710   16.2160   24.0890 O.co2     1 34P        -0.5645
     33 H1         11.9943   19.7903   23.2330 H         1 34P         0.0663
     34 H2         14.1961   24.2483   20.5402 H         1 34P         0.0780
     35 H3         14.2287   22.8061   19.4698 H         1 34P         0.0780
     36 H4         16.3505   23.6657   21.2830 H         1 34P         0.1890
     37 H5         18.0507   22.3845   21.7914 H         1 34P         0.0924
     38 H6         18.7974   22.2729   19.1410 H         1 34P         0.0494
     39 H7         20.4860   20.3517   19.4023 H         1 34P         0.0482
     40 H8         20.1659   19.7741   22.0369 H         1 34P         0.0653
     41 H9         19.2268   18.6416   21.0063 H         1 34P         0.0653
     42 H10        18.1241   17.6968   22.4314 H         1 34P         0.1099
     43 H11        15.6929   18.0803   24.0487 H         1 34P         0.2049
     44 H12        16.5216   16.6615   23.9498 H         1 34P         0.2049
     45 H13        15.8595   16.3085   21.7544 H         1 34P         0.0989
     46 H14        15.0140   17.8929   21.7945 H         1 34P         0.0989
     47 H15        18.2581   17.3344   24.9511 H         1 34P         0.0348
     48 H16        17.4368   18.9128   25.1974 H         1 34P         0.0348
     49 H17        19.4392   19.9882   24.0648 H         1 34P         0.0304
     50 H18        19.8789   18.4559   26.6804 H         1 34P         0.0268
     51 H19        19.0590   20.0446   26.5058 H         1 34P         0.0268
     52 H20        21.4342   20.2754   27.2865 H         1 34P         0.0265
     53 H21        21.1511   21.0809   25.7061 H         1 34P         0.0265
     54 H22        22.5422   18.4041   26.2143 H         1 34P         0.0265
     55 H23        23.2753   19.9214   25.5921 H         1 34P         0.0265
     56 H24        22.8100   18.1531   23.8272 H         1 34P         0.0265
     57 H25        22.0604   19.7550   23.5131 H         1 34P         0.0265
     58 H26        20.4337   18.0094   22.9823 H         1 34P         0.0268
     59 H27        20.6774   17.2314   24.5829 H         1 34P         0.0268
     60 H28         9.5571   21.4688   25.3156 H         1 34P         0.3179
     61 H29        10.4039   20.2883   24.2802 H         1 34P         0.3179
     62 H30        11.4494   24.2178   24.0755 H         1 34P         0.3179
     63 H31        10.1337   23.7246   25.1748 H         1 34P         0.3179
@<TRIPOS>BOND
     1    1    2 2  
     2    1    5 1  
     3    2    3 1  
     4    2    6 1  
     5    3    4 2  
     6    4    5 1  
     7    4    7 1  
     8    6   28 ar 
     9    6   29 ar 
    10    7    8 1  
    11    8    9 am 
    12    9   10 2  
    13    9   11 1  
    14   11   12 1  
    15   11   15 1  
    16   12   13 2  
    17   13   14 1  
    18   14   15 1  
    19   15   16 am 
    20   16   17 2  
    21   16   18 1  
    22   18   19 1  
    23   18   21 1  
    24   19   20 1  
    25   20   30 1  
    26   21   22 1  
    27   22   23 1  
    28   22   27 1  
    29   23   24 1  
    30   24   25 1  
    31   25   26 1  
    32   26   27 1  
    33   30   31 ar 
    34   30   32 ar 
    35    1   33 1  
    36    7   34 1  
    37    7   35 1  
    38    8   36 1  
    39   11   37 1  
    40   12   38 1  
    41   13   39 1  
    42   14   40 1  
    43   14   41 1  
    44   18   42 1  
    45   19   43 1  
    46   19   44 1  
    47   20   45 1  
    48   20   46 1  
    49   21   47 1  
    50   21   48 1  
    51   22   49 1  
    52   23   50 1  
    53   23   51 1  
    54   24   52 1  
    55   24   53 1  
    56   25   54 1  
    57   25   55 1  
    58   26   56 1  
    59   26   57 1  
    60   27   58 1  
    61   27   59 1  
    62   28   60 1  
    63   28   61 1  
    64   29   62 1  
    65   29   63 1  
@<TRIPOS>SUBSTRUCTURE
     1 34P         1

