### 
### Created by X-TOOL on Mon Sep 10 21:12:53 2018
### 

@<TRIPOS>MOLECULE
2fes_ligand
   66    68     1     0     0
SMALL
GAST_HUCK


@<TRIPOS>ATOM
      1 C1         11.9870   22.1830   23.0070 C.2       1 3SP         0.0676
      2 C2         12.3400   20.9380   22.4630 C.2       1 3SP        -0.0878
      3 C3         13.2930   21.0600   21.4330 C.2       1 3SP        -0.0798
      4 C4         13.6540   22.4010   21.2050 C.2       1 3SP         0.0342
      5 S5         12.8240   23.4510   22.2520 S.3       1 3SP        -0.0371
      6 C6         11.0020   22.3810   24.0950 C.cat     1 3SP         0.2371
      7 N7         10.3540   21.3350   24.6170 N.pl3     1 3SP        -0.2732
      8 N8         10.7540   23.6110   24.5520 N.pl3     1 3SP        -0.2732
      9 C9         14.5280   22.8060   20.2700 C.3       1 3SP         0.0760
     10 N10        15.8550   22.6880   20.7500 N.am      1 3SP        -0.2717
     11 C11        16.6420   21.6020   20.4500 C.2       1 3SP         0.2039
     12 O12        16.2130   20.6880   19.7550 O.2       1 3SP        -0.3943
     13 C13        18.0490   21.5090   21.0050 C.3       1 3SP         0.1339
     14 C14        19.0900   21.6240   19.8540 C.3       1 3SP        -0.0104
     15 C15        20.1650   20.5760   20.2440 C.3       1 3SP        -0.0281
     16 C16        19.3350   19.4790   20.9150 C.3       1 3SP         0.0371
     17 N17        18.2390   20.1610   21.6210 N.am      1 3SP        -0.2471
     18 C18        17.5080   19.6480   22.6620 C.2       1 3SP         0.2293
     19 O19        16.6170   20.3080   23.1680 O.2       1 3SP        -0.3905
     20 C20        17.7870   18.2500   23.1910 C.3       1 3SP         0.0685
     21 N21        16.5380   17.4770   23.1680 N.4       1 3SP         0.2577
     22 C22        15.9690   17.0420   21.8790 C.3       1 3SP         0.0214
     23 C23        14.5150   16.6700   22.0490 C.2       1 3SP         0.0813
     24 C24        18.3360   18.3100   24.6380 C.3       1 3SP         0.0108
     25 C25        19.7330   18.9520   24.6680 C.3       1 3SP        -0.0338
     26 C26        20.0560   19.4310   26.0940 C.3       1 3SP        -0.0499
     27 C27        21.4420   20.1250   26.1110 C.3       1 3SP        -0.0528
     28 C28        22.5430   19.1530   25.6190 C.3       1 3SP        -0.0530
     29 C29        22.2030   18.6110   24.2080 C.3       1 3SP        -0.0528
     30 C30        20.8070   17.9330   24.2120 C.3       1 3SP        -0.0499
     31 O31        14.0980   16.3020   23.1370 O.co2     1 3SP        -0.5645
     32 O32        13.7530   16.7330   21.0900 O.co2     1 3SP        -0.5645
     33 H1         11.9254   19.9885   22.7983 H         1 3SP         0.0371
     34 H2         13.7020   20.2165   20.8787 H         1 3SP         0.0277
     35 H3          9.6699   21.4783   25.3736 H         1 3SP         0.3179
     36 H4         10.5387   20.3857   24.2627 H         1 3SP         0.3179
     37 H5         11.2517   24.4191   24.1518 H         1 3SP         0.3179
     38 H6         10.0650   23.7516   25.3046 H         1 3SP         0.3179
     39 H7         14.3265   23.8573   20.0167 H         1 3SP         0.0710
     40 H8         14.4112   22.1833   19.3708 H         1 3SP         0.0710
     41 H9         16.2303   23.4159   21.3238 H         1 3SP         0.1882
     42 H10        18.2117   22.3022   21.7496 H         1 3SP         0.0802
     43 H11        19.5215   22.6349   19.8117 H         1 3SP         0.0313
     44 H12        18.6339   21.3790   18.8834 H         1 3SP         0.0313
     45 H13        20.8993   21.0020   20.9435 H         1 3SP         0.0287
     46 H14        20.6858   20.1917   19.3546 H         1 3SP         0.0287
     47 H15        19.9546   18.9156   21.6282 H         1 3SP         0.0524
     48 H16        18.9301   18.7913   20.1579 H         1 3SP         0.0524
     49 H17        18.5313   17.7611   22.5453 H         1 3SP         0.1099
     50 H18        15.8367   18.0420   23.6208 H         1 3SP         0.2049
     51 H19        16.7004   16.6437   23.7114 H         1 3SP         0.2049
     52 H20        16.5270   16.1680   21.5121 H         1 3SP         0.0989
     53 H21        16.0513   17.8619   21.1504 H         1 3SP         0.0989
     54 H22        18.4001   17.2888   25.0416 H         1 3SP         0.0348
     55 H23        17.6517   18.9072   25.2585 H         1 3SP         0.0348
     56 H24        19.7445   19.8148   23.9858 H         1 3SP         0.0304
     57 H25        20.0713   18.5674   26.7751 H         1 3SP         0.0268
     58 H26        19.2860   20.1442   26.4233 H         1 3SP         0.0268
     59 H27        21.6740   20.4445   27.1377 H         1 3SP         0.0265
     60 H28        21.4144   21.0043   25.4507 H         1 3SP         0.0265
     61 H29        22.6204   18.3096   26.3209 H         1 3SP         0.0265
     62 H30        23.5042   19.6863   25.5791 H         1 3SP         0.0265
     63 H31        22.9632   17.8740   23.9097 H         1 3SP         0.0265
     64 H32        22.1991   19.4447   23.4905 H         1 3SP         0.0265
     65 H33        20.5690   17.5802   23.1977 H         1 3SP         0.0268
     66 H34        20.8176   17.0784   24.9045 H         1 3SP         0.0268
@<TRIPOS>BOND
     1    1    2 2  
     2    1    5 1  
     3    1    6 1  
     4    2    3 1  
     5    3    4 2  
     6    4    5 1  
     7    4    9 1  
     8    6    7 ar 
     9    6    8 ar 
    10    9   10 1  
    11   10   11 am 
    12   11   12 2  
    13   11   13 1  
    14   13   14 1  
    15   13   17 1  
    16   14   15 1  
    17   15   16 1  
    18   16   17 1  
    19   17   18 am 
    20   18   19 2  
    21   18   20 1  
    22   20   21 1  
    23   20   24 1  
    24   21   22 1  
    25   22   23 1  
    26   23   31 ar 
    27   23   32 ar 
    28   24   25 1  
    29   25   26 1  
    30   25   30 1  
    31   26   27 1  
    32   27   28 1  
    33   28   29 1  
    34   29   30 1  
    35    2   33 1  
    36    3   34 1  
    37    7   35 1  
    38    7   36 1  
    39    8   37 1  
    40    8   38 1  
    41    9   39 1  
    42    9   40 1  
    43   10   41 1  
    44   13   42 1  
    45   14   43 1  
    46   14   44 1  
    47   15   45 1  
    48   15   46 1  
    49   16   47 1  
    50   16   48 1  
    51   20   49 1  
    52   21   50 1  
    53   21   51 1  
    54   22   52 1  
    55   22   53 1  
    56   24   54 1  
    57   24   55 1  
    58   25   56 1  
    59   26   57 1  
    60   26   58 1  
    61   27   59 1  
    62   27   60 1  
    63   28   61 1  
    64   28   62 1  
    65   29   63 1  
    66   29   64 1  
    67   30   65 1  
    68   30   66 1  
@<TRIPOS>SUBSTRUCTURE
     1 3SP         1

