### 
### Created by X-TOOL on Mon Sep 10 21:12:53 2018
### 

@<TRIPOS>MOLECULE
2ff1_ligand
   34    36     1     0     0
SMALL
GAST_HUCK


@<TRIPOS>ATOM
      1 O5         16.4130   22.7730    9.4680 O.3       1 IMH        -0.3894
      2 C5         17.0670   24.0400    9.2490 C.3       1 IMH         0.0894
      3 C4         16.2080   25.3490    9.4340 C.3       1 IMH         0.0313
      4 N4         15.5360   25.2060   10.7470 N.4       1 IMH         0.2435
      5 C3         16.9480   26.7030    9.5530 C.3       1 IMH         0.1317
      6 O3         16.2130   27.8130    8.9400 O.3       1 IMH        -0.3832
      7 C2         17.1650   26.9480   11.1090 C.3       1 IMH         0.1327
      8 O2         16.9290   28.3220   11.5300 O.3       1 IMH        -0.3821
      9 C1         16.2040   25.9590   11.8160 C.3       1 IMH         0.0244
     10 C9         16.9020   24.8770   12.8570 C.2       1 IMH         0.0057
     11 C8         16.9640   23.5350   12.6720 C.2       1 IMH         0.0223
     12 N7         17.6350   22.9010   13.7740 N.pl3     1 IMH        -0.2895
     13 C5         17.9610   23.9660   14.6230 C.2       1 IMH         0.1348
     14 C6         18.6730   23.8680   15.9290 C.2       1 IMH         0.2413
     15 O6         19.0980   22.8450   16.4920 O.2       1 IMH        -0.4013
     16 N1         18.8180   25.1730   16.4980 N.am      1 IMH        -0.2067
     17 C2         18.3580   26.4040   15.9190 C.2       1 IMH         0.1146
     18 N3         17.7230   26.3910   14.7320 N.2       1 IMH        -0.3199
     19 C4         17.5450   25.1690   14.1190 C.2       1 IMH         0.0184
     20 H1         15.6871   22.6837    8.8618 H         1 IMH         0.2097
     21 H2         17.4471   24.0396    8.2168 H         1 IMH         0.0614
     22 H3         17.9118   24.0994    9.9509 H         1 IMH         0.0614
     23 H4         15.4808   25.4099    8.6109 H         1 IMH         0.0900
     24 H5         15.5264   24.2300   10.9988 H         1 IMH         0.2029
     25 H6         14.5889   25.5403   10.6617 H         1 IMH         0.2029
     26 H7         17.9254   26.6240    9.0545 H         1 IMH         0.0680
     27 H8         16.7109   28.6156    9.0419 H         1 IMH         0.2102
     28 H9         18.2036   26.6942   11.3676 H         1 IMH         0.0693
     29 H10        17.5249   28.9002   11.0685 H         1 IMH         0.2103
     30 H11        15.4634   26.5426   12.3825 H         1 IMH         0.0961
     31 H12        16.5609   23.0098   11.8074 H         1 IMH         0.0779
     32 H13        17.8302   21.8986   13.9078 H         1 IMH         0.2273
     33 H14        19.2830   25.2333   17.3812 H         1 IMH         0.2519
     34 H15        18.5226   27.3464   16.4392 H         1 IMH         0.1426
@<TRIPOS>BOND
     1    1    2 1  
     2    2    3 1  
     3    3    4 1  
     4    3    5 1  
     5    4    9 1  
     6    5    6 1  
     7    5    7 1  
     8    7    8 1  
     9    7    9 1  
    10    9   10 1  
    11   10   11 2  
    12   10   19 1  
    13   11   12 1  
    14   12   13 1  
    15   13   14 1  
    16   13   19 2  
    17   14   15 2  
    18   14   16 am 
    19   16   17 1  
    20   17   18 2  
    21   18   19 1  
    22    1   20 1  
    23    2   21 1  
    24    2   22 1  
    25    3   23 1  
    26    4   24 1  
    27    4   25 1  
    28    5   26 1  
    29    6   27 1  
    30    7   28 1  
    31    8   29 1  
    32    9   30 1  
    33   11   31 1  
    34   12   32 1  
    35   16   33 1  
    36   17   34 1  
@<TRIPOS>SUBSTRUCTURE
     1 IMH         1

