### 
### Created by X-TOOL on Mon Sep 10 21:12:53 2018
### 

@<TRIPOS>MOLECULE
2ff2_ligand
   34    36     1     0     0
SMALL
GAST_HUCK


@<TRIPOS>ATOM
      1 O5        -25.0190   12.9380  -18.9240 O.3       1 IMH        -0.3894
      2 C5        -24.4450   11.6690  -19.2490 C.3       1 IMH         0.0894
      3 C4        -25.0790   10.3750  -18.6170 C.3       1 IMH         0.0313
      4 N4        -26.5540   10.4700  -18.8030 N.4       1 IMH         0.2435
      5 C3        -24.7200    9.0300  -19.2680 C.3       1 IMH         0.1317
      6 O3        -24.6900    7.9410  -18.3080 O.3       1 IMH        -0.3832
      7 C2        -25.8140    8.7690  -20.3650 C.3       1 IMH         0.1327
      8 O2        -26.1950    7.3870  -20.5030 O.3       1 IMH        -0.3821
      9 C1        -27.0180    9.7120  -19.9860 C.3       1 IMH         0.0244
     10 C9        -27.4440   10.7740  -21.1670 C.2       1 IMH         0.0057
     11 C8        -27.1760   12.0990  -21.1720 C.2       1 IMH         0.0223
     12 N7        -27.6750   12.7070  -22.3560 N.pl3     1 IMH        -0.2895
     13 C5        -28.2550   11.6480  -23.0450 C.2       1 IMH         0.1348
     14 C6        -28.9100   11.7400  -24.3510 C.2       1 IMH         0.2413
     15 O6        -29.0420   12.7410  -25.0220 O.2       1 IMH        -0.4013
     16 N1        -29.3960   10.4590  -24.7550 N.am      1 IMH        -0.2067
     17 C2        -29.2710    9.2400  -24.0110 C.2       1 IMH         0.1146
     18 N3        -28.6430    9.2580  -22.8240 N.2       1 IMH        -0.3199
     19 C4        -28.1550   10.4730  -22.3800 C.2       1 IMH         0.0184
     20 H1        -24.9689   13.0759  -17.9854 H         1 IMH         0.2097
     21 H2        -23.3907   11.6998  -18.9369 H         1 IMH         0.0614
     22 H3        -24.5008   11.5575  -20.3419 H         1 IMH         0.0614
     23 H4        -24.8134   10.3421  -17.5501 H         1 IMH         0.0900
     24 H5        -26.8048   11.4393  -18.9197 H         1 IMH         0.2029
     25 H6        -27.0091   10.1016  -17.9825 H         1 IMH         0.2029
     26 H7        -23.7299    9.1061  -19.7411 H         1 IMH         0.0680
     27 H8        -24.4647    7.1332  -18.7542 H         1 IMH         0.2102
     28 H9        -25.4123    9.0876  -21.3382 H         1 IMH         0.0693
     29 H10       -25.4330    6.8718  -20.7408 H         1 IMH         0.2103
     30 H11       -27.8954    9.0994  -19.7311 H         1 IMH         0.0961
     31 H12       -26.6503   12.6277  -20.3783 H         1 IMH         0.0779
     32 H13       -27.6200   13.6965  -22.6366 H         1 IMH         0.2273
     33 H14       -29.8658   10.4079  -25.6363 H         1 IMH         0.2519
     34 H15       -29.6804    8.3104  -24.4037 H         1 IMH         0.1426
@<TRIPOS>BOND
     1    1    2 1  
     2    2    3 1  
     3    3    4 1  
     4    3    5 1  
     5    4    9 1  
     6    5    6 1  
     7    5    7 1  
     8    7    8 1  
     9    7    9 1  
    10    9   10 1  
    11   10   11 2  
    12   10   19 1  
    13   11   12 1  
    14   12   13 1  
    15   13   14 1  
    16   13   19 2  
    17   14   15 2  
    18   14   16 am 
    19   16   17 1  
    20   17   18 2  
    21   18   19 1  
    22    1   20 1  
    23    2   21 1  
    24    2   22 1  
    25    3   23 1  
    26    4   24 1  
    27    4   25 1  
    28    5   26 1  
    29    6   27 1  
    30    7   28 1  
    31    8   29 1  
    32    9   30 1  
    33   11   31 1  
    34   12   32 1  
    35   16   33 1  
    36   17   34 1  
@<TRIPOS>SUBSTRUCTURE
     1 IMH         1

