### 
### Created by X-TOOL on Fri Nov 18 12:29:49 2016
### 

@<TRIPOS>MOLECULE
2fgi_ligand
   80    82     1     0     0
SMALL
GAST_HUCK


@<TRIPOS>ATOM
      1 H1          9.4904    7.1140   28.9660 H         1 PD1         0.0281
      2 H2          9.6277    5.8221   30.2064 H         1 PD1         0.0281
      3 H3          9.0387    5.4244   28.5567 H         1 PD1         0.0281
      4 H4         11.8520    6.4100   29.2705 H         1 PD1         0.0812
      5 H5         11.2630    6.0122   27.6208 H         1 PD1         0.0812
      6 H6         14.0393    4.4641   31.2354 H         1 PD1         0.0281
      7 H7         12.2742    4.3115   31.5316 H         1 PD1         0.0281
      8 H8         12.9265    5.7797   30.7281 H         1 PD1         0.0281
      9 H9         13.6319    4.3956   28.7716 H         1 PD1         0.0812
     10 H10        12.9797    2.9274   29.5751 H         1 PD1         0.0812
     11 H11        10.0067    2.8770   28.4831 H         1 PD1         0.0814
     12 H12        11.6307    2.5238   27.8015 H         1 PD1         0.0814
     13 H13        11.3356    3.9978   26.0089 H         1 PD1         0.0317
     14 H14         9.9944    4.8728   26.8228 H         1 PD1         0.0317
     15 H15         8.6023    2.8200   26.6478 H         1 PD1         0.0287
     16 H16         9.9338    2.0296   25.7372 H         1 PD1         0.0287
     17 H17         9.7401    3.5607   23.9216 H         1 PD1         0.0527
     18 H18         8.7143    4.6840   24.8769 H         1 PD1         0.0527
     19 H19         5.0582    1.4495   20.9424 H         1 PD1         0.0992
     20 H20         4.7907    2.7243   18.8075 H         1 PD1         0.0785
     21 H21         6.6382    3.1929   16.3482 H         1 PD1         0.0442
     22 H22         3.8942    4.8596   13.5324 H         1 PD1         0.0457
     23 H23         3.8107    6.1547   17.6302 H         1 PD1         0.0442
     24 H24         5.7461    1.9463   12.1541 H         1 PD1         0.0577
     25 H25         4.5878    3.3182   12.2062 H         1 PD1         0.0577
     26 H26         4.3195    1.8762   13.2432 H         1 PD1         0.0577
     27 H27         1.0103    7.0140   14.1483 H         1 PD1         0.0577
     28 H28         1.2601    5.2409   14.2906 H         1 PD1         0.0577
     29 H29         2.3150    6.2126   13.2091 H         1 PD1         0.0577
     30 H30        11.2273    9.5204   19.9159 H         1 PD1         0.0254
     31 H31        10.4351    8.8201   18.4638 H         1 PD1         0.0254
     32 H32        11.0198    7.7416   19.7759 H         1 PD1         0.0254
     33 H33         9.3059   10.9769   20.3177 H         1 PD1         0.0254
     34 H34         7.6587   10.2753   20.4625 H         1 PD1         0.0254
     35 H35         8.4806   10.3154   18.8658 H         1 PD1         0.0254
     36 H36        10.0961    9.4364   22.0851 H         1 PD1         0.0254
     37 H37         9.8894    7.6617   21.9002 H         1 PD1         0.0254
     38 H38         8.4610    8.7043   22.2155 H         1 PD1         0.0254
     39 C1          9.7300    6.0540   29.1360 C.3       1 PD1        -0.0245
     40 C2         11.1620    5.7790   28.6910 C.3       1 PD1        -0.0348
     41 C3         13.0390    4.6910   30.8380 C.3       1 PD1        -0.0245
     42 C4         12.8670    4.0160   29.4650 C.3       1 PD1        -0.0348
     43 C5         10.8880    3.3130   27.9900 C.3       1 PD1        -0.0319
     44 C6         10.4530    3.8870   26.6560 C.3       1 PD1        -0.0106
     45 C7          9.4540    2.9910   25.9730 C.3       1 PD1        -0.0274
     46 C8          8.9500    3.6270   24.6840 C.3       1 PD1         0.0320
     47 C9          7.1310    3.0720   22.9050 C.ar      1 PD1         0.1838
     48 C10         5.7400    2.2150   21.2950 C.ar      1 PD1         0.0300
     49 C11         6.0240    3.3180   20.4860 C.ar      1 PD1         0.0367
     50 C12         6.9000    4.3240   20.9760 C.ar      1 PD1         0.0865
     51 C13         5.4770    3.4670   19.1980 C.ar      1 PD1        -0.0250
     52 C14         5.8210    4.5680   18.4330 C.ar      1 PD1         0.0375
     53 C15         6.6830    5.4990   18.9790 C.ar      1 PD1         0.1526
     54 C16         5.2980    4.6730   17.1530 C.ar      1 PD1        -0.0322
     55 C17         5.8270    3.8790   16.1330 C.ar      1 PD1        -0.0387
     56 C18         5.3200    3.9650   14.8510 C.ar      1 PD1         0.0813
     57 C19         4.2880    4.8070   14.5410 C.ar      1 PD1        -0.0064
     58 C20         3.7620    5.5890   15.5520 C.ar      1 PD1         0.0813
     59 C21         4.2470    5.5340   16.8560 C.ar      1 PD1        -0.0387
     60 C22         5.0810    2.5360   12.8020 C.3       1 PD1         0.0590
     61 C23         1.7620    6.2110   14.1600 C.3       1 PD1         0.0590
     62 C24         7.9120    7.6430   18.4980 C.2       1 PD1         0.2993
     63 C25         9.2370    8.8210   20.2280 C.3       1 PD1         0.0458
     64 C26        10.5680    8.7190   19.5510 C.3       1 PD1        -0.0398
     65 C27         8.6280   10.1930   19.9490 C.3       1 PD1        -0.0398
     66 C28         9.4340    8.6440   21.7060 C.3       1 PD1        -0.0398
     67 N1         11.4990    4.3260   28.9210 N.4       1 PD1         0.2348
     68 N2          7.7510    2.9590   24.1820 N.pl3     1 PD1        -0.2885
     69 N3          6.3230    2.0940   22.5420 N.ar      1 PD1        -0.2480
     70 N4          7.4290    4.1450   22.1800 N.ar      1 PD1        -0.2590
     71 N5          7.1900    5.3550   20.2030 N.ar      1 PD1        -0.2741
     72 N6          7.0700    6.6520   18.2320 N.am      1 PD1        -0.1939
     73 N7          8.3600    7.7640   19.7500 N.am      1 PD1        -0.2605
     74 O1          5.8570    3.1510   13.8580 O.3       1 PD1        -0.3244
     75 O2          2.6890    6.4300   15.2610 O.3       1 PD1        -0.3244
     76 O3          8.2250    8.4490   17.6210 O.2       1 PD1        -0.3854
     77 H39        10.9451    4.1533   29.7453 H         1 PD1         0.2033
     78 H40         7.2906    2.3176   24.8435 H         1 PD1         0.1882
     79 H41         6.6227    6.7274   17.3408 H         1 PD1         0.2402
     80 H42         8.0693    7.0728   20.4116 H         1 PD1         0.1862
@<TRIPOS>BOND
     1   39    1 1  
     2   39    2 1  
     3   39    3 1  
     4   40    4 1  
     5   40    5 1  
     6   41    6 1  
     7   41    7 1  
     8   41    8 1  
     9   42    9 1  
    10   42   10 1  
    11   43   11 1  
    12   43   12 1  
    13   44   13 1  
    14   44   14 1  
    15   45   15 1  
    16   45   16 1  
    17   46   17 1  
    18   46   18 1  
    19   48   19 1  
    20   51   20 1  
    21   55   21 1  
    22   57   22 1  
    23   59   23 1  
    24   60   24 1  
    25   60   25 1  
    26   60   26 1  
    27   61   27 1  
    28   61   28 1  
    29   61   29 1  
    30   64   30 1  
    31   64   31 1  
    32   64   32 1  
    33   65   33 1  
    34   65   34 1  
    35   65   35 1  
    36   66   36 1  
    37   66   37 1  
    38   66   38 1  
    39   67   77 1  
    40   68   78 1  
    41   40   39 1  
    42   67   40 1  
    43   43   67 1  
    44   67   42 1  
    45   42   41 1  
    46   44   43 1  
    47   45   44 1  
    48   46   45 1  
    49   68   46 1  
    50   47   68 1  
    51   69   47 ar 
    52   70   47 ar 
    53   50   70 ar 
    54   71   50 ar 
    55   49   50 ar 
    56   51   49 ar 
    57   49   48 ar 
    58   48   69 ar 
    59   52   51 ar 
    60   54   52 1  
    61   52   53 ar 
    62   53   71 ar 
    63   53   72 1  
    64   72   62 am 
    65   62   73 am 
    66   62   76 2  
    67   73   63 1  
    68   63   66 1  
    69   63   65 1  
    70   63   64 1  
    71   54   59 ar 
    72   55   54 ar 
    73   56   55 ar 
    74   74   56 1  
    75   56   57 ar 
    76   57   58 ar 
    77   58   75 1  
    78   58   59 ar 
    79   75   61 1  
    80   74   60 1  
    81   72   79 1  
    82   73   80 1  
@<TRIPOS>SUBSTRUCTURE
     1 PD1         1

