### 
### Created by X-TOOL on Mon Sep 10 21:12:53 2018
### 

@<TRIPOS>MOLECULE
2fgu_ligand
  100   104     1     0     0
SMALL
GAST_HUCK


@<TRIPOS>ATOM
      1 O          18.9080   -5.7980   11.5630 O.2       1 QNC        -0.3762
      2 C          19.1640   -6.3060   12.6430 C.2       1 QNC         0.2293
      3 N1         20.3730   -8.1250   13.9490 N.ar      1 QNC        -0.2737
      4 C2         20.0690   -7.5100   12.7740 C.ar      1 QNC         0.1219
      5 C3         20.6240   -7.9900   11.5970 C.ar      1 QNC        -0.0136
      6 C4         21.4760   -9.0960   11.6080 C.ar      1 QNC        -0.0314
      7 C4A        21.7700   -9.7180   12.8060 C.ar      1 QNC         0.0097
      8 C5         22.6080  -10.8350   12.8140 C.ar      1 QNC        -0.0444
      9 C6         22.9060  -11.4610   14.0210 C.ar      1 QNC        -0.0546
     10 C7         22.3470  -10.9580   15.1950 C.ar      1 QNC        -0.0545
     11 C8         21.5010   -9.8480   15.1770 C.ar      1 QNC        -0.0370
     12 C8A        21.1920   -9.2140   13.9740 C.ar      1 QNC         0.0527
     13 N          18.5290   -5.6230   13.6000 N.am      1 ASN        -0.2600
     14 CA         17.7070   -4.6130   14.2090 C.3       1 ASN         0.1473
     15 C          18.6150   -3.7330   15.0340 C.2       1 ASN         0.2045
     16 O          18.5350   -3.7190   16.2410 O.2       1 ASN        -0.3943
     17 CB         16.4340   -5.1880   14.7970 C.3       1 ASN         0.0773
     18 CG         15.8110   -5.8640   13.6000 C.2       1 ASN         0.1780
     19 OD1        15.3900   -5.1980   12.6580 O.2       1 ASN        -0.3970
     20 ND2        15.7830   -7.1930   13.6280 N.am      1 ASN        -0.3007
     21 C          19.8720   -0.5220   14.6250 C.3       1 HPH         0.1194
     22 O          20.1260   -0.0890   13.3910 O.3       1 HPH        -0.3840
     23 CA         20.3290   -1.9250   14.9090 C.3       1 HPH         0.0823
     24 N          19.4580   -2.9430   14.3440 N.am      1 HPH        -0.2772
     25 CB         21.7890   -2.0460   14.4370 C.3       1 HPH         0.0066
     26 CG         22.2840   -3.4580   14.6330 C.ar      1 HPH        -0.0408
     27 CD1        22.6440   -3.9130   15.9000 C.ar      1 HPH        -0.0603
     28 CD2        22.3680   -4.3210   13.5470 C.ar      1 HPH        -0.0603
     29 CE1        23.0740   -5.2310   16.0740 C.ar      1 HPH        -0.0686
     30 CE2        22.7900   -5.6400   13.7200 C.ar      1 HPH        -0.0686
     31 CZ         23.1510   -6.0970   14.9860 C.ar      1 HPH        -0.0687
     32 N1         19.3940    0.4580   16.7920 N.4       1 DIQ         0.2562
     33 CM         20.1280    0.3900   15.5800 C.3       1 DIQ        -0.0008
     34 C2         20.1420    1.2230   17.8070 C.3       1 DIQ         0.0688
     35 C          21.4190    0.5760   18.2560 C.2       1 DIQ         0.2251
     36 O          21.4430   -0.6380   18.3530 O.2       1 DIQ        -0.3909
     37 C3         19.3380    1.4600   19.0880 C.3       1 DIQ         0.0113
     38 C3A        17.9740    2.1090   18.8350 C.3       1 DIQ        -0.0261
     39 C4         17.1370    2.1060   20.1120 C.3       1 DIQ        -0.0494
     40 C5         16.6680    0.6980   20.4520 C.3       1 DIQ        -0.0528
     41 C6         15.9750    0.0470   19.2650 C.3       1 DIQ        -0.0526
     42 C7         16.9850   -0.0630   18.1320 C.3       1 DIQ        -0.0451
     43 C7A        17.3070    1.3580   17.7030 C.3       1 DIQ         0.0024
     44 C8         18.2120    1.2710   16.4990 C.3       1 DIQ        -0.0266
     45 N          22.4240    1.4330   18.5120 N.am      1 QNC        -0.2771
     46 C          23.7890    1.0830   18.8650 C.3       1 QNC         0.0448
     47 C1         24.6260    2.3600   18.9800 C.3       1 QNC        -0.0396
     48 C2         23.8520    0.2840   20.1620 C.3       1 QNC        -0.0396
     49 C3         24.3390    0.2050   17.7400 C.3       1 QNC        -0.0396
     50 H1         20.3936   -7.5007   10.6576 H         1 QNC         0.0729
     51 H2         21.9040   -9.4642   10.6826 H         1 QNC         0.0774
     52 H3         23.0236  -11.2120   11.8865 H         1 QNC         0.0657
     53 H4         23.5611  -12.3243   14.0477 H         1 QNC         0.0652
     54 H5         22.5738  -11.4382   16.1400 H         1 QNC         0.0657
     55 H6         21.0812   -9.4762   16.1047 H         1 QNC         0.0653
     56 H7         18.7953   -6.1508   14.4066 H         1 QNC         0.1882
     57 H8         17.3519   -3.9647   13.3944 H         1 QNC         0.0826
     58 H9         15.7823   -4.3945   15.1916 H         1 QNC         0.0551
     59 H10        16.6542   -5.9123   15.5950 H         1 QNC         0.0551
     60 H11        15.3834   -7.7009   12.8649 H         1 QNC         0.1814
     61 H12        16.1616   -7.6847   14.4122 H         1 QNC         0.1814
     62 H13        18.7757   -0.6091   14.6465 H         1 QNC         0.0672
     63 H14        21.0631   -0.1082   13.2365 H         1 QNC         0.2101
     64 H15        20.3154   -2.0678   15.9996 H         1 QNC         0.0606
     65 H16        19.4882   -3.0674   13.3522 H         1 QNC         0.1857
     66 H17        22.4176   -1.3564   15.0194 H         1 QNC         0.0449
     67 H18        21.8490   -1.7847   13.3702 H         1 QNC         0.0449
     68 H19        22.5904   -3.2439   16.7512 H         1 QNC         0.0557
     69 H20        22.1035   -3.9667   12.5572 H         1 QNC         0.0557
     70 H21        23.3494   -5.5817   17.0620 H         1 QNC         0.0599
     71 H22        22.8370   -6.3096   12.8688 H         1 QNC         0.0599
     72 H23        23.4889   -7.1179   15.1228 H         1 QNC         0.0559
     73 H24        19.1542   -0.4621   17.1266 H         1 QNC         0.2057
     74 H25        20.0148    1.3733   15.1001 H         1 QNC         0.0841
     75 H26        21.1790    0.2417   15.8687 H         1 QNC         0.0841
     76 H27        20.3856    2.1973   17.3582 H         1 QNC         0.1100
     77 H28        19.9206    2.1182   19.7493 H         1 QNC         0.0348
     78 H29        19.1773    0.4913   19.5837 H         1 QNC         0.0348
     79 H30        18.1239    3.1537   18.5251 H         1 QNC         0.0309
     80 H31        16.2590    2.7530   19.9685 H         1 QNC         0.0268
     81 H32        17.7458    2.4929   20.9424 H         1 QNC         0.0268
     82 H33        15.9635    0.7484   21.2952 H         1 QNC         0.0265
     83 H34        17.5385    0.0890   20.7373 H         1 QNC         0.0265
     84 H35        15.1223    0.6644   18.9461 H         1 QNC         0.0265
     85 H36        15.6178   -0.9550   19.5450 H         1 QNC         0.0265
     86 H37        16.5532   -0.6253   17.2910 H         1 QNC         0.0270
     87 H38        17.8961   -0.5699   18.4827 H         1 QNC         0.0270
     88 H39        16.3791    1.8803   17.4270 H         1 QNC         0.0355
     89 H40        17.6588    0.8149   15.6648 H         1 QNC         0.0818
     90 H41        18.5329    2.2843   16.2157 H         1 QNC         0.0818
     91 H42        22.2101    2.4081   18.4535 H         1 QNC         0.1859
     92 H43        25.6603    2.0976   19.2473 H         1 QNC         0.0254
     93 H44        24.1995    3.0091   19.7589 H         1 QNC         0.0254
     94 H45        24.6197    2.8906   18.0165 H         1 QNC         0.0254
     95 H46        24.8997    0.0404   20.3920 H         1 QNC         0.0254
     96 H47        23.2758   -0.6461   20.0481 H         1 QNC         0.0254
     97 H48        23.4260    0.8812   20.9817 H         1 QNC         0.0254
     98 H49        25.3753   -0.0817   17.9720 H         1 QNC         0.0254
     99 H50        24.3166    0.7650   16.7935 H         1 QNC         0.0254
    100 H51        23.7207   -0.6999   17.6454 H         1 QNC         0.0254
@<TRIPOS>BOND
     1    2    1 2  
     2    2    4 1  
     3   13    2 am 
     4    4    3 ar 
     5    3   12 ar 
     6    4    5 ar 
     7    5    6 ar 
     8    6    7 ar 
     9    7    8 ar 
    10   12    7 ar 
    11    8    9 ar 
    12   10    9 ar 
    13   11   10 ar 
    14   12   11 ar 
    15   14   13 1  
    16   15   14 1  
    17   14   17 1  
    18   15   16 2  
    19   24   15 am 
    20   17   18 1  
    21   18   19 2  
    22   18   20 am 
    23   21   22 1  
    24   23   21 1  
    25   21   33 1  
    26   23   24 1  
    27   23   25 1  
    28   25   26 1  
    29   26   27 ar 
    30   26   28 ar 
    31   27   29 ar 
    32   28   30 ar 
    33   29   31 ar 
    34   30   31 ar 
    35   33   32 1  
    36   32   34 1  
    37   32   44 1  
    38   34   35 1  
    39   34   37 1  
    40   35   36 2  
    41   35   45 am 
    42   37   38 1  
    43   38   39 1  
    44   38   43 1  
    45   39   40 1  
    46   40   41 1  
    47   41   42 1  
    48   42   43 1  
    49   43   44 1  
    50   45   46 1  
    51   46   47 1  
    52   46   48 1  
    53   46   49 1  
    54    5   50 1  
    55    6   51 1  
    56    8   52 1  
    57    9   53 1  
    58   10   54 1  
    59   11   55 1  
    60   13   56 1  
    61   14   57 1  
    62   17   58 1  
    63   17   59 1  
    64   20   60 1  
    65   20   61 1  
    66   21   62 1  
    67   22   63 1  
    68   23   64 1  
    69   24   65 1  
    70   25   66 1  
    71   25   67 1  
    72   27   68 1  
    73   28   69 1  
    74   29   70 1  
    75   30   71 1  
    76   31   72 1  
    77   32   73 1  
    78   33   74 1  
    79   33   75 1  
    80   34   76 1  
    81   37   77 1  
    82   37   78 1  
    83   38   79 1  
    84   39   80 1  
    85   39   81 1  
    86   40   82 1  
    87   40   83 1  
    88   41   84 1  
    89   41   85 1  
    90   42   86 1  
    91   42   87 1  
    92   43   88 1  
    93   44   89 1  
    94   44   90 1  
    95   45   91 1  
    96   47   92 1  
    97   47   93 1  
    98   47   94 1  
    99   48   95 1  
   100   48   96 1  
   101   48   97 1  
   102   49   98 1  
   103   49   99 1  
   104   49  100 1  
@<TRIPOS>SUBSTRUCTURE
     1 QNC         1

