### 
### Created by X-TOOL on Mon Sep 10 21:12:53 2018
### 

@<TRIPOS>MOLECULE
2fgv_ligand
  100   104     1     0     0
SMALL
GAST_HUCK


@<TRIPOS>ATOM
      1 O          18.8700   -5.7580   11.7800 O.2       1 QNC        -0.3762
      2 C          19.1110   -6.2710   12.8630 C.2       1 QNC         0.2293
      3 N1         20.1670   -8.0980   14.1680 N.ar      1 QNC        -0.2737
      4 C2         19.9340   -7.5150   12.9700 C.ar      1 QNC         0.1219
      5 C3         20.4480   -8.0640   11.8050 C.ar      1 QNC        -0.0136
      6 C4         21.2080   -9.2210   11.8830 C.ar      1 QNC        -0.0314
      7 C4A        21.4460   -9.8060   13.1130 C.ar      1 QNC         0.0097
      8 C5         22.2110  -10.9660   13.1750 C.ar      1 QNC        -0.0444
      9 C6         22.4580  -11.5700   14.3980 C.ar      1 QNC        -0.0546
     10 C7         21.9330  -10.9940   15.5470 C.ar      1 QNC        -0.0545
     11 C8         21.1660   -9.8340   15.4800 C.ar      1 QNC        -0.0370
     12 C8A        20.9140   -9.2240   14.2560 C.ar      1 QNC         0.0527
     13 N          18.5410   -5.5750   13.8430 N.am      1 ASN        -0.2600
     14 CA         17.7700   -4.4790   14.3540 C.3       1 ASN         0.1473
     15 C          18.6100   -3.5830   15.2210 C.2       1 ASN         0.2045
     16 O          18.5820   -3.7060   16.4270 O.2       1 ASN        -0.3943
     17 CB         16.4340   -4.9060   14.9250 C.3       1 ASN         0.0773
     18 CG         15.7120   -5.5660   13.7760 C.2       1 ASN         0.1780
     19 OD1        15.3510   -4.9030   12.8210 O.2       1 ASN        -0.3970
     20 ND2        15.5220   -6.8820   13.8570 N.am      1 ASN        -0.3007
     21 C          19.7960   -0.2620   14.8820 C.3       1 HPH         0.1194
     22 O          19.9750    0.1130   13.6100 O.3       1 HPH        -0.3840
     23 CA         20.1830   -1.6790   15.2030 C.3       1 HPH         0.0823
     24 N          19.3300   -2.6650   14.5610 N.am      1 HPH        -0.2772
     25 CB         21.6410   -1.8640   14.7870 C.3       1 HPH         0.0066
     26 CG         22.1010   -3.3000   14.8710 C.ar      1 HPH        -0.0408
     27 CD1        22.4900   -3.8380   16.0920 C.ar      1 HPH        -0.0603
     28 CD2        22.1450   -4.0690   13.7140 C.ar      1 HPH        -0.0603
     29 CE1        22.9100   -5.1640   16.1660 C.ar      1 HPH        -0.0686
     30 CE2        22.5680   -5.3930   13.7920 C.ar      1 HPH        -0.0686
     31 CZ         22.9490   -5.9360   15.0130 C.ar      1 HPH        -0.0687
     32 N1         19.3010    0.7580   17.0120 N.4       1 DIQ         0.2562
     33 CM         20.0660    0.6710   15.8190 C.3       1 DIQ        -0.0008
     34 C2         20.0680    1.4420   18.0620 C.3       1 DIQ         0.0688
     35 C          21.3690    0.7550   18.3770 C.2       1 DIQ         0.2251
     36 O          21.4120   -0.4620   18.5070 O.2       1 DIQ        -0.3909
     37 C3         19.2850    1.5310   19.3710 C.3       1 DIQ         0.0113
     38 C3A        17.9750    2.2900   19.2090 C.3       1 DIQ        -0.0261
     39 C4         17.1590    2.2740   20.5010 C.3       1 DIQ        -0.0494
     40 C5         16.4760    0.9420   20.7850 C.3       1 DIQ        -0.0528
     41 C6         15.6610    0.5000   19.5780 C.3       1 DIQ        -0.0526
     42 C7         16.5840    0.3680   18.3720 C.3       1 DIQ        -0.0451
     43 C7A        17.2210    1.7140   18.0180 C.3       1 DIQ         0.0024
     44 C8         18.0790    1.5410   16.7690 C.3       1 DIQ        -0.0266
     45 N          22.4050    1.5870   18.5420 N.am      1 QNC        -0.2771
     46 C          23.7600    1.2220   18.9110 C.3       1 QNC         0.0448
     47 C1         24.6140    2.4910   19.0120 C.3       1 QNC        -0.0396
     48 C2         23.7560    0.5160   20.2620 C.3       1 QNC        -0.0396
     49 C3         24.3100    0.3130   17.8100 C.3       1 QNC        -0.0396
     50 H1         20.2582   -7.5950   10.8463 H         1 QNC         0.0729
     51 H2         21.6146   -9.6658   10.9819 H         1 QNC         0.0774
     52 H3         22.6143  -11.3980   12.2663 H         1 QNC         0.0657
     53 H4         23.0505  -12.4759   14.4562 H         1 QNC         0.0652
     54 H5         22.1230  -11.4540   16.5100 H         1 QNC         0.0657
     55 H6         20.7621   -9.4030   16.3890 H         1 QNC         0.0653
     56 H7         18.7765   -6.0952   14.6639 H         1 QNC         0.1882
     57 H8         17.5126   -3.8655   13.4780 H         1 QNC         0.0826
     58 H9         15.8705   -4.0327   15.2853 H         1 QNC         0.0551
     59 H10        16.5764   -5.6172   15.7519 H         1 QNC         0.0551
     60 H11        15.0486   -7.3651   13.1205 H         1 QNC         0.1814
     61 H12        15.8528   -7.3868   14.6543 H         1 QNC         0.1814
     62 H13        18.6991   -0.3174   14.9428 H         1 QNC         0.0672
     63 H14        20.8934    0.0285   13.3824 H         1 QNC         0.2101
     64 H15        20.1025   -1.8233   16.2905 H         1 QNC         0.0606
     65 H16        19.2768   -2.6582   13.5624 H         1 QNC         0.1857
     66 H17        22.2742   -1.2539   15.4479 H         1 QNC         0.0449
     67 H18        21.7557   -1.5194   13.7487 H         1 QNC         0.0449
     68 H19        22.4666   -3.2259   16.9864 H         1 QNC         0.0557
     69 H20        21.8531   -3.6424   12.7612 H         1 QNC         0.0557
     70 H21        23.2046   -5.5904   17.1181 H         1 QNC         0.0599
     71 H22        22.6003   -6.0029   12.8965 H         1 QNC         0.0599
     72 H23        23.2783   -6.9675   15.0654 H         1 QNC         0.0559
     73 H24        19.0565   -0.1704   17.3191 H         1 QNC         0.2057
     74 H25        19.9786    1.6478   15.3207 H         1 QNC         0.0841
     75 H26        21.1091    0.5093   16.1286 H         1 QNC         0.0841
     76 H27        20.2849    2.4605   17.7076 H         1 QNC         0.1100
     77 H28        19.9036    2.0484   20.1190 H         1 QNC         0.0348
     78 H29        19.0627    0.5120   19.7205 H         1 QNC         0.0348
     79 H30        18.2114    3.3403   18.9831 H         1 QNC         0.0309
     80 H31        16.3845    3.0520   20.4309 H         1 QNC         0.0268
     81 H32        17.8336    2.5026   21.3392 H         1 QNC         0.0268
     82 H33        15.8089    1.0536   21.6524 H         1 QNC         0.0265
     83 H34        17.2399    0.1819   21.0054 H         1 QNC         0.0265
     84 H35        14.8827    1.2477   19.3656 H         1 QNC         0.0265
     85 H36        15.1890   -0.4711   19.7882 H         1 QNC         0.0265
     86 H37        16.0015    0.0084   17.5110 H         1 QNC         0.0270
     87 H38        17.3789   -0.3558   18.6050 H         1 QNC         0.0270
     88 H39        16.4147    2.4205   17.7716 H         1 QNC         0.0355
     89 H40        17.4809    1.0275   16.0019 H         1 QNC         0.0818
     90 H41        18.3684    2.5369   16.4025 H         1 QNC         0.0818
     91 H42        22.2266    2.5600   18.3959 H         1 QNC         0.1859
     92 H43        25.6426    2.2194   19.2916 H         1 QNC         0.0254
     93 H44        24.1902    3.1583   19.7769 H         1 QNC         0.0254
     94 H45        24.6221    3.0059   18.0400 H         1 QNC         0.0254
     95 H46        24.7856    0.2422   20.5356 H         1 QNC         0.0254
     96 H47        23.1394   -0.3927   20.1990 H         1 QNC         0.0254
     97 H48        23.3402    1.1891   21.0262 H         1 QNC         0.0254
     98 H49        25.3396    0.0168   18.0594 H         1 QNC         0.0254
     99 H50        24.3059    0.8536   16.8520 H         1 QNC         0.0254
    100 H51        23.6801   -0.5849   17.7271 H         1 QNC         0.0254
@<TRIPOS>BOND
     1    2    1 2  
     2    2    4 1  
     3   13    2 am 
     4    4    3 ar 
     5    3   12 ar 
     6    4    5 ar 
     7    5    6 ar 
     8    6    7 ar 
     9    7    8 ar 
    10   12    7 ar 
    11    8    9 ar 
    12   10    9 ar 
    13   11   10 ar 
    14   12   11 ar 
    15   14   13 1  
    16   15   14 1  
    17   14   17 1  
    18   15   16 2  
    19   24   15 am 
    20   17   18 1  
    21   18   19 2  
    22   18   20 am 
    23   21   22 1  
    24   23   21 1  
    25   21   33 1  
    26   23   24 1  
    27   23   25 1  
    28   25   26 1  
    29   26   27 ar 
    30   26   28 ar 
    31   27   29 ar 
    32   28   30 ar 
    33   29   31 ar 
    34   30   31 ar 
    35   33   32 1  
    36   32   34 1  
    37   32   44 1  
    38   34   35 1  
    39   34   37 1  
    40   35   36 2  
    41   35   45 am 
    42   37   38 1  
    43   38   39 1  
    44   38   43 1  
    45   39   40 1  
    46   40   41 1  
    47   41   42 1  
    48   42   43 1  
    49   43   44 1  
    50   45   46 1  
    51   46   47 1  
    52   46   48 1  
    53   46   49 1  
    54    5   50 1  
    55    6   51 1  
    56    8   52 1  
    57    9   53 1  
    58   10   54 1  
    59   11   55 1  
    60   13   56 1  
    61   14   57 1  
    62   17   58 1  
    63   17   59 1  
    64   20   60 1  
    65   20   61 1  
    66   21   62 1  
    67   22   63 1  
    68   23   64 1  
    69   24   65 1  
    70   25   66 1  
    71   25   67 1  
    72   27   68 1  
    73   28   69 1  
    74   29   70 1  
    75   30   71 1  
    76   31   72 1  
    77   32   73 1  
    78   33   74 1  
    79   33   75 1  
    80   34   76 1  
    81   37   77 1  
    82   37   78 1  
    83   38   79 1  
    84   39   80 1  
    85   39   81 1  
    86   40   82 1  
    87   40   83 1  
    88   41   84 1  
    89   41   85 1  
    90   42   86 1  
    91   42   87 1  
    92   43   88 1  
    93   44   89 1  
    94   44   90 1  
    95   45   91 1  
    96   47   92 1  
    97   47   93 1  
    98   47   94 1  
    99   48   95 1  
   100   48   96 1  
   101   48   97 1  
   102   49   98 1  
   103   49   99 1  
   104   49  100 1  
@<TRIPOS>SUBSTRUCTURE
     1 QNC         1

