### 
### Created by X-TOOL on Mon Sep 10 21:12:55 2018
### 

@<TRIPOS>MOLECULE
2fhy_ligand
   29    31     1     0     0
SMALL
GAST_HUCK


@<TRIPOS>ATOM
      1 C          48.8660   -7.4770   22.1400 C.ar      1 A37        -0.0454
      2 C2         47.4540   -7.2690   21.8960 C.ar      1 A37        -0.0472
      3 C3         46.9750   -5.9460   21.8170 C.ar      1 A37         0.0424
      4 C4         47.8730   -4.8120   21.9830 C.ar      1 A37        -0.0200
      5 C5         49.2780   -5.0420   22.2320 C.ar      1 A37         0.1303
      6 C6         49.7670   -6.3570   22.3080 C.ar      1 A37         0.0677
      7 S          50.3250   -3.6290   22.4380 S.o2      1 A37         0.1003
      8 O          49.4650   -2.4070   22.2770 O.2       1 A37        -0.1429
      9 O9         51.5230   -3.7530   21.4880 O.2       1 A37        -0.1429
     10 N          50.9830   -3.6290   24.0190 N.am      1 A37        -0.1236
     11 C11        50.3040   -3.0190   25.2260 C.2       1 A37         0.2980
     12 N12        49.0040   -2.5490   25.2760 N.2       1 A37        -0.3050
     13 C13        48.7610   -2.0700   26.5930 C.ar      1 A37         0.0207
     14 C14        47.6310   -1.4910   27.2520 C.ar      1 A37        -0.0545
     15 C15        47.7490   -1.1160   28.6400 C.ar      1 A37         0.0211
     16 CL1        46.3910   -0.4150   29.4580 Cl        1 A37        -0.0817
     17 C17        48.9720   -1.3150   29.3650 C.ar      1 A37        -0.0637
     18 C18        50.1140   -1.9060   28.7090 C.ar      1 A37        -0.0340
     19 C19        50.0220   -2.2880   27.3420 C.ar      1 A37         0.1352
     20 O20        50.9400   -2.8700   26.4610 O.3       1 A37        -0.1990
     21 CL2        45.2980   -5.6930   21.5180 Cl        1 A37        -0.0704
     22 CL3        51.4630   -6.6810   22.6050 Cl        1 A37        -0.0684
     23 H1         49.2543   -8.4874   22.1977 H         1 A37         0.0624
     24 H2         46.7815   -8.1108   21.7769 H         1 A37         0.0623
     25 H3         47.4896   -3.8000   21.9201 H         1 A37         0.0643
     26 H4         51.8750   -4.0607   24.1535 H         1 A37         0.2362
     27 H5         46.7010   -1.3365   26.7170 H         1 A37         0.0517
     28 H6         49.0380   -1.0211   30.4063 H         1 A37         0.0516
     29 H7         51.0376   -2.0580   29.2558 H         1 A37         0.0546
@<TRIPOS>BOND
     1    1    2 ar 
     2    1    6 ar 
     3    2    3 ar 
     4    3    4 ar 
     5    3   21 1  
     6    4    5 ar 
     7    5    6 ar 
     8    5    7 1  
     9    6   22 1  
    10    7    8 2  
    11    7    9 2  
    12    7   10 am 
    13   10   11 1  
    14   11   12 2  
    15   11   20 1  
    16   12   13 1  
    17   13   14 ar 
    18   13   19 ar 
    19   14   15 ar 
    20   15   16 1  
    21   15   17 ar 
    22   17   18 ar 
    23   18   19 ar 
    24   19   20 1  
    25    1   23 1  
    26    2   24 1  
    27    4   25 1  
    28   10   26 1  
    29   14   27 1  
    30   17   28 1  
    31   18   29 1  
@<TRIPOS>SUBSTRUCTURE
     1 A37         1

