### 
### Created by X-TOOL on Mon Sep 10 21:12:55 2018
### 

@<TRIPOS>MOLECULE
2fie_ligand
   46    49     1     0     0
SMALL
GAST_HUCK


@<TRIPOS>ATOM
      1 C          -0.7080   39.5920   33.5070 C.ar      1 A74        -0.0454
      2 C1         -0.1270   38.3980   32.9860 C.ar      1 A74        -0.0472
      3 C2          0.2450   37.3480   33.8660 C.ar      1 A74         0.0424
      4 C3          0.0460   37.4660   35.2650 C.ar      1 A74        -0.0200
      5 C4         -0.5350   38.6560   35.8050 C.ar      1 A74         0.1303
      6 C5         -0.9140   39.7270   34.9130 C.ar      1 A74         0.0677
      7 S          -0.7500   38.7150   37.5870 S.o2      1 A74         0.1002
      8 O1         -0.3080   37.4780   38.1790 O.2       1 A74        -0.1429
      9 O2         -2.1280   39.1030   37.8160 O.2       1 A74        -0.1429
     10 N           0.1660   39.8660   38.2300 N.am      1 A74        -0.1241
     11 C6          1.6050   39.7210   38.5770 C.2       1 A74         0.2958
     12 N1          2.4290   38.6100   38.4170 N.2       1 A74        -0.3090
     13 C7          3.6660   39.0140   38.9070 C.ar      1 A74         0.0118
     14 C8          4.8460   38.3000   38.9870 C.ar      1 A74        -0.0413
     15 C9          6.0150   38.9240   39.5420 C.ar      1 A74         0.0717
     16 C10         5.9250   40.2800   39.9920 C.ar      1 A74        -0.0403
     17 C11         4.7190   41.0200   39.9170 C.ar      1 A74         0.0042
     18 C12         3.5260   40.3430   39.3330 C.ar      1 A74         0.1335
     19 O3          2.2720   40.7830   39.1380 O.3       1 A74        -0.2041
     20 CL2         0.9520   35.9010   33.2150 Cl        1 A74        -0.0704
     21 CL1        -1.6390   41.2170   35.4730 Cl        1 A74        -0.0684
     22 O4          7.2180   38.1610   39.6270 O.3       1 A74        -0.3298
     23 C13         7.2520   36.8280   39.1060 C.3       1 A74         0.0571
     24 C14         3.4120   44.5560   40.8660 C.ar      1 A74        -0.0047
     25 C15         4.5790   45.1260   41.3810 C.ar      1 A74         0.1641
     26 N2          5.7450   44.4170   41.4250 N.ar      1 A74        -0.2736
     27 C16         5.7940   43.1270   40.9650 C.ar      1 A74         0.0059
     28 C17         4.6610   42.4640   40.4210 C.ar      1 A74        -0.0073
     29 C18         3.4670   43.2250   40.3890 C.ar      1 A74        -0.0452
     30 O5          4.5010   46.4310   41.8410 O.3       1 A74        -0.3022
     31 C19         5.5610   47.2700   41.3770 C.3       1 A74         0.0631
     32 H1         -0.9924   40.3950   32.8367 H         1 A74         0.0624
     33 H2          0.0304   38.2924   31.9187 H         1 A74         0.0623
     34 H3          0.3339   36.6552   35.9244 H         1 A74         0.0643
     35 H4         -0.2648   40.7500   38.4115 H         1 A74         0.2359
     36 H5          4.8895   37.2762   38.6335 H         1 A74         0.0421
     37 H6          6.8078   40.7559   40.4033 H         1 A74         0.0447
     38 H7          8.2536   36.3998   39.2594 H         1 A74         0.0573
     39 H8          7.0230   36.8488   38.0303 H         1 A74         0.0573
     40 H9          6.5057   36.2111   39.6280 H         1 A74         0.0573
     41 H10         2.4868   45.1198   40.8327 H         1 A74         0.0636
     42 H11         6.7347   42.5910   41.0183 H         1 A74         0.0787
     43 H12         2.5673   42.7738   39.9866 H         1 A74         0.0702
     44 H13         5.4302   48.2841   41.7825 H         1 A74         0.0584
     45 H14         5.5430   47.3095   40.2779 H         1 A74         0.0584
     46 H15         6.5256   46.8622   41.7136 H         1 A74         0.0584
@<TRIPOS>BOND
     1    1    2 ar 
     2    6    1 ar 
     3    3    2 ar 
     4    4    3 ar 
     5    3   20 1  
     6    5    4 ar 
     7    5    6 ar 
     8    7    5 1  
     9    6   21 1  
    10    7    8 2  
    11    7    9 2  
    12   10    7 am 
    13   11   10 1  
    14   11   12 2  
    15   19   11 1  
    16   13   12 1  
    17   13   14 ar 
    18   18   13 ar 
    19   15   14 ar 
    20   16   15 ar 
    21   15   22 1  
    22   17   16 ar 
    23   17   18 ar 
    24   28   17 1  
    25   18   19 1  
    26   22   23 1  
    27   25   24 ar 
    28   24   29 ar 
    29   26   25 ar 
    30   25   30 1  
    31   27   26 ar 
    32   27   28 ar 
    33   28   29 ar 
    34   30   31 1  
    35    1   32 1  
    36    2   33 1  
    37    4   34 1  
    38   10   35 1  
    39   14   36 1  
    40   16   37 1  
    41   23   38 1  
    42   23   39 1  
    43   23   40 1  
    44   24   41 1  
    45   27   42 1  
    46   29   43 1  
    47   31   44 1  
    48   31   45 1  
    49   31   46 1  
@<TRIPOS>SUBSTRUCTURE
     1 A74         1

