### 
### Created by X-TOOL on Mon Sep 10 21:12:55 2018
### 

@<TRIPOS>MOLECULE
2fix_ligand
   45    48     1     0     0
SMALL
GAST_HUCK


@<TRIPOS>ATOM
      1 C          49.4390   -7.4190   22.7650 C.ar      1 870        -0.0454
      2 C1         48.0420   -7.1840   22.8550 C.ar      1 870        -0.0472
      3 C2         47.5550   -5.8640   22.9660 C.ar      1 870         0.0424
      4 C3         48.4120   -4.7910   22.9920 C.ar      1 870        -0.0200
      5 C4         49.8130   -4.9770   22.9110 C.ar      1 870         0.1303
      6 C5         50.3380   -6.3120   22.7940 C.ar      1 870         0.0677
      7 S          50.8060   -3.5230   22.9680 S.o2      1 870         0.1002
      8 O1         49.9390   -2.3670   23.0470 O.2       1 870        -0.1429
      9 O2         51.7180   -3.5610   21.8490 O.2       1 870        -0.1429
     10 N          51.7010   -3.5390   24.3350 N.am      1 870        -0.1241
     11 C6         51.1820   -3.1360   25.6750 C.2       1 870         0.2960
     12 N1         49.8940   -2.7300   25.9710 N.2       1 870        -0.3088
     13 C7         49.9070   -2.4390   27.2980 C.ar      1 870         0.0127
     14 C8         48.8500   -1.9780   28.0470 C.ar      1 870        -0.0405
     15 C9         49.0250   -1.7080   29.3950 C.ar      1 870         0.0725
     16 C10        50.3060   -1.9100   29.9990 C.ar      1 870        -0.0396
     17 C11        51.4080   -2.3850   29.2420 C.ar      1 870         0.0006
     18 C12        51.1850   -2.6730   27.7860 C.ar      1 870         0.1342
     19 O3         51.9820   -3.1070   26.7990 O.3       1 870        -0.2036
     20 CL2        45.8710   -5.5850   23.0720 Cl        1 870        -0.0704
     21 CL1        52.0490   -6.6450   22.6780 Cl        1 870        -0.0684
     22 O4         47.8850   -1.2230   30.0570 O.3       1 870        -0.3296
     23 C13        48.0420   -0.7980   31.3970 C.3       1 870         0.0571
     24 C14        55.1920   -3.2130   29.8120 C.ar      1 870        -0.0741
     25 C15        55.3750   -2.8770   31.1680 C.ar      1 870        -0.0457
     26 C19        54.2940   -2.3830   31.9210 C.ar      1 870         0.0341
     27 C16        53.0110   -2.2290   31.3160 C.ar      1 870        -0.0400
     28 C17        52.7990   -2.5630   29.9350 C.ar      1 870        -0.0360
     29 C18        53.9230   -3.0510   29.2150 C.ar      1 870        -0.0696
     30 N2         54.4710   -2.0590   33.2240 N.pl3     1 870        -0.3373
     31 H1         49.8190   -8.4302   22.6751 H         1 870         0.0624
     32 H2         47.3496   -8.0179   22.8385 H         1 870         0.0623
     33 H3         48.0100   -3.7878   23.0757 H         1 870         0.0643
     34 H4         52.6535   -3.8366   24.2698 H         1 870         0.2360
     35 H5         47.8817   -1.8261   27.5840 H         1 870         0.0428
     36 H6         50.4370   -1.6964   31.0536 H         1 870         0.0455
     37 H7         47.0750   -0.4460   31.7857 H         1 870         0.0573
     38 H8         48.7741    0.0219   31.4383 H         1 870         0.0573
     39 H9         48.3988   -1.6394   32.0091 H         1 870         0.0573
     40 H10        56.0226   -3.5945   29.2292 H         1 870         0.0581
     41 H11        56.3477   -2.9990   31.6307 H         1 870         0.0508
     42 H12        52.1835   -1.8542   31.9075 H         1 870         0.0504
     43 H13        53.8014   -3.3083   28.1690 H         1 870         0.0502
     44 H14        55.3970   -2.1700   33.6611 H         1 870         0.1717
     45 H15        53.6796   -1.7016   33.7779 H         1 870         0.1717
@<TRIPOS>BOND
     1    1    2 ar 
     2    6    1 ar 
     3    3    2 ar 
     4    4    3 ar 
     5    3   20 1  
     6    5    4 ar 
     7    5    6 ar 
     8    7    5 1  
     9    6   21 1  
    10    7    8 2  
    11    7    9 2  
    12   10    7 am 
    13   11   10 1  
    14   11   12 2  
    15   19   11 1  
    16   13   12 1  
    17   13   14 ar 
    18   18   13 ar 
    19   15   14 ar 
    20   16   15 ar 
    21   15   22 1  
    22   17   16 ar 
    23   17   18 ar 
    24   28   17 1  
    25   18   19 1  
    26   22   23 1  
    27   25   24 ar 
    28   24   29 ar 
    29   26   25 ar 
    30   27   26 ar 
    31   26   30 1  
    32   27   28 ar 
    33   28   29 ar 
    34    1   31 1  
    35    2   32 1  
    36    4   33 1  
    37   10   34 1  
    38   14   35 1  
    39   16   36 1  
    40   23   37 1  
    41   23   38 1  
    42   23   39 1  
    43   24   40 1  
    44   25   41 1  
    45   27   42 1  
    46   29   43 1  
    47   30   44 1  
    48   30   45 1  
@<TRIPOS>SUBSTRUCTURE
     1 870         1

