### 
### Created by X-TOOL on Mon Sep 10 21:12:54 2018
### 

@<TRIPOS>MOLECULE
2fj0_ligand
   37    36     1     0     0
SMALL
GAST_HUCK


@<TRIPOS>ATOM
      1 C1         35.3740   48.8220   76.9990 C.3       1 TFC        -0.0653
      2 C2         35.5220   49.9570   75.9790 C.3       1 TFC        -0.0559
      3 C3         34.7200   49.6510   74.7150 C.3       1 TFC        -0.0533
      4 C4         34.7440   50.8190   73.7290 C.3       1 TFC        -0.0531
      5 C5         33.9090   50.4980   72.4840 C.3       1 TFC        -0.0530
      6 C6         34.5670   49.3710   71.6880 C.3       1 TFC        -0.0523
      7 C7         33.6600   48.7890   70.6010 C.3       1 TFC        -0.0440
      8 C8         33.3130   49.7870   69.4930 C.3       1 TFC        -0.0062
      9 S1         32.5630   48.9280   68.0640 S.3       1 TFC        -0.1579
     10 C9         31.6060   50.2850   67.3000 C.3       1 TFC         0.0282
     11 C10        30.2610   49.8280   66.7270 C.3       1 TFC         0.1587
     12 O1         30.4970   48.7140   65.8590 O.3       1 TFC        -0.3821
     13 C11        29.1990   49.4580   67.7700 C.3       1 TFC         0.4161
     14 F1         28.0620   49.1600   67.1500 F         1 TFC        -0.1679
     15 F2         28.9490   50.4840   68.5780 F         1 TFC        -0.1679
     16 F3         29.5680   48.4150   68.5080 F         1 TFC        -0.1679
     17 H1         35.9577   49.0607   77.9003 H         1 TFC         0.0230
     18 H2         35.7445   47.8839   76.5601 H         1 TFC         0.0230
     19 H3         34.3137   48.7072   77.2685 H         1 TFC         0.0230
     20 H4         36.5839   50.0699   75.7150 H         1 TFC         0.0263
     21 H5         35.1531   50.8931   76.4235 H         1 TFC         0.0263
     22 H6         33.6769   49.4446   74.9967 H         1 TFC         0.0265
     23 H7         35.1502   48.7643   74.2266 H         1 TFC         0.0265
     24 H8         35.7833   51.0136   73.4257 H         1 TFC         0.0265
     25 H9         34.3314   51.7132   74.2191 H         1 TFC         0.0265
     26 H10        33.8370   51.3958   71.8525 H         1 TFC         0.0265
     27 H11        32.9007   50.1850   72.7927 H         1 TFC         0.0265
     28 H12        34.8393   48.5643   72.3845 H         1 TFC         0.0266
     29 H13        35.4759   49.7654   71.2102 H         1 TFC         0.0266
     30 H14        32.7244   48.4531   71.0719 H         1 TFC         0.0273
     31 H15        34.1712   47.9279   70.1458 H         1 TFC         0.0273
     32 H16        34.2307   50.2980   69.1665 H         1 TFC         0.0376
     33 H17        32.6001   50.5278   69.8841 H         1 TFC         0.0376
     34 H18        32.2039   50.7184   66.4847 H         1 TFC         0.0404
     35 H19        31.4172   51.0530   68.0646 H         1 TFC         0.0404
     36 H20        29.8560   50.6584   66.1301 H         1 TFC         0.0692
     37 H21        31.0779   48.9794   65.1557 H         1 TFC         0.2102
@<TRIPOS>BOND
     1    1    2 1  
     2    2    3 1  
     3    3    4 1  
     4    4    5 1  
     5    5    6 1  
     6    6    7 1  
     7    7    8 1  
     8    8    9 1  
     9    9   10 1  
    10   10   11 1  
    11   11   12 1  
    12   11   13 1  
    13   13   14 1  
    14   13   15 1  
    15   13   16 1  
    16    1   17 1  
    17    1   18 1  
    18    1   19 1  
    19    2   20 1  
    20    2   21 1  
    21    3   22 1  
    22    3   23 1  
    23    4   24 1  
    24    4   25 1  
    25    5   26 1  
    26    5   27 1  
    27    6   28 1  
    28    6   29 1  
    29    7   30 1  
    30    7   31 1  
    31    8   32 1  
    32    8   33 1  
    33   10   34 1  
    34   10   35 1  
    35   11   36 1  
    36   12   37 1  
@<TRIPOS>SUBSTRUCTURE
     1 TFC         1

