### 
### Created by X-TOOL on Mon Sep 10 21:12:54 2018
### 

@<TRIPOS>MOLECULE
2fjp_ligand
   57    60     1     0     0
SMALL
GAST_HUCK


@<TRIPOS>ATOM
      1 C1         47.5750   52.1530   33.8220 C.2       1 S14         0.1633
      2 C2         46.4920   52.6560   32.9590 C.2       1 S14        -0.0079
      3 C3         45.1990   52.4720   33.3700 C.2       1 S14        -0.0469
      4 C4         44.8740   51.8040   34.6720 C.2       1 S14         0.0243
      5 C5         45.8940   51.3480   35.4530 C.2       1 S14         0.1141
      6 N6         47.2840   51.5540   35.0120 N.pl3     1 S14        -0.1297
      7 N7         48.3290   51.2050   35.5900 N.2       1 S14        -0.1839
      8 C8         49.3290   51.6060   34.7910 C.2       1 S14         0.0437
      9 N9         48.9020   52.2150   33.6670 N.2       1 S14        -0.3104
     10 C14        43.4820   51.6330   35.1370 C.ar      1 S14        -0.0250
     11 C15        42.5980   52.7380   35.0280 C.ar      1 S14        -0.0628
     12 C16        41.2820   52.6580   35.4820 C.ar      1 S14        -0.0585
     13 C17        40.7780   51.4710   36.0630 C.ar      1 S14        -0.0148
     14 C18        41.6620   50.3360   36.1660 C.ar      1 S14        -0.0585
     15 C19        43.0040   50.4110   35.7080 C.ar      1 S14        -0.0628
     16 C24        39.3180   51.4860   36.5720 C.3       1 S14         0.1409
     17 C25        38.3460   50.9900   35.4420 C.3       1 S14         0.0938
     18 C26        36.8970   51.0300   36.0240 C.2       1 S14         0.2317
     19 N27        36.1220   49.9680   35.7960 N.am      1 S14        -0.2655
     20 C28        39.2940   50.4530   37.7980 C.2       1 S14         0.2004
     21 N30        38.4220   51.8230   34.2480 N.4       1 S14         0.2413
     22 O32        36.5100   51.9960   36.6630 O.2       1 S14        -0.3903
     23 O33        38.6650   49.3860   37.8000 O.2       1 S14        -0.3932
     24 N34        39.9030   50.9550   38.9830 N.am      1 S14        -0.2772
     25 C35        39.8980   50.0390   40.1500 C.3       1 S14         0.0224
     26 C39        40.5090   52.2830   39.1860 C.3       1 S14         0.0224
     27 C43        36.5690   48.5480   35.4690 C.3       1 S14         0.0652
     28 C44        35.3620   47.6860   35.5160 C.3       1 S14         0.1230
     29 C45        34.1870   48.6370   35.5250 C.3       1 S14         0.0007
     30 C46        34.6860   50.0130   35.9680 C.3       1 S14         0.0369
     31 F53        35.3670   47.0210   36.7240 F         1 S14        -0.2433
     32 H1         46.7139   53.1604   32.0197 H         1 S14         0.0599
     33 H2         44.3858   52.8199   32.7347 H         1 S14         0.0685
     34 H3         45.6836   50.8376   36.3917 H         1 S14         0.1286
     35 H4         50.3813   51.4546   35.0270 H         1 S14         0.0862
     36 H5         42.9524   53.6611   34.5837 H         1 S14         0.0587
     37 H6         40.6333   53.5214   35.3879 H         1 S14         0.0559
     38 H7         41.2965   49.4121   36.5994 H         1 S14         0.0559
     39 H8         43.6595   49.5516   35.7900 H         1 S14         0.0587
     40 H9         39.0276   52.4946   36.9011 H         1 S14         0.0778
     41 H10        38.6066   49.9569   35.1685 H         1 S14         0.1151
     42 H11        37.7846   51.4704   33.5512 H         1 S14         0.2018
     43 H12        39.3618   51.8037   33.8841 H         1 S14         0.2018
     44 H13        38.1720   52.7708   34.4830 H         1 S14         0.2018
     45 H14        40.3913   50.5287   41.0026 H         1 S14         0.0486
     46 H15        40.4390   49.1161   39.8941 H         1 S14         0.0486
     47 H16        38.8601   49.7931   40.4187 H         1 S14         0.0486
     48 H17        40.4491   52.8601   38.2514 H         1 S14         0.0486
     49 H18        41.5632   52.1644   39.4768 H         1 S14         0.0486
     50 H19        39.9669   52.8158   39.9812 H         1 S14         0.0486
     51 H20        37.3061   48.2049   36.2099 H         1 S14         0.0551
     52 H21        37.0163   48.5156   34.4646 H         1 S14         0.0551
     53 H22        35.3213   46.9862   34.6683 H         1 S14         0.0672
     54 H23        33.4212   48.2754   36.2270 H         1 S14         0.0313
     55 H24        33.7559   48.7051   34.5153 H         1 S14         0.0313
     56 H25        34.2468   50.8030   35.3411 H         1 S14         0.0523
     57 H26        34.4290   50.1958   37.0218 H         1 S14         0.0523
@<TRIPOS>BOND
     1    1    2 1  
     2    1    6 1  
     3    1    9 2  
     4    2    3 2  
     5    3    4 1  
     6    4    5 2  
     7    4   10 1  
     8    5    6 1  
     9    6    7 1  
    10    7    8 2  
    11    8    9 1  
    12   10   11 ar 
    13   10   15 ar 
    14   11   12 ar 
    15   12   13 ar 
    16   13   14 ar 
    17   13   16 1  
    18   14   15 ar 
    19   16   17 1  
    20   16   20 1  
    21   17   18 1  
    22   17   21 1  
    23   18   19 am 
    24   18   22 2  
    25   19   27 1  
    26   19   30 1  
    27   20   23 2  
    28   20   24 am 
    29   24   25 1  
    30   24   26 1  
    31   27   28 1  
    32   28   29 1  
    33   28   31 1  
    34   29   30 1  
    35    2   32 1  
    36    3   33 1  
    37    5   34 1  
    38    8   35 1  
    39   11   36 1  
    40   12   37 1  
    41   14   38 1  
    42   15   39 1  
    43   16   40 1  
    44   17   41 1  
    45   21   42 1  
    46   21   43 1  
    47   21   44 1  
    48   25   45 1  
    49   25   46 1  
    50   25   47 1  
    51   26   48 1  
    52   26   49 1  
    53   26   50 1  
    54   27   51 1  
    55   27   52 1  
    56   28   53 1  
    57   29   54 1  
    58   29   55 1  
    59   30   56 1  
    60   30   57 1  
@<TRIPOS>SUBSTRUCTURE
     1 S14         1

