### 
### Created by X-TOOL on Mon Sep 10 21:12:55 2018
### 

@<TRIPOS>MOLECULE
2fky_ligand
   55    58     1     0     0
SMALL
GAST_HUCK


@<TRIPOS>ATOM
      1 C1         22.0270   16.3490  105.6450 C.ar      1 N2T         0.1246
      2 C2         20.9050   16.1340  106.4990 C.ar      1 N2T        -0.0276
      3 C3         20.9060   14.9220  107.2920 C.ar      1 N2T         0.0029
      4 C4         22.0270   14.0560  107.1950 C.ar      1 N2T         0.1316
      5 C5         23.1530   14.2680  106.3120 C.ar      1 N2T        -0.0328
      6 C6         23.1200   15.4480  105.5060 C.ar      1 N2T        -0.0335
      7 C10        19.7310   14.6070  108.1400 C.2       1 N2T        -0.0248
      8 C11        18.5190   15.4940  108.1760 C.3       1 N2T         0.0637
      9 N12        17.7860   15.0500  109.3940 N.am      1 N2T        -0.2276
     10 C13        18.4430   13.9430  110.0540 C.3       1 N2T         0.1017
     11 C14        19.5280   13.5160  109.1100 C.2       1 N2T        -0.0463
     12 C17        18.3550   13.5460  111.4860 C.ar      1 N2T        -0.0082
     13 C19        17.4590   12.4730  111.9060 C.ar      1 N2T        -0.0562
     14 C20        17.4300   12.0460  113.2920 C.ar      1 N2T        -0.0681
     15 C21        18.3150   12.7240  114.2380 C.ar      1 N2T        -0.0685
     16 C22        19.2300   13.7900  113.8460 C.ar      1 N2T        -0.0681
     17 C23        19.2250   14.2150  112.4450 C.ar      1 N2T        -0.0562
     18 C8         16.5380   15.5200  109.6260 C.2       1 N2T         0.2680
     19 N1         16.4810   16.8900  109.7040 N.am      1 N2T        -0.2586
     20 C35        15.3550   17.7300  109.4030 C.3       1 N2T         0.0547
     21 F40        21.9500   12.9980  107.9800 F         1 N2T        -0.1877
     22 F41        22.0560   17.4310  104.9330 F         1 N2T        -0.1879
     23 O2         15.5810   14.7580  109.7290 O.2       1 N2T        -0.4001
     24 C15        14.1030   17.3760  110.2070 C.3       1 N2T         0.0106
     25 C26        17.6490   17.6700  110.1070 C.3       1 N2T         0.0232
     26 C12        14.9520   17.6680  107.9380 C.3       1 N2T         0.0106
     27 C9         12.9200   18.2980  109.9040 C.3       1 N2T        -0.0316
     28 C16        13.7960   18.6170  107.5940 C.3       1 N2T        -0.0316
     29 N2         12.6390   18.2580  108.4360 N.4       1 N2T         0.2271
     30 H1         20.0887   16.8453  106.5521 H         1 N2T         0.0562
     31 H2         23.9793   13.5680  106.2640 H         1 N2T         0.0584
     32 H3         23.9158   15.6537  104.7992 H         1 N2T         0.0566
     33 H4         17.9034   15.3523  107.2755 H         1 N2T         0.0646
     34 H5         18.8103   16.5515  108.2584 H         1 N2T         0.0646
     35 H6         17.7087   13.1808  109.7541 H         1 N2T         0.0869
     36 H7         20.0680   12.5707  109.1366 H         1 N2T         0.0561
     37 H8         16.8129   11.9935  111.1795 H         1 N2T         0.0561
     38 H9         16.7719   11.2481  113.6167 H         1 N2T         0.0600
     39 H10        18.2899   12.4205  115.2783 H         1 N2T         0.0560
     40 H11        19.8924   14.2527  114.5687 H         1 N2T         0.0600
     41 H12        19.8674   15.0260  112.1215 H         1 N2T         0.0561
     42 H13        15.6447   18.7633  109.6446 H         1 N2T         0.0559
     43 H14        14.3410   17.4511  111.2783 H         1 N2T         0.0339
     44 H15        13.8127   16.3424  109.9674 H         1 N2T         0.0339
     45 H16        18.4854   16.9904  110.3275 H         1 N2T         0.0483
     46 H17        17.4062   18.2562  111.0055 H         1 N2T         0.0483
     47 H18        17.9348   18.3505  109.2913 H         1 N2T         0.0483
     48 H19        14.6427   16.6390  107.7026 H         1 N2T         0.0339
     49 H20        15.8228   17.9389  107.3230 H         1 N2T         0.0339
     50 H21        13.1670   19.3268  110.2048 H         1 N2T         0.0814
     51 H22        12.0339   17.9564  110.4590 H         1 N2T         0.0814
     52 H23        13.5306   18.5110  106.5318 H         1 N2T         0.0814
     53 H24        14.0948   19.6563  107.7954 H         1 N2T         0.0814
     54 H25        11.8908   18.9040  108.2387 H         1 N2T         0.2013
     55 H26        12.3487   17.3235  108.1941 H         1 N2T         0.2013
@<TRIPOS>BOND
     1    1    2 ar 
     2    1    6 ar 
     3    1   22 1  
     4    2    3 ar 
     5    3    4 ar 
     6    3    7 1  
     7    4    5 ar 
     8    4   21 1  
     9    5    6 ar 
    10    7    8 1  
    11    7   11 2  
    12    8    9 1  
    13    9   10 1  
    14    9   18 am 
    15   10   11 1  
    16   10   12 1  
    17   12   13 ar 
    18   12   17 ar 
    19   13   14 ar 
    20   14   15 ar 
    21   15   16 ar 
    22   16   17 ar 
    23   18   19 am 
    24   18   23 2  
    25   19   20 1  
    26   19   25 1  
    27   20   24 1  
    28   20   26 1  
    29   24   27 1  
    30   26   28 1  
    31   27   29 1  
    32   28   29 1  
    33    2   30 1  
    34    5   31 1  
    35    6   32 1  
    36    8   33 1  
    37    8   34 1  
    38   10   35 1  
    39   11   36 1  
    40   13   37 1  
    41   14   38 1  
    42   15   39 1  
    43   16   40 1  
    44   17   41 1  
    45   20   42 1  
    46   24   43 1  
    47   24   44 1  
    48   25   45 1  
    49   25   46 1  
    50   25   47 1  
    51   26   48 1  
    52   26   49 1  
    53   27   50 1  
    54   27   51 1  
    55   28   52 1  
    56   28   53 1  
    57   29   54 1  
    58   29   55 1  
@<TRIPOS>SUBSTRUCTURE
     1 N2T         1

