### 
### Created by X-TOOL on Mon Sep 10 21:12:55 2018
### 

@<TRIPOS>MOLECULE
2fl2_ligand
   47    50     1     0     0
SMALL
GAST_HUCK


@<TRIPOS>ATOM
      1 C1         21.9820   16.3790  105.5390 C.ar      1 N4T         0.1246
      2 C2         20.7930   16.1550  106.2310 C.ar      1 N4T        -0.0276
      3 C3         20.7620   15.0560  107.1100 C.ar      1 N4T         0.0029
      4 C4         21.9300   14.2420  107.2160 C.ar      1 N4T         0.1316
      5 C5         23.1200   14.4700  106.4990 C.ar      1 N4T        -0.0328
      6 C6         23.1290   15.5560  105.6310 C.ar      1 N4T        -0.0335
      7 C10        19.5130   14.8220  107.8570 C.2       1 N4T        -0.0246
      8 C11        18.4410   15.8970  108.1650 C.3       1 N4T         0.0636
      9 N12        17.3760   15.1410  108.8260 N.am      1 N4T        -0.2368
     10 C13        17.9070   13.8440  109.2640 C.3       1 N4T         0.1015
     11 C14        18.9770   13.6680  108.3700 C.2       1 N4T        -0.0460
     12 C17        17.8880   13.4670  110.7040 C.ar      1 N4T        -0.0080
     13 C19        16.9850   12.4780  111.2750 C.ar      1 N4T        -0.0561
     14 C20        17.0270   12.2270  112.6810 C.ar      1 N4T        -0.0681
     15 C21        17.9770   12.9350  113.4740 C.ar      1 N4T        -0.0685
     16 C22        18.8290   13.9340  112.9340 C.ar      1 N4T        -0.0681
     17 C23        18.7820   14.2040  111.5690 C.ar      1 N4T        -0.0561
     18 C8         16.1210   15.4850  109.2350 C.2       1 N4T         0.2326
     19 C7         15.5870   16.9060  109.1450 C.3       1 N4T         0.0684
     20 C35        15.9790   17.7510  110.1300 C.3       1 N4T         0.0195
     21 F40        21.9010   13.1620  108.0260 F         1 N4T        -0.1877
     22 F41        22.0090   17.5080  104.8360 F         1 N4T        -0.1879
     23 O2         15.2570   14.7100  109.6430 O.2       1 N4T        -0.3902
     24 C15        15.7780   19.1940  109.9750 C.3       1 N4T        -0.0423
     25 N1         14.3210   16.9890  108.4370 N.4       1 N4T         0.2381
     26 C12        17.1300   18.6460  110.1420 C.3       1 N4T        -0.0423
     27 H1         19.9307   16.7984  106.0982 H         1 N4T         0.0562
     28 H2         23.9868   13.8301  106.6179 H         1 N4T         0.0584
     29 H3         24.0060   15.7700  105.0308 H         1 N4T         0.0566
     30 H4         18.0748   16.3633  107.2385 H         1 N4T         0.0649
     31 H5         18.8436   16.6735  108.8320 H         1 N4T         0.0649
     32 H6         17.1664   13.1219  108.8898 H         1 N4T         0.0872
     33 H7         19.3551   12.6824  108.1026 H         1 N4T         0.0562
     34 H8         16.2897   11.9390  110.6416 H         1 N4T         0.0561
     35 H9         16.3502   11.5126  113.1356 H         1 N4T         0.0600
     36 H10        18.0516   12.7015  114.5299 H         1 N4T         0.0560
     37 H11        19.5088   14.4807  113.5775 H         1 N4T         0.0600
     38 H12        19.4211   14.9734  111.1511 H         1 N4T         0.0561
     39 H13        16.2359   17.3010  108.3494 H         1 N4T         0.1101
     40 H14        15.7166   17.2729  111.0853 H         1 N4T         0.0381
     41 H15        15.3154   19.7762  110.7856 H         1 N4T         0.0271
     42 H16        15.4664   19.6058  109.0038 H         1 N4T         0.0271
     43 H17        14.2688   16.2493  107.7542 H         1 N4T         0.2015
     44 H18        14.2539   17.8808  107.9720 H         1 N4T         0.2015
     45 H19        13.5620   16.8944  109.0935 H         1 N4T         0.2015
     46 H20        17.8328   18.6491  109.2958 H         1 N4T         0.0271
     47 H21        17.6818   18.8195  111.0776 H         1 N4T         0.0271
@<TRIPOS>BOND
     1    1    2 ar 
     2    1    6 ar 
     3    1   22 1  
     4    2    3 ar 
     5    3    4 ar 
     6    3    7 1  
     7    4    5 ar 
     8    4   21 1  
     9    5    6 ar 
    10    7    8 1  
    11    7   11 2  
    12    8    9 1  
    13    9   10 1  
    14    9   18 am 
    15   10   11 1  
    16   10   12 1  
    17   12   13 ar 
    18   12   17 ar 
    19   13   14 ar 
    20   14   15 ar 
    21   15   16 ar 
    22   16   17 ar 
    23   18   19 1  
    24   18   23 2  
    25   19   20 1  
    26   19   25 1  
    27   20   24 1  
    28   20   26 1  
    29   24   26 1  
    30    2   27 1  
    31    5   28 1  
    32    6   29 1  
    33    8   30 1  
    34    8   31 1  
    35   10   32 1  
    36   11   33 1  
    37   13   34 1  
    38   14   35 1  
    39   15   36 1  
    40   16   37 1  
    41   17   38 1  
    42   19   39 1  
    43   20   40 1  
    44   24   41 1  
    45   24   42 1  
    46   25   43 1  
    47   25   44 1  
    48   25   45 1  
    49   26   46 1  
    50   26   47 1  
@<TRIPOS>SUBSTRUCTURE
     1 N4T         1

