### 
### Created by X-TOOL on Mon Sep 10 21:12:55 2018
### 

@<TRIPOS>MOLECULE
2fl5_ligand
   47    49     1     0     0
SMALL
GAST_HUCK


@<TRIPOS>ATOM
      1 N1         55.3470   86.2940   76.9890 N.2       1 RBF        -0.2549
      2 C2         54.1710   85.7120   77.4570 C.2       1 RBF         0.2439
      3 O2         53.2240   85.6970   76.7120 O.2       1 RBF        -0.3902
      4 N3         54.2310   85.2080   78.7210 N.am      1 RBF        -0.1938
      5 C4         55.3130   85.2050   79.6210 C.2       1 RBF         0.2704
      6 O4         55.2190   84.7280   80.7030 O.2       1 RBF        -0.3655
      7 C4A        56.5650   85.8470   79.0780 C.2       1 RBF         0.2076
      8 N5         57.6290   85.9100   79.8560 N.2       1 RBF        -0.2387
      9 C5A        58.7990   86.5200   79.3590 C.ar      1 RBF         0.0856
     10 C6         59.9100   86.5580   80.2830 C.ar      1 RBF        -0.0403
     11 C7         61.0640   87.1720   79.8080 C.ar      1 RBF        -0.0428
     12 C7M        62.3380   87.2990   80.6640 C.3       1 RBF        -0.0352
     13 C8         61.1000   87.7340   78.4540 C.ar      1 RBF        -0.0416
     14 C8M        62.4210   88.4110   77.9750 C.3       1 RBF        -0.0312
     15 C9         60.0530   87.7190   77.5320 C.ar      1 RBF        -0.0258
     16 C9A        58.8590   87.0890   78.0360 C.ar      1 RBF         0.1048
     17 N10        57.6270   86.9800   77.2060 N.pl3     1 RBF        -0.2138
     18 C10        56.5180   86.3880   77.7500 C.2       1 RBF         0.1894
     19 C1         57.6310   87.5520   75.8220 C.3       1 RBF         0.0886
     20 C2         57.9190   86.3770   74.8630 C.3       1 RBF         0.1101
     21 O2         59.2980   85.9680   75.0170 O.3       1 RBF        -0.3865
     22 C3         57.9340   86.6940   73.4380 C.3       1 RBF         0.1114
     23 O3         58.8890   87.7170   73.1710 O.3       1 RBF        -0.3865
     24 C4         56.6290   87.1310   72.8590 C.3       1 RBF         0.1065
     25 O4         55.4910   86.2730   73.0180 O.3       1 RBF        -0.3869
     26 C5         56.9980   87.3450   71.3370 C.3       1 RBF         0.0727
     27 O5         56.7710   86.0860   70.6740 O.3       1 RBF        -0.3924
     28 H1         53.3907   84.7814   79.0555 H         1 RBF         0.2248
     29 H2         59.8479   86.1361   81.2796 H         1 RBF         0.0564
     30 H3         62.1666   86.8368   81.6474 H         1 RBF         0.0366
     31 H4         62.5860   88.3624   80.7969 H         1 RBF         0.0366
     32 H5         63.1714   86.7885   80.1592 H         1 RBF         0.0366
     33 H6         62.2918   88.7805   76.9470 H         1 RBF         0.0395
     34 H7         63.2396   87.6766   78.0005 H         1 RBF         0.0395
     35 H8         62.6632   89.2534   78.6396 H         1 RBF         0.0395
     36 H9         60.1300   88.1394   76.5358 H         1 RBF         0.0493
     37 H10        58.4146   88.3185   75.7298 H         1 RBF         0.0631
     38 H11        56.6523   87.9986   75.5925 H         1 RBF         0.0631
     39 H12        57.2128   85.5609   75.0755 H         1 RBF         0.0647
     40 H13        59.4802   85.2448   74.4286 H         1 RBF         0.2100
     41 H14        58.2413   85.7802   72.9084 H         1 RBF         0.0647
     42 H15        59.7522   87.4189   73.4327 H         1 RBF         0.2100
     43 H16        56.3567   88.0956   73.3122 H         1 RBF         0.0643
     44 H17        55.6696   85.4333   72.6112 H         1 RBF         0.2100
     45 H18        58.0536   87.6390   71.2407 H         1 RBF         0.0584
     46 H19        56.3586   88.1250   70.8981 H         1 RBF         0.0584
     47 H20        55.8585   85.8392   70.7693 H         1 RBF         0.2095
@<TRIPOS>BOND
     1    1    2 1  
     2    1   18 2  
     3    2    3 2  
     4    2    4 am 
     5    4    5 am 
     6    5    6 2  
     7    5    7 1  
     8    7    8 2  
     9    7   18 1  
    10    8    9 1  
    11    9   10 ar 
    12    9   16 ar 
    13   10   11 ar 
    14   11   12 1  
    15   11   13 ar 
    16   13   14 1  
    17   13   15 ar 
    18   15   16 ar 
    19   16   17 1  
    20   17   18 1  
    21   17   19 1  
    22   19   20 1  
    23   20   21 1  
    24   20   22 1  
    25   22   23 1  
    26   22   24 1  
    27   24   25 1  
    28   24   26 1  
    29   26   27 1  
    30    4   28 1  
    31   10   29 1  
    32   12   30 1  
    33   12   31 1  
    34   12   32 1  
    35   14   33 1  
    36   14   34 1  
    37   14   35 1  
    38   15   36 1  
    39   19   37 1  
    40   19   38 1  
    41   20   39 1  
    42   21   40 1  
    43   22   41 1  
    44   23   42 1  
    45   24   43 1  
    46   25   44 1  
    47   26   45 1  
    48   26   46 1  
    49   27   47 1  
@<TRIPOS>SUBSTRUCTURE
     1 RBF         1

