### 
### Created by X-TOOL on Mon Sep 10 21:12:54 2018
### 

@<TRIPOS>MOLECULE
2fl6_ligand
   44    46     1     0     0
SMALL
GAST_HUCK


@<TRIPOS>ATOM
      1 C1         21.6820   16.3430  105.4500 C.ar      1 N5T         0.1215
      2 C2         20.5380   16.2120  106.2720 C.ar      1 N5T        -0.0283
      3 C3         20.5230   15.0760  107.1180 C.ar      1 N5T        -0.0059
      4 C4         21.6600   14.1780  107.0750 C.ar      1 N5T         0.1290
      5 C5         22.8030   14.2970  106.2080 C.ar      1 N5T        -0.0366
      6 C6         22.7780   15.4260  105.3670 C.ar      1 N5T        -0.0370
      7 C10        19.3570   14.9230  108.0400 C.3       1 N5T         0.0168
      8 C11        18.5730   16.1430  108.4480 C.3       1 N5T         0.0487
      9 N12        17.5170   15.6370  109.3240 N.am      1 N5T        -0.2428
     10 C13        17.8590   14.2860  109.7570 C.3       1 N5T         0.0810
     11 C14        18.8190   13.7490  108.7290 C.3       1 N5T        -0.0061
     12 C17        17.8080   13.7510  111.1360 C.ar      1 N5T        -0.0178
     13 C19        16.8390   12.7170  111.5020 C.ar      1 N5T        -0.0582
     14 C20        16.8290   12.2250  112.8750 C.ar      1 N5T        -0.0685
     15 C21        17.7620   12.7970  113.8340 C.ar      1 N5T        -0.0687
     16 C22        18.7250   13.8080  113.4710 C.ar      1 N5T        -0.0685
     17 C23        18.7650   14.2730  112.0990 C.ar      1 N5T        -0.0582
     18 C29        16.5500   16.5720  109.5430 C.2       1 N5T         0.2642
     19 N30        15.3110   16.1700  109.5490 N.am      1 N5T        -0.2653
     20 C31        14.4880   17.4000  109.5140 C.3       1 N5T         0.0226
     21 C35        14.8410   14.7880  109.4530 C.3       1 N5T         0.0226
     22 O39        16.7850   17.7760  109.7060 O.2       1 N5T        -0.4004
     23 F40        21.6920   13.1900  107.9510 F         1 N5T        -0.1925
     24 F41        21.7200   17.4120  104.7210 F         1 N5T        -0.1887
     25 H1         19.7279   16.9321  106.2555 H         1 N5T         0.0532
     26 H2         23.6144   13.5782  106.2030 H         1 N5T         0.0576
     27 H3         23.5828   15.5995  104.6619 H         1 N5T         0.0536
     28 H4         18.7182   14.7241  107.1669 H         1 N5T         0.0475
     29 H5         18.1400   16.6375  107.5660 H         1 N5T         0.0546
     30 H6         19.2162   16.8535  108.9879 H         1 N5T         0.0546
     31 H7         16.9423   13.7794  109.4208 H         1 N5T         0.0720
     32 H8         19.6283   13.1860  109.2169 H         1 N5T         0.0334
     33 H9         18.2935   13.0942  108.0183 H         1 N5T         0.0334
     34 H10        16.1437   12.3253  110.7684 H         1 N5T         0.0557
     35 H11        16.1379   11.4460  113.1761 H         1 N5T         0.0599
     36 H12        17.7323   12.4501  114.8606 H         1 N5T         0.0559
     37 H13        19.4062   14.2124  114.2109 H         1 N5T         0.0599
     38 H14        19.5033   15.0051  111.7924 H         1 N5T         0.0557
     39 H15        13.4221   17.1282  109.5172 H         1 N5T         0.0483
     40 H16        14.7184   17.9695  108.6015 H         1 N5T         0.0483
     41 H17        14.7119   18.0163  110.3972 H         1 N5T         0.0483
     42 H18        15.7002   14.1036  109.5114 H         1 N5T         0.0483
     43 H19        14.3214   14.6431  108.4943 H         1 N5T         0.0483
     44 H20        14.1481   14.5780  110.2811 H         1 N5T         0.0483
@<TRIPOS>BOND
     1    1    2 ar 
     2    1    6 ar 
     3    1   24 1  
     4    2    3 ar 
     5    3    4 ar 
     6    3    7 1  
     7    4    5 ar 
     8    4   23 1  
     9    5    6 ar 
    10    7    8 1  
    11    7   11 1  
    12    8    9 1  
    13    9   10 1  
    14    9   18 am 
    15   10   11 1  
    16   10   12 1  
    17   12   13 ar 
    18   12   17 ar 
    19   13   14 ar 
    20   14   15 ar 
    21   15   16 ar 
    22   16   17 ar 
    23   18   19 am 
    24   18   22 2  
    25   19   20 1  
    26   19   21 1  
    27    2   25 1  
    28    5   26 1  
    29    6   27 1  
    30    7   28 1  
    31    8   29 1  
    32    8   30 1  
    33   10   31 1  
    34   11   32 1  
    35   11   33 1  
    36   13   34 1  
    37   14   35 1  
    38   15   36 1  
    39   16   37 1  
    40   17   38 1  
    41   20   39 1  
    42   20   40 1  
    43   20   41 1  
    44   21   42 1  
    45   21   43 1  
    46   21   44 1  
@<TRIPOS>SUBSTRUCTURE
     1 N5T         1

