### 
### Created by X-TOOL on Mon Sep 10 21:12:55 2018
### 

@<TRIPOS>MOLECULE
2flb_ligand
   39    42     1     0     0
SMALL
GAST_HUCK


@<TRIPOS>ATOM
      1 C1         12.7140    8.9120   47.5160 C.ar      1 6NH         0.0128
      2 C2         12.4670    7.5450   47.2330 C.ar      1 6NH        -0.0714
      3 C3         11.6190    6.8280   48.0770 C.ar      1 6NH        -0.0620
      4 C4         11.0660    7.5150   49.1530 C.ar      1 6NH         0.0299
      5 C5         11.2950    8.8410   49.4250 C.ar      1 6NH         0.0809
      6 C6         12.1360    9.5930   48.5980 C.ar      1 6NH        -0.0347
      7 C7         13.6070    9.5990   46.6820 C.cat     1 6NH         0.2301
      8 N1         13.7670   10.9040   46.8370 N.pl3     1 6NH        -0.2729
      9 N2         14.3560    8.9660   45.7470 N.pl3     1 6NH        -0.2729
     10 N3         10.2780    6.9860   50.0590 N.2       1 6NH        -0.3087
     11 N4         10.6500    9.2140   50.5380 N.pl3     1 6NH        -0.2498
     12 C8         10.0590    8.0470   50.8570 C.2       1 6NH         0.1474
     13 C5'         9.2980    7.8660   52.0400 C.2       1 6NH         0.1327
     14 C4'         8.8100    6.6260   52.4320 C.2       1 6NH         0.1312
     15 O4'         8.9500    5.4750   51.6810 O.3       1 6NH        -0.3437
     16 C3'         8.1900    6.8730   53.6670 C.2       1 6NH         0.1188
     17 N2'         8.2440    8.1670   54.0100 N.pl3     1 6NH        -0.2159
     18 N1'         8.9580    8.8050   52.9240 N.2       1 6NH        -0.1950
     19 C1''        7.4830    5.8660   54.3640 C.ar      1 6NH         0.0005
     20 C2''        6.7720    4.8930   53.6540 C.ar      1 6NH        -0.0576
     21 C3''        6.0670    3.9200   54.3560 C.ar      1 6NH        -0.0657
     22 C4''        6.0730    3.9110   55.7420 C.ar      1 6NH        -0.0659
     23 C5''        6.7850    4.8850   56.4470 C.ar      1 6NH        -0.0657
     24 C6''        7.5050    5.8810   55.7580 C.ar      1 6NH        -0.0576
     25 H1         12.9284    7.0661   46.3770 H         1 6NH         0.0522
     26 H2         11.4003    5.7808   47.9021 H         1 6NH         0.0549
     27 H3         12.3303   10.6433   48.7828 H         1 6NH         0.0545
     28 H4         14.4206   11.4185   46.2295 H         1 6NH         0.3180
     29 H5         13.2379   11.4049   47.5650 H         1 6NH         0.3180
     30 H6         14.2524    7.9511   45.6048 H         1 6NH         0.3180
     31 H7         15.0290    9.4997   45.1785 H         1 6NH         0.3180
     32 H8         10.6160   10.1278   51.0120 H         1 6NH         0.2301
     33 H9          9.8734    5.2924   51.5525 H         1 6NH         0.2415
     34 H10         7.8623    8.6097   54.8581 H         1 6NH         0.2530
     35 H11         6.7702    4.8968   52.5700 H         1 6NH         0.0587
     36 H12         5.5093    3.1640   53.8152 H         1 6NH         0.0606
     37 H13         5.5242    3.1467   56.2802 H         1 6NH         0.0583
     38 H14         6.7834    4.8742   57.5309 H         1 6NH         0.0606
     39 H15         8.0614    6.6390   56.2975 H         1 6NH         0.0587
@<TRIPOS>BOND
     1    1    2 ar 
     2    1    6 ar 
     3    1    7 1  
     4    2    3 ar 
     5    3    4 ar 
     6    4    5 ar 
     7    4   10 1  
     8    5    6 ar 
     9    5   11 1  
    10    7    8 ar 
    11    7    9 ar 
    12   10   12 2  
    13   11   12 1  
    14   12   13 1  
    15   13   14 1  
    16   13   18 2  
    17   14   15 1  
    18   14   16 2  
    19   16   17 1  
    20   16   19 1  
    21   17   18 1  
    22   19   20 ar 
    23   19   24 ar 
    24   20   21 ar 
    25   21   22 ar 
    26   22   23 ar 
    27   23   24 ar 
    28    2   25 1  
    29    3   26 1  
    30    6   27 1  
    31    8   28 1  
    32    8   29 1  
    33    9   30 1  
    34    9   31 1  
    35   11   32 1  
    36   15   33 1  
    37   17   34 1  
    38   20   35 1  
    39   21   36 1  
    40   22   37 1  
    41   23   38 1  
    42   24   39 1  
@<TRIPOS>SUBSTRUCTURE
     1 6NH         1

