### 
### Created by X-TOOL on Mon Sep 10 21:12:55 2018
### 

@<TRIPOS>MOLECULE
2fle_ligand
  122   125     1     0     0
SMALL
GAST_HUCK


@<TRIPOS>ATOM
      1 C4         26.6460  -32.2260   10.5960 C.ar      1 AI          0.0028
      2 C14        22.5980  -36.7410   13.0280 C.3       1 AI          0.0799
      3 C5         27.9860  -32.0350   11.0440 C.ar      1 AI         -0.0410
      4 C6         29.0350  -32.8220   10.4620 C.ar      1 AI         -0.0488
      5 C11        22.7180  -38.6110    7.0250 C.3       1 AI         -0.0585
      6 C7         28.7760  -33.7980    9.4420 C.ar      1 AI         -0.0304
      7 C8         27.4050  -37.3510    8.7640 C.3       1 AI          0.0254
      8 C9         23.1580  -37.6740    9.4010 C.3       1 AI          0.1335
      9 C10        22.5430  -38.8380    8.5440 C.3       1 AI         -0.0065
     10 C12        21.0180  -39.0040    8.7980 C.3       1 AI         -0.0585
     11 C13        23.0200  -37.8300   10.9150 C.2       1 AI          0.2021
     12 N1         26.4900  -36.2290    8.4680 N.am      1 AI         -0.2488
     13 N2         26.3870  -33.1950    9.5830 N.ar      1 AI         -0.2961
     14 C3         27.4300  -33.9800    9.0030 C.ar      1 AI          0.0502
     15 N3         24.6100  -37.5010    9.1640 N.am      1 AI         -0.2514
     16 O1         24.3640  -35.3750    8.4180 O.2       1 AI         -0.4004
     17 C1         25.1290  -36.3320    8.6740 C.2       1 AI          0.2640
     18 C2         27.1120  -34.9940    7.9340 C.3       1 AI          0.0828
     19 O2         23.1350  -38.9560   11.4480 O.2       1 AI         -0.3945
     20 N4         22.7640  -36.6850   11.5810 N.am      1 AI         -0.2775
     21 C15        23.6460  -35.8020   13.7480 C.3       1 AI          0.0065
     22 C16        25.0980  -36.1750   13.5110 C.ar      1 AI         -0.0408
     23 C17        25.6930  -37.2690   14.2360 C.ar      1 AI         -0.0603
     24 C18        27.0650  -37.6130   14.0050 C.ar      1 AI         -0.0686
     25 C19        27.8410  -36.8720   13.0560 C.ar      1 AI         -0.0687
     26 C20        27.2430  -35.7830   12.3370 C.ar      1 AI         -0.0686
     27 C21        25.8710  -35.4250   12.5550 C.ar      1 AI         -0.0603
     28 C22        21.0980  -36.3510   13.2820 C.3       1 AI          0.1078
     29 O3         20.9210  -35.0100   12.7830 O.3       1 AI         -0.3867
     30 C23        20.6710  -36.3850   14.7740 C.3       1 AI          0.1061
     31 O4         19.5040  -35.5870   15.0050 O.3       1 AI         -0.3869
     32 C24        20.3730  -37.8750   15.1570 C.3       1 AI          0.0707
     33 C25        18.9910  -38.3550   14.6570 C.3       1 AI         -0.0245
     34 C26        18.6500  -39.8040   14.9960 C.3       1 AI         -0.0389
     35 C27        17.1010  -40.0490   15.0460 C.3       1 AI         -0.0501
     36 C28        16.6900  -41.5640   15.1860 C.3       1 AI         -0.0528
     37 C29        17.9080  -42.4910   15.4950 C.3       1 AI         -0.0530
     38 C30        19.0530  -42.3090   14.4320 C.3       1 AI         -0.0528
     39 C31        19.3060  -40.8150   13.9970 C.3       1 AI         -0.0501
     40 N5         20.4550  -38.0170   16.6170 N.am      1 AI         -0.2794
     41 C32        21.3360  -38.8630   17.1880 C.2       1 AI          0.2020
     42 O5         22.1470  -39.5930   16.5880 O.2       1 AI         -0.3945
     43 C33        21.2690  -38.8820   18.7300 C.3       1 AI          0.1335
     44 C34        22.6500  -39.0380   19.4580 C.3       1 AI         -0.0065
     45 C35        22.4840  -39.0520   20.9710 C.3       1 AI         -0.0585
     46 C36        23.5900  -37.8730   19.1300 C.3       1 AI         -0.0585
     47 N6         20.3440  -39.9970   19.0340 N.am      1 AI         -0.2514
     48 C37        19.1000  -39.8260   19.5670 C.2       1 AI          0.2640
     49 O6         18.6820  -38.6790   19.8270 O.2       1 AI         -0.4004
     50 N7         18.3180  -40.9430   19.8090 N.am      1 AI         -0.2488
     51 C38        18.7780  -42.3160   19.5140 C.3       1 AI          0.0254
     52 C39        16.9550  -40.8290   20.3920 C.3       1 AI          0.0828
     53 C40        15.9120  -40.5020   19.3470 C.ar      1 AI          0.0502
     54 C41        15.0520  -41.5320   18.8600 C.ar      1 AI         -0.0304
     55 N8         15.7860  -39.1700   18.8490 N.ar      1 AI         -0.2961
     56 C42        14.8150  -38.8220   17.8660 C.ar      1 AI          0.0028
     57 C43        13.9470  -39.8340   17.3660 C.ar      1 AI         -0.0410
     58 C44        14.0720  -41.1770   17.8670 C.ar      1 AI         -0.0488
     59 H1         25.8361  -31.6430   11.0194 H         1 AI          0.0803
     60 H2         22.7657  -37.7689   13.3819 H         1 AI          0.0605
     61 H3         28.2092  -31.3052   11.8138 H         1 AI          0.0652
     62 H4         30.0535  -32.6751   10.8028 H         1 AI          0.0719
     63 H5         22.2713  -39.4522    6.4747 H         1 AI          0.0234
     64 H6         23.7895  -38.5438    6.7853 H         1 AI          0.0234
     65 H7         22.2177  -37.6756    6.7340 H         1 AI          0.0234
     66 H8         29.5830  -34.3827    9.0154 H         1 AI          0.0652
     67 H9         28.4375  -37.0541    8.5279 H         1 AI          0.0485
     68 H10        27.1256  -38.2227    8.1541 H         1 AI          0.0485
     69 H11        27.3331  -37.6113    9.8303 H         1 AI          0.0485
     70 H12        22.6381  -36.7518    9.1022 H         1 AI          0.0799
     71 H13        23.0555  -39.7698    8.8252 H         1 AI          0.0342
     72 H14        20.6308  -39.8271    8.1795 H         1 AI          0.0234
     73 H15        20.4986  -38.0711    8.5337 H         1 AI          0.0234
     74 H16        20.8458  -39.2313    9.8604 H         1 AI          0.0234
     75 H17        25.2291  -38.2595    9.3676 H         1 AI          0.1877
     76 H18        26.4183  -34.5365    7.2133 H         1 AI          0.0713
     77 H19        28.0463  -35.2664    7.4214 H         1 AI          0.0713
     78 H20        22.6897  -35.8159   11.0920 H         1 AI          0.1857
     79 H21        23.4544  -35.8410   14.8305 H         1 AI          0.0449
     80 H22        23.4923  -34.7750   13.3851 H         1 AI          0.0449
     81 H23        25.1050  -37.8298   14.9535 H         1 AI          0.0557
     82 H24        27.5160  -38.4349   14.5491 H         1 AI          0.0599
     83 H25        28.8784  -37.1333   12.8810 H         1 AI          0.0559
     84 H26        27.8350  -35.2246   11.6209 H         1 AI          0.0599
     85 H27        25.4231  -34.6028   12.0087 H         1 AI          0.0557
     86 H28        20.4543  -37.0453   12.7220 H         1 AI          0.0645
     87 H29        20.0210  -34.7385   12.9201 H         1 AI          0.2100
     88 H30        21.4938  -36.0014   15.3952 H         1 AI          0.0643
     89 H31        19.6850  -34.6861   14.7642 H         1 AI          0.2100
     90 H32        21.1427  -38.5105   14.6948 H         1 AI          0.0582
     91 H33        18.9672  -38.2459   13.5627 H         1 AI          0.0291
     92 H34        18.2223  -37.7094   15.1067 H         1 AI          0.0291
     93 H35        19.0559  -40.0097   15.9975 H         1 AI          0.0302
     94 H36        16.6596  -39.6564   14.1181 H         1 AI          0.0268
     95 H37        16.6926  -39.5000   15.9073 H         1 AI          0.0268
     96 H38        16.2279  -41.8922   14.2433 H         1 AI          0.0265
     97 H39        15.9603  -41.6569   16.0039 H         1 AI          0.0265
     98 H40        17.5724  -43.5385   15.4834 H         1 AI          0.0265
     99 H41        18.3024  -42.2433   16.4915 H         1 AI          0.0265
    100 H42        18.7855  -42.8877   13.5356 H         1 AI          0.0265
    101 H43        19.9857  -42.7055   14.8596 H         1 AI          0.0265
    102 H44        20.3901  -40.6317   13.9642 H         1 AI          0.0268
    103 H45        18.8770  -40.6572   12.9965 H         1 AI          0.0268
    104 H46        19.8464  -37.4764   17.1978 H         1 AI          0.1855
    105 H47        20.8256  -37.9366   19.0758 H         1 AI          0.0799
    106 H48        23.1108  -39.9822   19.1323 H         1 AI          0.0342
    107 H49        23.4695  -39.1624   21.4470 H         1 AI          0.0234
    108 H50        21.8400  -39.8952   21.2615 H         1 AI          0.0234
    109 H51        22.0226  -38.1085   21.2980 H         1 AI          0.0234
    110 H52        23.7426  -37.8202   18.0419 H         1 AI          0.0234
    111 H53        24.5576  -38.0310   19.6287 H         1 AI          0.0234
    112 H54        23.1445  -36.9316   19.4838 H         1 AI          0.0234
    113 H55        20.6485  -40.9290   18.8374 H         1 AI          0.1877
    114 H56        17.9905  -43.0334   19.7883 H         1 AI          0.0485
    115 H57        19.6877  -42.5305   20.0941 H         1 AI          0.0485
    116 H58        18.9981  -42.4062   18.4400 H         1 AI          0.0485
    117 H59        16.9594  -40.0316   21.1497 H         1 AI          0.0713
    118 H60        16.6921  -41.7853   20.8677 H         1 AI          0.0713
    119 H61        15.1342  -42.5490   19.2262 H         1 AI          0.0652
    120 H62        14.7383  -37.8029   17.5045 H         1 AI          0.0803
    121 H63        13.2008  -39.5954   16.6167 H         1 AI          0.0652
    122 H64        13.4084  -41.9445   17.4853 H         1 AI          0.0719
@<TRIPOS>BOND
     1    1    3 ar 
     2   13    1 ar 
     3   20    2 1  
     4    2   21 1  
     5    2   28 1  
     6    4    3 ar 
     7    6    4 ar 
     8    9    5 1  
     9   14    6 ar 
    10   12    7 1  
    11    8    9 1  
    12    8   11 1  
    13   15    8 1  
    14    9   10 1  
    15   11   19 2  
    16   11   20 am 
    17   17   12 am 
    18   12   18 1  
    19   14   13 ar 
    20   18   14 1  
    21   15   17 am 
    22   17   16 2  
    23   21   22 1  
    24   22   23 ar 
    25   22   27 ar 
    26   23   24 ar 
    27   24   25 ar 
    28   25   26 ar 
    29   26   27 ar 
    30   28   29 1  
    31   28   30 1  
    32   30   31 1  
    33   30   32 1  
    34   32   33 1  
    35   32   40 1  
    36   33   34 1  
    37   34   35 1  
    38   34   39 1  
    39   35   36 1  
    40   36   37 1  
    41   37   38 1  
    42   38   39 1  
    43   40   41 am 
    44   41   42 2  
    45   41   43 1  
    46   43   44 1  
    47   43   47 1  
    48   44   45 1  
    49   44   46 1  
    50   47   48 am 
    51   48   49 2  
    52   48   50 am 
    53   50   51 1  
    54   50   52 1  
    55   52   53 1  
    56   53   54 ar 
    57   53   55 ar 
    58   54   58 ar 
    59   55   56 ar 
    60   56   57 ar 
    61   57   58 ar 
    62    1   59 1  
    63    2   60 1  
    64    3   61 1  
    65    4   62 1  
    66    5   63 1  
    67    5   64 1  
    68    5   65 1  
    69    6   66 1  
    70    7   67 1  
    71    7   68 1  
    72    7   69 1  
    73    8   70 1  
    74    9   71 1  
    75   10   72 1  
    76   10   73 1  
    77   10   74 1  
    78   15   75 1  
    79   18   76 1  
    80   18   77 1  
    81   20   78 1  
    82   21   79 1  
    83   21   80 1  
    84   23   81 1  
    85   24   82 1  
    86   25   83 1  
    87   26   84 1  
    88   27   85 1  
    89   28   86 1  
    90   29   87 1  
    91   30   88 1  
    92   31   89 1  
    93   32   90 1  
    94   33   91 1  
    95   33   92 1  
    96   34   93 1  
    97   35   94 1  
    98   35   95 1  
    99   36   96 1  
   100   36   97 1  
   101   37   98 1  
   102   37   99 1  
   103   38  100 1  
   104   38  101 1  
   105   39  102 1  
   106   39  103 1  
   107   40  104 1  
   108   43  105 1  
   109   44  106 1  
   110   45  107 1  
   111   45  108 1  
   112   45  109 1  
   113   46  110 1  
   114   46  111 1  
   115   46  112 1  
   116   47  113 1  
   117   51  114 1  
   118   51  115 1  
   119   51  116 1  
   120   52  117 1  
   121   52  118 1  
   122   54  119 1  
   123   56  120 1  
   124   57  121 1  
   125   58  122 1  
@<TRIPOS>SUBSTRUCTURE
     1 AI          1

