### 
### Created by X-TOOL on Mon Sep 10 21:12:53 2018
### 

@<TRIPOS>MOLECULE
2flh_ligand
   29    30     1     0     0
SMALL
GAST_HUCK


@<TRIPOS>ATOM
      1 O16        30.8910  -10.3990    0.7040 O.3       1 ZEA        -0.3840
      2 C14        31.0110  -11.5720    1.6260 C.3       1 ZEA         0.0691
      3 C13        29.6830  -12.2650    1.3600 C.2       1 ZEA        -0.0571
      4 C15        28.4190  -11.5360    1.6340 C.3       1 ZEA        -0.0382
      5 C12        29.6840  -13.5800    0.7910 C.2       1 ZEA        -0.0849
      6 C11        28.4470  -14.3150    0.4180 C.3       1 ZEA         0.0355
      7 N10        28.6100  -15.7310    0.5270 N.pl3     1 ZEA        -0.2969
      8 C6         29.3610  -16.4190   -0.3910 C.ar      1 ZEA         0.1561
      9 C5         29.3790  -17.8010   -0.4270 C.ar      1 ZEA         0.1546
     10 N9         28.6880  -18.7740    0.3090 N.pl3     1 ZEA        -0.2409
     11 C4         30.1310  -18.3780   -1.3870 C.ar      1 ZEA         0.1017
     12 N7         29.9680  -19.7410   -1.2860 N.2       1 ZEA        -0.2857
     13 C8         29.1030  -19.9090   -0.2990 C.2       1 ZEA         0.1112
     14 N3         30.9790  -17.7570   -2.2520 N.ar      1 ZEA        -0.2948
     15 C2         30.8580  -16.4220   -2.1670 C.ar      1 ZEA         0.0502
     16 N1         30.1250  -15.7450   -1.2610 N.ar      1 ZEA        -0.2689
     17 H1         30.7910  -10.7082   -0.1887 H         1 ZEA         0.2125
     18 H2         31.1021  -11.2566    2.6759 H         1 ZEA         0.0705
     19 H3         31.8646  -12.2128    1.3602 H         1 ZEA         0.0705
     20 H4         27.5628  -12.1811    1.3872 H         1 ZEA         0.0376
     21 H5         28.3806  -10.6247    1.0192 H         1 ZEA         0.0376
     22 H6         28.3769  -11.2622    2.6985 H         1 ZEA         0.0376
     23 H7         30.6431  -14.0675    0.6227 H         1 ZEA         0.0263
     24 H8         28.1866  -14.0669   -0.6215 H         1 ZEA         0.0597
     25 H9         27.6317  -13.9993    1.0856 H         1 ZEA         0.0597
     26 H10        28.1595  -16.2387    1.3017 H         1 ZEA         0.1858
     27 H11        28.0389  -18.6563    1.1000 H         1 ZEA         0.2376
     28 H12        28.7493  -20.8936    0.0033 H         1 ZEA         0.1402
     29 H13        31.4017  -15.8329   -2.8967 H         1 ZEA         0.0974
@<TRIPOS>BOND
     1    1    2 1  
     2    2    3 1  
     3    3    4 1  
     4    3    5 2  
     5    5    6 1  
     6    6    7 1  
     7    7    8 1  
     8    8    9 ar 
     9    8   16 ar 
    10    9   10 1  
    11    9   11 ar 
    12   10   13 1  
    13   11   12 1  
    14   11   14 ar 
    15   12   13 2  
    16   14   15 ar 
    17   15   16 ar 
    18    1   17 1  
    19    2   18 1  
    20    2   19 1  
    21    4   20 1  
    22    4   21 1  
    23    4   22 1  
    24    5   23 1  
    25    6   24 1  
    26    6   25 1  
    27    7   26 1  
    28   10   27 1  
    29   13   28 1  
    30   15   29 1  
@<TRIPOS>SUBSTRUCTURE
     1 ZEA         1

