### 
### Created by X-TOOL on Mon Sep 10 21:12:56 2018
### 

@<TRIPOS>MOLECULE
2flr_ligand
   45    48     1     0     0
SMALL
GAST_HUCK


@<TRIPOS>ATOM
      1 N1         46.6130   -8.9030   12.4410 N.ar      1 7NH        -0.3200
      2 C2         46.4130   -7.6110   12.1280 C.ar      1 7NH        -0.0083
      3 C3         47.4030   -6.9860   11.3620 C.ar      1 7NH        -0.0190
      4 C4         48.4610   -7.7440   11.0120 C.ar      1 7NH         0.0803
      5 C5         48.6060   -9.0280   11.3540 C.ar      1 7NH        -0.0003
      6 C6         47.6490   -9.6670   12.1060 C.ar      1 7NH        -0.0040
      7 N3         49.5160   -7.4030   10.2960 N.pl3     1 7NH        -0.2681
      8 CN4        49.7640   -9.4560   10.8350 C.2       1 7NH        -0.0497
      9 C8         50.3550   -8.4160   10.1490 C.2       1 7NH         0.0660
     10 C1'        51.5120   -8.3000    9.4140 C.ar      1 7NH         0.0407
     11 C2'        52.2930   -9.4380    9.2180 C.ar      1 7NH        -0.0581
     12 C3'        53.4650   -9.3890    8.5040 C.ar      1 7NH        -0.0705
     13 C4'        53.8780   -8.1880    7.9710 C.ar      1 7NH        -0.0611
     14 C5'        53.1330   -7.0100    8.1370 C.ar      1 7NH         0.0136
     15 C6'        51.9530   -7.0970    8.8590 C.ar      1 7NH         0.1130
     16 O6'        51.1820   -5.9680    9.0090 O.3       1 7NH        -0.3262
     17 C51        56.9380   -4.0350    7.1660 C.3       1 7NH         0.0644
     18 N52        57.5030   -4.3370    8.5110 N.am      1 7NH        -0.2621
     19 C53        58.3490   -5.3150    8.6900 C.2       1 7NH         0.2567
     20 O53        58.7140   -6.0480    7.7960 O.2       1 7NH        -0.4009
     21 N54        58.8190   -5.5230    9.8900 N.am      1 7NH        -0.2869
     22 C1B        53.6040   -5.8310    7.5910 C.ar      1 7NH        -0.0282
     23 C2B        52.7560   -4.9440    6.9210 C.ar      1 7NH        -0.0638
     24 C3B        53.2370   -3.7760    6.3440 C.ar      1 7NH        -0.0697
     25 C4B        54.5910   -3.4820    6.4350 C.ar      1 7NH        -0.0600
     26 C5B        55.4540   -4.3460    7.0940 C.ar      1 7NH        -0.0228
     27 C6B        54.9590   -5.5040    7.6670 C.ar      1 7NH        -0.0540
     28 H1         45.5267   -7.0786   12.4537 H         1 7NH         0.0699
     29 H2         47.3232   -5.9464   11.0655 H         1 7NH         0.0630
     30 H3         47.7317  -10.7067   12.4013 H         1 7NH         0.0750
     31 H4         49.6677   -6.4642    9.9004 H         1 7NH         0.2267
     32 H5         50.1719  -10.4605   10.9378 H         1 7NH         0.0312
     33 H6         51.9679  -10.3827    9.6386 H         1 7NH         0.0599
     34 H7         54.0582  -10.2851    8.3615 H         1 7NH         0.0532
     35 H8         54.8036   -8.1515    7.4080 H         1 7NH         0.0598
     36 H9         50.4109   -6.1784    9.5224 H         1 7NH         0.2523
     37 H10        57.4653   -4.6407    6.4143 H         1 7NH         0.0680
     38 H11        57.0888   -2.9674    6.9482 H         1 7NH         0.0680
     39 H12        57.2283   -3.7785    9.2937 H         1 7NH         0.1872
     40 H13        59.4682   -6.2664   10.0508 H         1 7NH         0.1808
     41 H14        58.5298   -4.9389   10.6484 H         1 7NH         0.1808
     42 H15        51.6989   -5.1733    6.8503 H         1 7NH         0.0550
     43 H16        52.5631   -3.1014    5.8284 H         1 7NH         0.0596
     44 H17        54.9761   -2.5723    5.9887 H         1 7NH         0.0545
     45 H18        55.6376   -6.1713    8.1858 H         1 7NH         0.0543
@<TRIPOS>BOND
     1    1    2 ar 
     2    6    1 ar 
     3    3    2 ar 
     4    4    3 ar 
     5    5    4 ar 
     6    7    4 1  
     7    5    6 ar 
     8    8    5 1  
     9    9    7 1  
    10    9    8 2  
    11   10    9 1  
    12   10   11 ar 
    13   15   10 ar 
    14   12   11 ar 
    15   13   12 ar 
    16   14   13 ar 
    17   14   15 ar 
    18   22   14 1  
    19   15   16 1  
    20   17   18 1  
    21   26   17 1  
    22   18   19 am 
    23   19   20 2  
    24   19   21 am 
    25   23   22 ar 
    26   22   27 ar 
    27   24   23 ar 
    28   25   24 ar 
    29   25   26 ar 
    30   26   27 ar 
    31    2   28 1  
    32    3   29 1  
    33    6   30 1  
    34    7   31 1  
    35    8   32 1  
    36   11   33 1  
    37   12   34 1  
    38   13   35 1  
    39   16   36 1  
    40   17   37 1  
    41   17   38 1  
    42   18   39 1  
    43   21   40 1  
    44   21   41 1  
    45   23   42 1  
    46   24   43 1  
    47   25   44 1  
    48   27   45 1  
@<TRIPOS>SUBSTRUCTURE
     1 7NH         1

