### 
### Created by X-TOOL on Mon Sep 10 21:12:54 2018
### 

@<TRIPOS>MOLECULE
2fm0_ligand
   57    60     1     0     0
SMALL
GAST_HUCK


@<TRIPOS>ATOM
      1 F1         21.5960   -1.3160   35.5500 F         1 M98        -0.1743
      2 F2         23.6900   -1.3910   34.7670 F         1 M98        -0.1743
      3 C1         22.7180   -2.0470   35.4360 C.3       1 M98         0.3634
      4 O1         22.4070   -3.2750   34.8120 O.3       1 M98        -0.2646
      5 C12        23.2190   -8.2300   33.1700 C.3       1 M98        -0.0199
      6 C13        23.5020   -7.5050   31.8410 C.3       1 M98        -0.0199
      7 C8         22.7080   -6.8010   32.9550 C.3       1 M98         0.0789
      8 O2         22.4650   -5.5730   33.6070 O.3       1 M98        -0.3198
      9 C2         22.1430   -3.2780   33.4740 C.ar      1 M98         0.1203
     10 C3         22.1910   -4.4920   32.8300 C.ar      1 M98         0.1157
     11 C4         21.9270   -4.5870   31.4470 C.ar      1 M98        -0.0342
     12 C5         21.6100   -3.4340   30.7180 C.ar      1 M98        -0.0274
     13 C6         21.5600   -2.2120   31.3880 C.ar      1 M98        -0.0744
     14 C7         21.8260   -2.1250   32.7680 C.ar      1 M98        -0.0459
     15 C9         21.3640   -3.4670   29.2160 C.3       1 M98         0.1023
     16 C10        21.8260   -4.7300   28.5370 C.2       1 M98         0.1582
     17 C11        23.1580   -6.0900   27.1430 C.2       1 M98         0.0420
     18 N1         22.8940   -4.7840   27.6920 N.2       1 M98        -0.2362
     19 S1         21.0330   -6.1940   28.5990 S.3       1 M98         0.0310
     20 C14        22.1540   -6.9480   27.6150 C.2       1 M98         0.0584
     21 C15        22.0830   -8.4150   27.2420 C.3       1 M98         0.2211
     22 O3         20.9400   -9.0230   27.8520 O.3       1 M98        -0.4399
     23 C16        23.3550   -9.1320   27.7800 C.3       1 M98         0.3809
     24 F5         23.2820  -10.4490   27.5060 F         1 M98        -0.1827
     25 F6         23.4250   -8.9540   29.1160 F         1 M98        -0.1827
     26 F7         24.4630   -8.6180   27.2020 F         1 M98        -0.1827
     27 C17        21.9950   -8.5520   25.6830 C.3       1 M98         0.3809
     28 F8         20.9450   -7.8430   25.2210 F         1 M98        -0.1827
     29 F9         21.8370   -9.8490   25.3460 F         1 M98        -0.1827
     30 F10        23.1250   -8.0820   25.1140 F         1 M98        -0.1827
     31 C18        19.9130   -3.1600   28.8360 C.3       1 M98         0.0701
     32 C19        19.6990   -3.0560   27.3480 C.2       1 M98         0.1002
     33 C20        20.3380   -2.0550   26.6340 C.3       1 M98         0.0916
     34 C21        20.2090   -1.9980   25.2500 C.2       1 M98         0.0307
     35 C22        18.9280   -3.9910   26.6750 C.2       1 M98         0.1519
     36 C23        19.4460   -2.9300   24.5730 C.2       1 M98         0.1055
     37 O4         18.0660   -4.8340   24.6390 O.2       1 M98        -0.1664
     38 N2         18.8060   -3.9220   25.2850 N.2       1 M98        -0.0973
     39 H1         23.0929   -2.2586   36.4482 H         1 M98         0.1413
     40 H2         24.0390   -8.4198   33.8781 H         1 M98         0.0295
     41 H3         22.5087   -9.0694   33.1979 H         1 M98         0.0295
     42 H4         22.9930   -7.8249   30.9198 H         1 M98         0.0295
     43 H5         24.5234   -7.1753   31.6001 H         1 M98         0.0295
     44 H6         21.6517   -6.9037   32.6658 H         1 M98         0.0645
     45 H7         21.9694   -5.5496   30.9504 H         1 M98         0.0463
     46 H8         21.3118   -1.3125   30.8363 H         1 M98         0.0451
     47 H9         21.7837   -1.1674   33.2743 H         1 M98         0.0497
     48 H10        21.9742   -2.6530   28.7977 H         1 M98         0.0850
     49 H11        23.9826   -6.3601   26.4849 H         1 M98         0.1239
     50 H12        20.9053   -9.9415   27.6118 H         1 M98         0.1864
     51 H13        19.6251   -2.2043   29.2983 H         1 M98         0.0731
     52 H14        19.2717   -3.9640   29.2262 H         1 M98         0.0731
     53 H15        21.4127   -2.1476   26.8493 H         1 M98         0.1087
     54 H16        19.9664   -1.0973   27.0274 H         1 M98         0.1087
     55 H17        20.7150   -1.2101   24.6940 H         1 M98         0.1184
     56 H18        18.4183   -4.7780   27.2289 H         1 M98         0.1410
     57 H19        19.3513   -2.8815   23.4892 H         1 M98         0.1045
@<TRIPOS>BOND
     1    3    1 1  
     2    3    2 1  
     3    4    3 1  
     4    9    4 1  
     5    6    5 1  
     6    7    5 1  
     7    7    6 1  
     8    8    7 1  
     9   10    8 1  
    10    9   10 ar 
    11    9   14 ar 
    12   10   11 ar 
    13   11   12 ar 
    14   12   13 ar 
    15   12   15 1  
    16   13   14 ar 
    17   15   16 1  
    18   15   31 1  
    19   16   18 2  
    20   16   19 1  
    21   18   17 1  
    22   17   20 2  
    23   19   20 1  
    24   20   21 1  
    25   21   22 1  
    26   21   23 1  
    27   21   27 1  
    28   23   24 1  
    29   23   25 1  
    30   23   26 1  
    31   27   28 1  
    32   27   29 1  
    33   27   30 1  
    34   31   32 1  
    35   32   33 1  
    36   32   35 2  
    37   33   34 1  
    38   34   36 2  
    39   35   38 1  
    40   36   38 1  
    41   38   37 2  
    42    3   39 1  
    43    5   40 1  
    44    5   41 1  
    45    6   42 1  
    46    6   43 1  
    47    7   44 1  
    48   11   45 1  
    49   13   46 1  
    50   14   47 1  
    51   15   48 1  
    52   17   49 1  
    53   22   50 1  
    54   31   51 1  
    55   31   52 1  
    56   33   53 1  
    57   33   54 1  
    58   34   55 1  
    59   35   56 1  
    60   36   57 1  
@<TRIPOS>SUBSTRUCTURE
     1 M98         1

