### 
### Created by X-TOOL on Mon Sep 10 21:12:54 2018
### 

@<TRIPOS>MOLECULE
2fm2_ligand
  110   113     1     0     0
SMALL
GAST_HUCK


@<TRIPOS>ATOM
      1 C1        192.3020  -10.2990   49.2280 C.2       1 3BC         0.3223
      2 O2        192.8030  -11.0460   50.0800 O.2       1 3BC        -0.3774
      3 O3        190.9660  -10.1340   49.0300 O.3       1 3BC        -0.2580
      4 C4        189.9130  -10.8490   49.7290 C.3       1 3BC         0.0905
      5 C5        189.8520  -10.4420   51.2240 C.3       1 3BC        -0.0320
      6 C6        188.6230  -10.4630   48.9820 C.3       1 3BC        -0.0320
      7 C7        190.1000  -12.3650   49.6030 C.3       1 3BC        -0.0320
      8 N8        193.0260   -9.5280   48.4190 N.am      1 3BC        -0.2407
      9 C9        194.4890   -9.5250   48.4230 C.3       1 3BC         0.1378
     10 C10       195.0520   -9.1880   47.0390 C.3       1 3BC         0.0025
     11 C11       196.6000   -9.0580   47.1420 C.3       1 3BC        -0.0558
     12 C12       194.6970  -10.3230   46.0770 C.3       1 3BC        -0.0558
     13 C13       194.3960   -7.8930   46.4990 C.3       1 3BC        -0.0558
     14 C14       195.0580   -8.6430   49.5280 C.2       1 3BC         0.2069
     15 O15       194.8980   -7.4170   49.5080 O.2       1 3BC        -0.3942
     16 N16       195.7180   -9.2690   50.5120 N.am      1 3BC        -0.2492
     17 C17       195.9590  -10.7180   50.6090 C.3       1 3BC         0.0405
     18 C18       196.3170   -8.5500   51.6350 C.3       1 3BC         0.1372
     19 C19       196.7810   -9.5620   52.6350 C.3       1 3BC         0.0102
     20 C20       196.7910  -10.8280   51.8490 C.3       1 3BC        -0.0073
     21 C21       196.0050  -10.7630   53.1620 C.3       1 3BC        -0.0224
     22 C22       196.5820  -11.5380   54.3050 C.3       1 3BC        -0.0590
     23 C23       194.4910  -10.7220   53.1400 C.3       1 3BC        -0.0590
     24 C24       197.3190   -7.5080   51.1580 C.2       1 3BC         0.2026
     25 O25       198.3220   -7.8370   50.5270 O.2       1 3BC        -0.3945
     26 N26       197.0220   -6.2470   51.4500 N.am      1 3BC        -0.2772
     27 C27       197.8940   -5.1460   51.0510 C.3       1 3BC         0.0853
     28 C28       197.0900   -4.0520   50.3370 C.3       1 3BC        -0.0224
     29 C29       196.3200   -4.6170   49.1410 C.3       1 3BC        -0.0387
     30 C30       196.8710   -4.7030   47.7130 C.3       1 3BC        -0.0499
     31 C31       195.7440   -3.7230   48.0440 C.3       1 3BC        -0.0499
     32 O32       199.2260   -5.7150   53.0620 O.3       1 3BC        -0.3691
     33 C33       198.5850   -4.5900   52.3470 C.3       1 3BC         0.1663
     34 O34       199.5370   -2.6820   51.2180 O.2       1 3BC        -0.3940
     35 N35       200.8660   -4.4600   51.6170 N.am      1 3BC        -0.2661
     36 C36       202.1580   -3.8040   51.5250 C.3       1 3BC         0.1203
     37 C37       202.6770   -3.7490   50.1080 C.2       1 3BC         0.2025
     38 O38       201.9270   -3.9030   49.1380 O.2       1 3BC        -0.3945
     39 C39       199.7070   -3.8140   51.6740 C.2       1 3BC         0.2093
     40 N40       203.9790   -3.5100   49.9970 N.am      1 3BC        -0.2534
     41 C41       204.6440   -3.4330   48.7050 C.3       1 3BC         0.1644
     42 C42       204.3130   -2.1330   47.9370 C.ar      1 3BC         0.0010
     43 C43       204.3500   -0.8840   48.5660 C.ar      1 3BC        -0.0557
     44 C44       203.9790   -2.2020   46.5820 C.ar      1 3BC        -0.0557
     45 C45       204.0870    0.2800   47.8500 C.ar      1 3BC        -0.0681
     46 C46       203.7140   -1.0430   45.8550 C.ar      1 3BC        -0.0681
     47 C47       203.7590    0.1990   46.4950 C.ar      1 3BC        -0.0684
     48 C48       206.1550   -3.5820   48.8680 C.2       1 3BC         0.2155
     49 O49       206.7740   -2.8920   49.6850 O.2       1 3BC        -0.3913
     50 N50       206.7760   -4.4760   48.0800 N.am      1 3BC        -0.2758
     51 C51       208.2190   -4.5310   48.0670 C.3       1 3BC         0.0224
     52 C52       206.0870   -5.4280   47.2140 C.3       1 3BC         0.0224
     53 H1        189.0462  -11.0001   51.7233 H         1 3BC         0.0260
     54 H2        189.6537   -9.3629   51.3025 H         1 3BC         0.0260
     55 H3        190.8127  -10.6744   51.7068 H         1 3BC         0.0260
     56 H4        187.7639  -10.9659   49.4500 H         1 3BC         0.0260
     57 H5        188.7014  -10.7742   47.9299 H         1 3BC         0.0260
     58 H6        188.4821   -9.3732   49.0325 H         1 3BC         0.0260
     59 H7        189.2903  -12.8802   50.1405 H         1 3BC         0.0260
     60 H8        191.0690  -12.6523   50.0371 H         1 3BC         0.0260
     61 H9        190.0748  -12.6506   48.5410 H         1 3BC         0.0260
     62 H10       192.5486   -8.9243   47.7805 H         1 3BC         0.1899
     63 H11       194.8077  -10.5531   48.6498 H         1 3BC         0.0805
     64 H12       197.0143   -8.8158   46.1522 H         1 3BC         0.0237
     65 H13       197.0252  -10.0092   47.4947 H         1 3BC         0.0237
     66 H14       196.8543   -8.2571   47.8518 H         1 3BC         0.0237
     67 H15       193.6031  -10.4139   46.0050 H         1 3BC         0.0237
     68 H16       195.1195  -11.2670   46.4517 H         1 3BC         0.0237
     69 H17       195.1130  -10.1043   45.0824 H         1 3BC         0.0237
     70 H18       194.6328   -7.0545   47.1705 H         1 3BC         0.0237
     71 H19       193.3053   -8.0271   46.4506 H         1 3BC         0.0237
     72 H20       194.7840   -7.6776   45.4925 H         1 3BC         0.0237
     73 H21       196.5057  -11.0894   49.7297 H         1 3BC         0.0527
     74 H22       195.0143  -11.2716   50.7142 H         1 3BC         0.0527
     75 H23       195.5145   -7.9807   52.1269 H         1 3BC         0.0805
     76 H24       197.6102   -9.1765   53.2464 H         1 3BC         0.0357
     77 H25       197.6826  -11.4598   51.7229 H         1 3BC         0.0331
     78 H26       195.9393  -11.4196   55.1898 H         1 3BC         0.0235
     79 H27       197.5904  -11.1615   54.5314 H         1 3BC         0.0235
     80 H28       196.6403  -12.6025   54.0340 H         1 3BC         0.0235
     81 H29       194.1527  -10.1358   52.2729 H         1 3BC         0.0235
     82 H30       194.1234  -10.2539   54.0650 H         1 3BC         0.0235
     83 H31       194.0975  -11.7465   53.0660 H         1 3BC         0.0235
     84 H32       196.1821   -6.0470   51.9546 H         1 3BC         0.1857
     85 H33       198.6649   -5.5224   50.3625 H         1 3BC         0.0607
     86 H34       197.7813   -3.2733   49.9823 H         1 3BC         0.0292
     87 H35       196.3750   -3.6116   51.0475 H         1 3BC         0.0292
     88 H36       195.7121   -5.4564   49.5096 H         1 3BC         0.0302
     89 H37       196.6654   -5.5903   47.0962 H         1 3BC         0.0268
     90 H38       197.8798   -4.3262   47.4887 H         1 3BC         0.0268
     91 H39       195.9425   -2.6411   48.0561 H         1 3BC         0.0268
     92 H40       194.7281   -3.9052   47.6636 H         1 3BC         0.0268
     93 H41       198.5659   -6.3564   53.2973 H         1 3BC         0.2134
     94 H42       197.9276   -3.9910   52.9943 H         1 3BC         0.0861
     95 H43       200.8477   -5.4596   51.6388 H         1 3BC         0.1881
     96 H44       202.8797   -4.3570   52.1441 H         1 3BC         0.0763
     97 H45       202.0602   -2.7765   51.9053 H         1 3BC         0.0763
     98 H46       204.5195   -3.3788   50.8281 H         1 3BC         0.1909
     99 H47       204.2839   -4.2767   48.0980 H         1 3BC         0.0960
    100 H48       204.5860   -0.8222   49.6222 H         1 3BC         0.0562
    101 H49       203.9255   -3.1671   46.0912 H         1 3BC         0.0562
    102 H50       204.1365    1.2448   48.3417 H         1 3BC         0.0600
    103 H51       203.4744   -1.1042   44.7996 H         1 3BC         0.0600
    104 H52       203.5386    1.1022   45.9376 H         1 3BC         0.0561
    105 H53       208.5497   -5.3153   47.3703 H         1 3BC         0.0486
    106 H54       208.5863   -4.7602   49.0782 H         1 3BC         0.0486
    107 H55       208.6201   -3.5595   47.7426 H         1 3BC         0.0486
    108 H56       204.9998   -5.2903   47.3096 H         1 3BC         0.0486
    109 H57       206.3542   -6.4531   47.5102 H         1 3BC         0.0486
    110 H58       206.3877   -5.2579   46.1697 H         1 3BC         0.0486
@<TRIPOS>BOND
     1    1    2 2  
     2    1    3 1  
     3    8    1 am 
     4    3    4 1  
     5    4    5 1  
     6    4    6 1  
     7    4    7 1  
     8    9    8 1  
     9    9   10 1  
    10   14    9 1  
    11   10   11 1  
    12   10   12 1  
    13   10   13 1  
    14   14   15 2  
    15   16   14 am 
    16   16   17 1  
    17   18   16 1  
    18   20   17 1  
    19   18   19 1  
    20   24   18 1  
    21   19   20 1  
    22   19   21 1  
    23   21   20 1  
    24   21   22 1  
    25   21   23 1  
    26   24   25 2  
    27   26   24 am 
    28   27   26 1  
    29   27   28 1  
    30   33   27 1  
    31   28   29 1  
    32   29   30 1  
    33   29   31 1  
    34   31   30 1  
    35   33   32 1  
    36   39   33 1  
    37   39   34 2  
    38   35   36 1  
    39   35   39 am 
    40   36   37 1  
    41   37   38 2  
    42   37   40 am 
    43   40   41 1  
    44   41   42 1  
    45   41   48 1  
    46   42   43 ar 
    47   42   44 ar 
    48   43   45 ar 
    49   44   46 ar 
    50   45   47 ar 
    51   46   47 ar 
    52   48   49 2  
    53   48   50 am 
    54   50   51 1  
    55   50   52 1  
    56    5   53 1  
    57    5   54 1  
    58    5   55 1  
    59    6   56 1  
    60    6   57 1  
    61    6   58 1  
    62    7   59 1  
    63    7   60 1  
    64    7   61 1  
    65    8   62 1  
    66    9   63 1  
    67   11   64 1  
    68   11   65 1  
    69   11   66 1  
    70   12   67 1  
    71   12   68 1  
    72   12   69 1  
    73   13   70 1  
    74   13   71 1  
    75   13   72 1  
    76   17   73 1  
    77   17   74 1  
    78   18   75 1  
    79   19   76 1  
    80   20   77 1  
    81   22   78 1  
    82   22   79 1  
    83   22   80 1  
    84   23   81 1  
    85   23   82 1  
    86   23   83 1  
    87   26   84 1  
    88   27   85 1  
    89   28   86 1  
    90   28   87 1  
    91   29   88 1  
    92   30   89 1  
    93   30   90 1  
    94   31   91 1  
    95   31   92 1  
    96   32   93 1  
    97   33   94 1  
    98   35   95 1  
    99   36   96 1  
   100   36   97 1  
   101   40   98 1  
   102   41   99 1  
   103   43  100 1  
   104   44  101 1  
   105   45  102 1  
   106   46  103 1  
   107   47  104 1  
   108   51  105 1  
   109   51  106 1  
   110   51  107 1  
   111   52  108 1  
   112   52  109 1  
   113   52  110 1  
@<TRIPOS>SUBSTRUCTURE
     1 3BC         1

