### 
### Created by X-TOOL on Mon Sep 10 21:12:46 2018
### 

@<TRIPOS>MOLECULE
2fmb_ligand
  116   119     1     0     0
SMALL
GAST_HUCK


@<TRIPOS>ATOM
      1 C1          7.6740   20.7100    7.1540 C.3       1 LP1         0.0258
      2 C2          6.8630   20.9860    5.8950 C.2       1 LP1         0.1753
      3 O3          6.4560   22.1180    5.5970 O.2       1 LP1        -0.3972
      4 N4          6.6140   19.8950    5.1700 N.am      1 LP1        -0.2639
      5 C5          5.8180   20.0250    3.9420 C.3       1 LP1         0.1411
      6 C6          6.4750   19.4050    2.6940 C.3       1 LP1         0.0237
      7 C7          7.4980   20.2880    2.0530 C.ar      1 LP1        -0.0279
      8 C8          7.5410   21.6300    2.3680 C.ar      1 LP1        -0.0605
      9 C9          8.5120   22.4580    1.8120 C.ar      1 LP1        -0.0707
     10 C10         9.4590   21.9500    0.9340 C.ar      1 LP1        -0.0631
     11 C11         8.4410   19.7460    1.1820 C.ar      1 LP1        -0.0119
     12 C12         9.4340   20.5790    0.6100 C.ar      1 LP1        -0.0243
     13 C13         8.4410   18.3820    0.8770 C.ar      1 LP1        -0.0548
     14 C14        10.4010   20.0330   -0.2460 C.ar      1 LP1        -0.0569
     15 C15         9.3720   17.8780    0.0070 C.ar      1 LP1        -0.0625
     16 C16        10.3280   18.6960   -0.5390 C.ar      1 LP1        -0.0629
     17 C17         4.5450   19.1670    4.0620 C.2       1 LP1         0.2061
     18 O18         4.6510   18.0270    4.4700 O.2       1 LP1        -0.3942
     19 N19         3.4730   19.7140    3.5870 N.am      1 LP1        -0.2633
     20 C20         2.1690   19.1550    3.4580 C.3       1 LP1         0.1331
     21 C21         1.7000   19.4670    2.0310 C.2       1 LP1         0.2022
     22 O22         1.3100   20.5710    1.6550 O.2       1 LP1        -0.3945
     23 C23         1.1300   19.6040    4.5190 C.3       1 LP1        -0.0063
     24 C24        -0.2240   19.0020    4.1950 C.3       1 LP1        -0.0584
     25 C25         1.4670   18.9830    5.8690 C.3       1 LP1        -0.0584
     26 N26         1.7060   18.4370    1.2140 N.am      1 LP1        -0.2793
     27 C27         1.3280   18.3930   -0.1660 C.3       1 LP1         0.0703
     28 C28         2.6030   18.0320   -0.9850 C.3       1 LP1        -0.0250
     29 C29         3.8110   18.9590   -0.5770 C.3       1 LP1        -0.0446
     30 C30         5.1070   18.3560   -0.9570 C.3       1 LP1        -0.0626
     31 C31         3.5670   20.3300   -1.1350 C.3       1 LP1        -0.0626
     32 C32         0.0550   17.5280   -0.4860 C.3       1 LP1         0.0947
     33 C33        -1.2610   18.2920   -0.2810 C.3       1 LP1         0.0655
     34 O34         0.0010   16.3610    0.3430 O.3       1 LP1        -0.3872
     35 C35        -1.5450   19.3980   -1.3020 C.2       1 LP1         0.1808
     36 O36        -1.0760   20.5510   -1.3100 O.2       1 LP1        -0.3968
     37 N37        -2.3620   18.9460   -2.2470 N.am      1 LP1        -0.2656
     38 C38        -2.7650   19.6980   -3.4180 C.3       1 LP1         0.1307
     39 C39        -1.7690   19.3530   -4.5450 C.3       1 LP1        -0.0152
     40 C40        -1.8700   20.1130   -5.8400 C.3       1 LP1        -0.0610
     41 C41        -4.1710   19.3160   -3.8450 C.2       1 LP1         0.2040
     42 O42        -4.4650   18.1050   -3.8900 O.2       1 LP1        -0.3944
     43 N43        -5.0460   20.3030   -4.0920 N.am      1 LP1        -0.2618
     44 C44        -6.4140   20.0280   -4.4820 C.3       1 LP1         0.1408
     45 C45        -7.4860   20.2000   -3.3810 C.3       1 LP1         0.0237
     46 C46        -7.0710   21.2250   -2.3290 C.ar      1 LP1        -0.0279
     47 C47        -7.4750   22.5490   -2.4530 C.ar      1 LP1        -0.0605
     48 C48        -7.0850   23.5130   -1.5120 C.ar      1 LP1        -0.0707
     49 C49        -6.2670   23.1690   -0.4570 C.ar      1 LP1        -0.0631
     50 C50        -6.2350   20.8740   -1.2640 C.ar      1 LP1        -0.0119
     51 C51        -5.8260   21.8510   -0.3030 C.ar      1 LP1        -0.0243
     52 C52        -5.7880   19.5500   -1.1290 C.ar      1 LP1        -0.0548
     53 C53        -4.9800   21.4850    0.7510 C.ar      1 LP1        -0.0569
     54 C54        -4.9460   19.2110   -0.0810 C.ar      1 LP1        -0.0625
     55 C55        -4.5540   20.1660    0.8340 C.ar      1 LP1        -0.0629
     56 C56        -6.8080   20.6910   -5.7930 C.2       1 LP1         0.2014
     57 O57        -6.3140   21.7790   -6.1360 O.2       1 LP1        -0.3945
     58 N58        -7.7080   20.1110   -6.5590 N.am      1 LP1        -0.2988
     59 H1          7.9200   19.6390    7.2042 H         1 LP1         0.0467
     60 H2          7.0850   20.9927    8.0389 H         1 LP1         0.0467
     61 H3          8.6028   21.2987    7.1283 H         1 LP1         0.0467
     62 H4          6.9633   19.0031    5.4573 H         1 LP1         0.1884
     63 H5          5.5822   21.0862    3.7739 H         1 LP1         0.0825
     64 H6          5.6875   19.1929    1.9558 H         1 LP1         0.0486
     65 H7          6.9636   18.4648    2.9893 H         1 LP1         0.0486
     66 H8          6.8118   22.0439    3.0550 H         1 LP1         0.0530
     67 H9          8.5286   23.5113    2.0677 H         1 LP1         0.0595
     68 H10        10.2102   22.6012    0.5019 H         1 LP1         0.0542
     69 H11         7.7063   17.7245    1.3276 H         1 LP1         0.0628
     70 H12        11.1859   20.6521   -0.6652 H         1 LP1         0.0609
     71 H13         9.3528   16.8254   -0.2515 H         1 LP1         0.0601
     72 H14        11.0507   18.2705   -1.2259 H         1 LP1         0.0616
     73 H15         3.5733   20.6562    3.2673 H         1 LP1         0.1883
     74 H16         2.2658   18.0640    3.5591 H         1 LP1         0.0802
     75 H17         1.0868   20.7018    4.5741 H         1 LP1         0.0343
     76 H18        -0.9577   19.3225    4.9493 H         1 LP1         0.0234
     77 H19        -0.1482   17.9046    4.2004 H         1 LP1         0.0234
     78 H20        -0.5481   19.3423    3.2004 H         1 LP1         0.0234
     79 H21         2.4453   19.3536    6.2091 H         1 LP1         0.0234
     80 H22         1.5039   17.8881    5.7700 H         1 LP1         0.0234
     81 H23         0.6952   19.2591    6.6025 H         1 LP1         0.0234
     82 H24         2.0149   17.5713    1.6080 H         1 LP1         0.1856
     83 H25         1.0537   19.4199   -0.4492 H         1 LP1         0.0583
     84 H26         2.3928   18.1642   -2.0566 H         1 LP1         0.0291
     85 H27         2.8716   16.9832   -0.7907 H         1 LP1         0.0291
     86 H28         3.8139   19.0488    0.5193 H         1 LP1         0.0296
     87 H29         5.9254   19.0275   -0.6583 H         1 LP1         0.0232
     88 H30         5.1358   18.2048   -2.0462 H         1 LP1         0.0232
     89 H31         5.2237   17.3873   -0.4491 H         1 LP1         0.0232
     90 H32         2.5842   20.6928   -0.7995 H         1 LP1         0.0232
     91 H33         3.5865   20.2874   -2.2340 H         1 LP1         0.0232
     92 H34         4.3512   21.0151   -0.7806 H         1 LP1         0.0232
     93 H35         0.1175   17.2154   -1.5388 H         1 LP1         0.0642
     94 H36        -1.2346   18.7513    0.7182 H         1 LP1         0.0529
     95 H37        -2.0859   17.5659   -0.3291 H         1 LP1         0.0529
     96 H38        -0.0958   16.6231    1.2510 H         1 LP1         0.2101
     97 H39        -2.7250   18.0201   -2.1426 H         1 LP1         0.1883
     98 H40        -2.7303   20.7756   -3.2001 H         1 LP1         0.0800
     99 H41        -1.9004   18.2868   -4.7814 H         1 LP1         0.0310
    100 H42        -0.7567   19.5185   -4.1478 H         1 LP1         0.0310
    101 H43        -1.0979   19.7545   -6.5367 H         1 LP1         0.0232
    102 H44        -1.7211   21.1858   -5.6481 H         1 LP1         0.0232
    103 H45        -2.8648   19.9541   -6.2818 H         1 LP1         0.0232
    104 H46        -4.7461   21.2530   -4.0046 H         1 LP1         0.1885
    105 H47        -6.4199   18.9497   -4.6991 H         1 LP1         0.0825
    106 H48        -7.6458   19.2301   -2.8872 H         1 LP1         0.0486
    107 H49        -8.4245   20.5323   -3.8488 H         1 LP1         0.0486
    108 H50        -8.1004   22.8407   -3.2889 H         1 LP1         0.0530
    109 H51        -7.4292   24.5357   -1.6150 H         1 LP1         0.0595
    110 H52        -5.9636   23.9253    0.2579 H         1 LP1         0.0542
    111 H53        -6.1001   18.7953   -1.8418 H         1 LP1         0.0628
    112 H54        -4.6643   22.2159    1.4866 H         1 LP1         0.0609
    113 H55        -4.5941   18.1907    0.0198 H         1 LP1         0.0601
    114 H56        -3.8927   19.8777    1.6431 H         1 LP1         0.0616
    115 H57        -7.9769   20.5353   -7.4237 H         1 LP1         0.1815
    116 H58        -8.1228   19.2461   -6.2762 H         1 LP1         0.1815
@<TRIPOS>BOND
     1    1    2 1  
     2    2    3 2  
     3    2    4 am 
     4    4    5 1  
     5    5    6 1  
     6    5   17 1  
     7    6    7 1  
     8    7    8 ar 
     9    7   11 ar 
    10    8    9 ar 
    11    9   10 ar 
    12   10   12 ar 
    13   11   12 ar 
    14   11   13 ar 
    15   12   14 ar 
    16   13   15 ar 
    17   14   16 ar 
    18   15   16 ar 
    19   17   18 2  
    20   17   19 am 
    21   19   20 1  
    22   20   21 1  
    23   20   23 1  
    24   21   22 2  
    25   21   26 am 
    26   23   24 1  
    27   23   25 1  
    28   26   27 1  
    29   27   28 1  
    30   27   32 1  
    31   28   29 1  
    32   29   30 1  
    33   29   31 1  
    34   32   33 1  
    35   32   34 1  
    36   33   35 1  
    37   35   36 2  
    38   35   37 am 
    39   37   38 1  
    40   38   39 1  
    41   38   41 1  
    42   39   40 1  
    43   41   42 2  
    44   41   43 am 
    45   43   44 1  
    46   44   45 1  
    47   44   56 1  
    48   45   46 1  
    49   46   47 ar 
    50   46   50 ar 
    51   47   48 ar 
    52   48   49 ar 
    53   49   51 ar 
    54   50   51 ar 
    55   50   52 ar 
    56   51   53 ar 
    57   52   54 ar 
    58   53   55 ar 
    59   54   55 ar 
    60   56   57 2  
    61   56   58 am 
    62    1   59 1  
    63    1   60 1  
    64    1   61 1  
    65    4   62 1  
    66    5   63 1  
    67    6   64 1  
    68    6   65 1  
    69    8   66 1  
    70    9   67 1  
    71   10   68 1  
    72   13   69 1  
    73   14   70 1  
    74   15   71 1  
    75   16   72 1  
    76   19   73 1  
    77   20   74 1  
    78   23   75 1  
    79   24   76 1  
    80   24   77 1  
    81   24   78 1  
    82   25   79 1  
    83   25   80 1  
    84   25   81 1  
    85   26   82 1  
    86   27   83 1  
    87   28   84 1  
    88   28   85 1  
    89   29   86 1  
    90   30   87 1  
    91   30   88 1  
    92   30   89 1  
    93   31   90 1  
    94   31   91 1  
    95   31   92 1  
    96   32   93 1  
    97   33   94 1  
    98   33   95 1  
    99   34   96 1  
   100   37   97 1  
   101   38   98 1  
   102   39   99 1  
   103   39  100 1  
   104   40  101 1  
   105   40  102 1  
   106   40  103 1  
   107   43  104 1  
   108   44  105 1  
   109   45  106 1  
   110   45  107 1  
   111   47  108 1  
   112   48  109 1  
   113   49  110 1  
   114   52  111 1  
   115   53  112 1  
   116   54  113 1  
   117   55  114 1  
   118   58  115 1  
   119   58  116 1  
@<TRIPOS>SUBSTRUCTURE
     1 LP1         1

