### 
### Created by X-TOOL on Mon Sep 10 21:12:55 2018
### 

@<TRIPOS>MOLECULE
2fme_ligand
   48    50     1     0     0
SMALL
GAST_HUCK


@<TRIPOS>ATOM
      1 C1         22.9670   81.5930   47.9630 C.ar      1 3QC        -0.0214
      2 C2         22.7600   82.5180   49.1080 C.3       1 3QC         0.0621
      3 C11        24.0810   79.6240   46.8990 C.ar      1 3QC        -0.0776
      4 C12        23.4630   79.9680   45.6570 C.ar      1 3QC        -0.0799
      5 C13        22.5800   81.1010   45.6000 C.ar      1 3QC        -0.0571
      6 C14        22.3320   81.9160   46.7440 C.ar      1 3QC        -0.0465
      7 C19        26.4090   79.2240   50.5910 C.ar      1 3QC        -0.0306
      8 C20        27.8490   79.0390   50.6980 C.ar      1 3QC         0.0812
      9 C21        28.7670   79.7170   49.7950 C.ar      1 3QC        -0.0402
     10 C22        28.3130   80.6120   48.7770 C.ar      1 3QC        -0.0770
     11 O28        28.3720   78.1980   51.6600 O.3       1 3QC        -0.3349
     12 C33        21.4410   83.0720   46.6850 C.3       1 3QC        -0.0377
     13 N3         23.5850   82.2700   50.2630 N.am      1 3QC        -0.2466
     14 C4         23.6520   80.8460   50.5570 C.3       1 3QC         0.0555
     15 C5         24.4760   80.3120   49.3840 C.3       1 3QC         0.0365
     16 C6         23.8090   80.4480   48.0500 C.ar      1 3QC        -0.0363
     17 C17        25.9410   80.1200   49.5580 C.ar      1 3QC        -0.0382
     18 C23        26.8880   80.8110   48.6890 C.ar      1 3QC        -0.0695
     19 C29        21.8600   81.4320   44.3460 C.3       1 3QC        -0.0382
     20 C38        24.0240   83.2370   51.1190 C.2       1 3QC         0.2638
     21 N39        24.3780   84.4740   50.6530 N.am      1 3QC        -0.2653
     22 C40        24.7910   84.8580   49.2910 C.3       1 3QC         0.0226
     23 C44        24.3540   85.5280   51.6640 C.3       1 3QC         0.0226
     24 O48        24.1010   82.9910   52.3200 O.2       1 3QC        -0.4004
     25 H1         21.7081   82.4408   49.4201 H         1 3QC         0.0652
     26 H2         22.9647   83.5408   48.7587 H         1 3QC         0.0652
     27 H3         24.7378   78.7649   46.9735 H         1 3QC         0.0469
     28 H4         23.6581   79.3806   44.7671 H         1 3QC         0.0466
     29 H5         25.7203   78.7139   51.2547 H         1 3QC         0.0481
     30 H6         29.8310   79.5373   49.8978 H         1 3QC         0.0486
     31 H7         29.0026   81.1136   48.1078 H         1 3QC         0.0572
     32 H8         27.6640   77.8271   52.1736 H         1 3QC         0.2479
     33 H9         21.3965   83.5514   47.6740 H         1 3QC         0.0359
     34 H10        20.4332   82.7436   46.3911 H         1 3QC         0.0359
     35 H11        21.8224   83.7916   45.9456 H         1 3QC         0.0359
     36 H12        22.6488   80.3954   50.5774 H         1 3QC         0.0566
     37 H13        24.1570   80.6602   51.5164 H         1 3QC         0.0566
     38 H14        24.2257   79.2502   49.5248 H         1 3QC         0.0608
     39 H15        26.5043   81.5020   47.9472 H         1 3QC         0.0467
     40 H16        22.1511   80.7221   43.5578 H         1 3QC         0.0363
     41 H17        22.1196   82.4541   44.0330 H         1 3QC         0.0363
     42 H18        20.7755   81.3652   44.5173 H         1 3QC         0.0363
     43 H19        25.0054   85.9365   49.2633 H         1 3QC         0.0483
     44 H20        23.9812   84.6269   48.5834 H         1 3QC         0.0483
     45 H21        25.6946   84.2972   49.0100 H         1 3QC         0.0483
     46 H22        24.0302   85.1054   52.6266 H         1 3QC         0.0483
     47 H23        23.6520   86.3165   51.3551 H         1 3QC         0.0483
     48 H24        25.3617   85.9557   51.7718 H         1 3QC         0.0483
@<TRIPOS>BOND
     1    1    2 1  
     2    1    6 ar 
     3   16    1 ar 
     4   13    2 1  
     5    3    4 ar 
     6   16    3 ar 
     7    4    5 ar 
     8    6    5 ar 
     9    5   19 1  
    10    6   12 1  
    11    7    8 ar 
    12   17    7 ar 
    13    8    9 ar 
    14    8   11 1  
    15    9   10 ar 
    16   10   18 ar 
    17   14   13 1  
    18   13   20 am 
    19   15   14 1  
    20   15   16 1  
    21   15   17 1  
    22   17   18 ar 
    23   20   21 am 
    24   20   24 2  
    25   21   22 1  
    26   21   23 1  
    27    2   25 1  
    28    2   26 1  
    29    3   27 1  
    30    4   28 1  
    31    7   29 1  
    32    9   30 1  
    33   10   31 1  
    34   11   32 1  
    35   12   33 1  
    36   12   34 1  
    37   12   35 1  
    38   14   36 1  
    39   14   37 1  
    40   15   38 1  
    41   18   39 1  
    42   19   40 1  
    43   19   41 1  
    44   19   42 1  
    45   22   43 1  
    46   22   44 1  
    47   22   45 1  
    48   23   46 1  
    49   23   47 1  
    50   23   48 1  
@<TRIPOS>SUBSTRUCTURE
     1 3QC         1

