### 
### Created by X-TOOL on Mon Sep 10 21:12:54 2018
### 

@<TRIPOS>MOLECULE
2fpz_ligand
   17    18     1     0     0
SMALL
GAST_HUCK


@<TRIPOS>ATOM
      1 N1         32.0420   20.7960   83.2330 N.2       1 270        -0.3139
      2 C1         32.8570   21.5580   84.0050 C.2       1 270         0.2106
      3 C2         30.8320   20.7930   83.7940 C.ar      1 270         0.0112
      4 C3         29.6060   20.1670   83.4160 C.ar      1 270        -0.0694
      5 C4         28.4470   20.3620   84.2480 C.ar      1 270        -0.0809
      6 C5         28.5370   21.1730   85.4340 C.ar      1 270        -0.0787
      7 C6         29.7790   21.7960   85.8000 C.ar      1 270        -0.0448
      8 C7         30.9210   21.5940   84.9610 C.ar      1 270         0.0750
      9 N3         32.1820   22.0510   85.0650 N.pl3     1 270        -0.2304
     10 N2         34.1580   21.7870   83.7450 N.pl3     1 270        -0.2887
     11 H1         29.5487   19.5576   82.5213 H         1 270         0.0516
     12 H2         27.5049   19.8972   83.9807 H         1 270         0.0508
     13 H3         27.6606   21.3148   86.0560 H         1 270         0.0513
     14 H4         29.8497   22.4064   86.6930 H         1 270         0.0533
     15 H5         32.5584   22.6577   85.8074 H         1 270         0.2311
     16 H6         34.5976   21.3712   82.9115 H         1 270         0.1860
     17 H7         34.7138   22.3780   84.3796 H         1 270         0.1860
@<TRIPOS>BOND
     1    1    2 2  
     2    1    3 1  
     3    2    9 1  
     4    2   10 1  
     5    3    4 ar 
     6    3    8 ar 
     7    4    5 ar 
     8    5    6 ar 
     9    6    7 ar 
    10    7    8 ar 
    11    8    9 1  
    12    4   11 1  
    13    5   12 1  
    14    6   13 1  
    15    7   14 1  
    16    9   15 1  
    17   10   16 1  
    18   10   17 1  
@<TRIPOS>SUBSTRUCTURE
     1 270         1

