### 
### Created by X-TOOL on Mon Sep 10 21:12:54 2018
### 

@<TRIPOS>MOLECULE
2fqw_ligand
   31    33     1     0     0
SMALL
GAST_HUCK


@<TRIPOS>ATOM
      1 N9         33.9770   61.4890   10.3450 N.pl3     1 NOS        -0.2045
      2 C4         34.7280   61.5340    9.2430 C.2       1 NOS         0.1354
      3 N3         35.3520   60.5580    8.5640 N.2       1 NOS        -0.2683
      4 C2         36.0580   60.8160    7.4740 C.2       1 NOS         0.1273
      5 N1         36.1660   62.1330    7.0050 N.am      1 NOS        -0.2042
      6 C6         35.5300   63.1760    7.6970 C.2       1 NOS         0.2200
      7 O6         35.6300   64.3380    7.3000 O.2       1 NOS        -0.4066
      8 C5         34.7970   62.8630    8.8390 C.2       1 NOS         0.1044
      9 N7         34.0850   63.5740    9.7130 N.2       1 NOS        -0.3155
     10 C8         33.5960   62.7350   10.6260 C.2       1 NOS         0.1004
     11 C5         31.3410   61.3630   13.6360 C.3       1 NOS         0.0730
     12 O5         31.6380   62.7050   13.2340 O.3       1 NOS        -0.3924
     13 C4         32.3370   60.3630   13.0370 C.3       1 NOS         0.1136
     14 O4         32.2640   60.4650   11.6030 O.3       1 NOS        -0.3365
     15 C1         33.5810   60.2460   11.0590 C.3       1 NOS         0.2003
     16 C2         34.5090   59.9530   12.2430 C.3       1 NOS         0.1389
     17 O2         34.5300   58.5400   12.4790 O.3       1 NOS        -0.3835
     18 C3         33.7930   60.6990   13.3670 C.3       1 NOS         0.1146
     19 O3         34.1720   60.0970   14.6080 O.3       1 NOS        -0.3864
     20 H1         36.5545   60.0058    6.9420 H         1 NOS         0.1493
     21 H2         36.6950   62.3290    6.1793 H         1 NOS         0.2557
     22 H3         32.9777   63.0242   11.4745 H         1 NOS         0.1213
     23 H4         30.3272   61.1044   13.2966 H         1 NOS         0.0584
     24 H5         31.3876   61.3000   14.7332 H         1 NOS         0.0584
     25 H6         32.5110   62.9367   13.5283 H         1 NOS         0.2095
     26 H7         32.0918   59.3469   13.3797 H         1 NOS         0.0647
     27 H8         33.5812   59.3959   10.3609 H         1 NOS         0.1001
     28 H9         35.5295   60.3309   12.0827 H         1 NOS         0.0677
     29 H10        34.8493   58.0951   11.7027 H         1 NOS         0.2101
     30 H11        33.9924   61.7808   13.3690 H         1 NOS         0.0648
     31 H12        33.7369   60.5468   15.3228 H         1 NOS         0.2100
@<TRIPOS>BOND
     1    1    2 1  
     2    1   10 1  
     3   15    1 1  
     4    2    3 1  
     5    2    8 2  
     6    3    4 2  
     7    4    5 1  
     8    6    5 am 
     9    6    7 2  
    10    8    6 1  
    11    9    8 1  
    12   10    9 2  
    13   11   12 1  
    14   13   11 1  
    15   14   13 1  
    16   13   18 1  
    17   14   15 1  
    18   15   16 1  
    19   16   17 1  
    20   16   18 1  
    21   18   19 1  
    22    4   20 1  
    23    5   21 1  
    24   10   22 1  
    25   11   23 1  
    26   11   24 1  
    27   12   25 1  
    28   13   26 1  
    29   15   27 1  
    30   16   28 1  
    31   17   29 1  
    32   18   30 1  
    33   19   31 1  
@<TRIPOS>SUBSTRUCTURE
     1 NOS         1

