### 
### Created by X-TOOL on Mon Sep 10 21:12:54 2018
### 

@<TRIPOS>MOLECULE
2fqy_ligand
   32    34     1     0     0
SMALL
GAST_HUCK


@<TRIPOS>ATOM
      1 O5         31.3630   62.3670   13.1940 O.3       1 ADN        -0.3924
      2 C5         31.0520   61.0970   13.7430 C.3       1 ADN         0.0730
      3 C4         31.9130   60.0250   13.0660 C.3       1 ADN         0.1135
      4 O4         31.7390   60.0320   11.6080 O.3       1 ADN        -0.3368
      5 C3         33.4420   60.2370   13.3240 C.3       1 ADN         0.1146
      6 O3         33.8650   59.7290   14.6100 O.3       1 ADN        -0.3864
      7 C2         34.0280   59.4720   12.1150 C.3       1 ADN         0.1385
      8 O2         34.0090   58.0480   12.3610 O.3       1 ADN        -0.3836
      9 C1         33.0530   59.8380   10.9880 C.3       1 ADN         0.2010
     10 N9         33.4930   61.0720   10.2890 N.pl3     1 ADN        -0.1919
     11 C8         33.1090   62.3770   10.5520 C.2       1 ADN         0.1123
     12 N7         33.6560   63.2010    9.7010 N.2       1 ADN        -0.2958
     13 C5         34.4050   62.4900    8.8310 C.ar      1 ADN         0.1045
     14 C6         35.1950   62.8230    7.7190 C.ar      1 ADN         0.1298
     15 N6         35.3940   64.1540    7.3880 N.pl3     1 ADN        -0.3152
     16 N1         35.7570   61.8260    7.0110 N.ar      1 ADN        -0.2698
     17 C2         35.6690   60.5280    7.4000 C.ar      1 ADN         0.0533
     18 N3         34.9810   60.1740    8.4660 N.ar      1 ADN        -0.2714
     19 C4         34.3200   61.1130    9.1930 C.ar      1 ADN         0.1613
     20 H1         32.2819   62.5579   13.3411 H         1 ADN         0.2095
     21 H2         29.9882   60.8743   13.5733 H         1 ADN         0.0584
     22 H3         31.2573   61.1041   14.8236 H         1 ADN         0.0584
     23 H4         31.6125   59.0444   13.4635 H         1 ADN         0.0647
     24 H5         33.7058   61.3036   13.2723 H         1 ADN         0.0648
     25 H6         33.3878   60.1767   15.2986 H         1 ADN         0.2100
     26 H7         35.0525   59.8003   11.8859 H         1 ADN         0.0676
     27 H8         34.3717   57.5932   11.6100 H         1 ADN         0.2101
     28 H9         33.0018   59.0148   10.2602 H         1 ADN         0.0996
     29 H10        32.4414   62.6745   11.3593 H         1 ADN         0.1349
     30 H11        35.9731   64.4009    6.5728 H         1 ADN         0.1820
     31 H12        34.9628   64.8963    7.9572 H         1 ADN         0.1820
     32 H13        36.1765   59.7657    6.8200 H         1 ADN         0.0996
@<TRIPOS>BOND
     1    1    2 1  
     2    2    3 1  
     3    3    4 1  
     4    3    5 1  
     5    4    9 1  
     6    5    6 1  
     7    5    7 1  
     8    7    8 1  
     9    7    9 1  
    10    9   10 1  
    11   10   11 1  
    12   10   19 1  
    13   11   12 2  
    14   12   13 1  
    15   13   14 ar 
    16   13   19 ar 
    17   14   15 1  
    18   14   16 ar 
    19   16   17 ar 
    20   17   18 ar 
    21   18   19 ar 
    22    1   20 1  
    23    2   21 1  
    24    2   22 1  
    25    3   23 1  
    26    5   24 1  
    27    6   25 1  
    28    7   26 1  
    29    8   27 1  
    30    9   28 1  
    31   11   29 1  
    32   15   30 1  
    33   15   31 1  
    34   17   32 1  
@<TRIPOS>SUBSTRUCTURE
     1 ADN         1

