### 
### Created by X-TOOL on Mon Sep 10 21:12:53 2018
### 

@<TRIPOS>MOLECULE
2fr3_ligand
   49    49     1     0     0
SMALL
GAST_HUCK


@<TRIPOS>ATOM
      1 C1         21.5640   29.4580   16.7490 C.3       1 REA        -0.0969
      2 C2         20.5180   30.1380   15.8720 C.3       1 REA        -0.1029
      3 C3         19.7450   29.1290   15.0400 C.3       1 REA        -0.0392
      4 C4         18.9460   28.2290   15.9450 C.3       1 REA         0.0356
      5 C5         19.8690   27.5270   16.8880 C.2       1 REA         0.0198
      6 C6         21.0480   28.1590   17.3370 C.2       1 REA        -0.0622
      7 C7         21.9240   27.7130   18.4160 C.2       1 REA        -0.0783
      8 C8         21.4360   26.8960   19.4500 C.2       1 REA        -0.0734
      9 C9         22.3530   26.3180   20.4330 C.2       1 REA        -0.0589
     10 C10        21.7540   25.4640   21.3930 C.2       1 REA        -0.0755
     11 C11        22.5990   24.7150   22.3030 C.2       1 REA        -0.0140
     12 C12        21.9250   23.7730   23.1530 C.2       1 REA        -0.0022
     13 C13        22.6630   23.1250   24.2050 C.2       1 REA        -0.0528
     14 C14        21.9360   22.1310   24.8380 C.2       1 REA        -0.0544
     15 C15        22.4130   21.5580   26.0880 C.2       1 REA         0.0211
     16 C16        21.8820   30.4240   17.9050 C.3       1 REA        -0.1196
     17 C17        22.8690   29.2420   16.0140 C.3       1 REA        -0.1196
     18 C18        19.5130   26.1410   17.2460 C.3       1 REA         0.0260
     19 C19        23.8160   26.5220   20.4220 C.3       1 REA        -0.0400
     20 C20        24.0380   23.5550   24.5640 C.3       1 REA        -0.0230
     21 O1         23.5170   20.9800   26.1320 O.co2     1 REA        -0.5774
     22 O2         21.6950   21.5950   27.0800 O.co2     1 REA        -0.5774
     23 H1         21.0228   30.8451   15.1973 H         1 REA         0.0065
     24 H2         19.8132   30.6847   16.5156 H         1 REA         0.0065
     25 H3         20.4503   28.5231   14.4522 H         1 REA         0.0308
     26 H4         19.0637   29.6614   14.3600 H         1 REA         0.0308
     27 H5         18.4053   27.4864   15.3398 H         1 REA         0.0724
     28 H6         18.2248   28.8308   16.5174 H         1 REA         0.0724
     29 H7         22.9696   28.0174   18.4198 H         1 REA         0.0517
     30 H8         20.3686   26.6917   19.5202 H         1 REA         0.0552
     31 H9         20.6703   25.3714   21.4466 H         1 REA         0.0587
     32 H10        23.6780   24.8578   22.3398 H         1 REA         0.0000
     33 H11        20.8692   23.5521   23.0032 H         1 REA         0.0000
     34 H14        21.0044   21.7768   24.3992 H         1 REA         0.0223
     35 H15        22.6361   29.9703   18.5650 H         1 REA         0.0025
     36 H16        20.9650   30.6236   18.4789 H         1 REA         0.0025
     37 H17        22.2722   31.3681   17.4971 H         1 REA         0.0025
     38 H18        22.7054   28.5552   15.1705 H         1 REA         0.0025
     39 H19        23.6097   28.8081   16.7017 H         1 REA         0.0025
     40 H20        23.2405   30.2057   15.6354 H         1 REA         0.0025
     41 H21        20.2643   25.7372   17.9406 H         1 REA         0.0690
     42 H22        19.4850   25.5230   16.3365 H         1 REA         0.0690
     43 H23        18.5243   26.1292   17.7280 H         1 REA         0.0690
     44 H24        24.0837   27.2131   19.6092 H         1 REA         0.0349
     45 H25        24.3196   25.5570   20.2635 H         1 REA         0.0349
     46 H26        24.1341   26.9479   21.3850 H         1 REA         0.0349
     47 H27        24.4141   22.9306   25.3878 H         1 REA         0.0452
     48 H28        24.0220   24.6084   24.8803 H         1 REA         0.0452
     49 H29        24.6967   23.4445   23.6900 H         1 REA         0.0452
@<TRIPOS>BOND
     1    1    2 1  
     2    1    6 1  
     3    1   16 1  
     4    1   17 1  
     5    2    3 1  
     6    3    4 1  
     7    4    5 1  
     8    5    6 2  
     9    5   18 1  
    10    6    7 1  
    11    7    8 2  
    12    8    9 1  
    13    9   10 2  
    14    9   19 1  
    15   10   11 1  
    16   11   12 2  
    17   12   13 1  
    18   13   14 2  
    19   13   20 1  
    20   14   15 1  
    21   15   21 ar 
    22   15   22 ar 
    23    2   23 1  
    24    2   24 1  
    25    3   25 1  
    26    3   26 1  
    27    4   27 1  
    28    4   28 1  
    29    7   29 1  
    30    8   30 1  
    31   10   31 1  
    32   11   32 1  
    33   12   33 1  
    34   14   34 1  
    35   16   35 1  
    36   16   36 1  
    37   16   37 1  
    38   17   38 1  
    39   17   39 1  
    40   17   40 1  
    41   18   41 1  
    42   18   42 1  
    43   18   43 1  
    44   19   44 1  
    45   19   45 1  
    46   19   46 1  
    47   20   47 1  
    48   20   48 1  
    49   20   49 1  
@<TRIPOS>SUBSTRUCTURE
     1 REA         1

