### 
### Created by X-TOOL on Mon Sep 10 21:12:54 2018
### 

@<TRIPOS>MOLECULE
2fs8_ligand
   81    85     1     0     0
SMALL
GAST_HUCK


@<TRIPOS>ATOM
      1 C2          0.9720   18.4470   72.1530 C.3       1 C3A        -0.0280
      2 C5         -0.1230   21.1900   70.1580 C.2       1 C3A         0.3199
      3 C1          2.0830   18.0260   71.3570 C.3       1 C3A        -0.0629
      4 C3          0.1260   19.8730   72.3780 C.3       1 C3A         0.0771
      5 O4         -0.7850   20.7230   71.3370 O.3       1 C3A        -0.2639
      6 O6          1.0820   20.5910   69.9620 O.2       1 C3A        -0.3775
      7 C8         -1.4350   22.4380   68.1450 C.3       1 C3A         0.0807
      8 C9         -0.9800   23.9010   67.8760 C.3       1 C3A        -0.0252
      9 N7         -0.4110   21.8450   69.0080 N.am      1 C3A        -0.2550
     10 C10         0.4550   23.8930   67.1980 C.3       1 C3A        -0.0429
     11 C11         1.4460   25.0010   67.6030 C.3       1 C3A         0.0040
     12 C12         1.0480   25.9870   68.7150 C.3       1 C3A        -0.0049
     13 C13         1.7360   27.2840   68.2710 C.3       1 C3A        -0.0332
     14 N14         2.4120   27.0140   67.0040 N.4       1 C3A         0.2272
     15 C15         1.7800   25.8670   66.4220 C.3       1 C3A        -0.0306
     16 C16        -2.8620   22.1000   68.4190 C.3       1 C3A         0.1283
     17 O17        -3.6130   23.1900   68.7200 O.3       1 C3A        -0.3757
     18 C18        -3.3960   21.1440   69.3190 C.2       1 C3A         0.1086
     19 N19        -4.4990   21.3110   69.9960 N.2       1 C3A        -0.1416
     20 O20        -4.7760   20.2280   70.7140 O.3       1 C3A        -0.1457
     21 C21        -3.7500   19.3320   70.4400 C.2       1 C3A         0.2227
     22 C22        -3.6510   18.0800   70.9630 C.3       1 C3A         0.0780
     23 C23        -4.9610   17.3780   70.9310 C.ar      1 C3A        -0.0174
     24 C24        -5.9200   17.5510   72.0860 C.ar      1 C3A        -0.0515
     25 C25        -7.2030   16.8570   72.0810 C.ar      1 C3A        -0.0479
     26 C26        -7.5080   16.0090   70.9270 C.ar      1 C3A         0.0431
     27 C27        -6.5530   15.8850   69.8500 C.ar      1 C3A        -0.0479
     28 C28        -5.3300   16.5350   69.8330 C.ar      1 C3A        -0.0515
     29 C29        -8.7210   15.2390   70.8220 C.2       1 C3A         0.2007
     30 O30        -9.7090   15.5570   71.2840 O.2       1 C3A        -0.3877
     31 N31        -8.5040   14.1150   70.1750 N.am      1 C3A        -0.2806
     32 C32        -9.2050   12.9560   69.7950 C.3       1 C3A         0.0584
     33 C33       -10.1690   12.2090   70.6270 C.3       1 C3A         0.0032
     34 C34       -11.0440   11.5320   69.6940 C.ar      1 C3A        -0.0386
     35 C35       -12.0930   10.5950   70.0370 C.ar      1 C3A        -0.0668
     36 C36       -12.8560   10.0240   68.9540 C.ar      1 C3A        -0.0755
     37 C37       -12.5780   10.3720   67.5570 C.ar      1 C3A        -0.0755
     38 C38       -11.5310   11.3190   67.2420 C.ar      1 C3A        -0.0668
     39 C39       -10.7500   11.8800   68.3200 C.ar      1 C3A        -0.0386
     40 C40        -9.6310   12.8730   68.2390 C.3       1 C3A         0.0032
     41 N41        -2.8980   19.8940   69.5820 N.2       1 C3A        -0.2724
     42 H1          1.3038   18.2034   73.1731 H         1 C3A         0.0288
     43 H2          0.1809   17.7464   71.8476 H         1 C3A         0.0288
     44 H3          2.2894   16.9627   71.5488 H         1 C3A         0.0231
     45 H4          2.9685   18.6242   71.6178 H         1 C3A         0.0231
     46 H5          1.8456   18.1672   70.2922 H         1 C3A         0.0231
     47 H6          0.8916   20.5893   72.7109 H         1 C3A         0.0611
     48 H7         -0.5561   19.6513   73.2120 H         1 C3A         0.0611
     49 H8         -1.2837   21.9440   67.1739 H         1 C3A         0.0604
     50 H9         -0.9328   24.4511   68.8274 H         1 C3A         0.0290
     51 H10        -1.7000   24.3912   67.2043 H         1 C3A         0.0290
     52 H11         0.4623   21.9863   68.5417 H         1 C3A         0.1873
     53 H12         0.3049   23.9682   66.1109 H         1 C3A         0.0271
     54 H13         0.9258   22.9281   67.4373 H         1 C3A         0.0271
     55 H14         2.3590   24.4864   67.9370 H         1 C3A         0.0354
     56 H15         1.4221   25.6538   69.6943 H         1 C3A         0.0321
     57 H16        -0.0438   26.1125   68.7629 H         1 C3A         0.0321
     58 H17         2.4697   27.5977   69.0282 H         1 C3A         0.0814
     59 H18         0.9872   28.0782   68.1348 H         1 C3A         0.0814
     60 H19         3.3885   26.8245   67.1671 H         1 C3A         0.2013
     61 H20         2.3219   27.8072   66.3886 H         1 C3A         0.2013
     62 H21         0.8685   26.1561   65.8783 H         1 C3A         0.0816
     63 H22         2.4662   25.3474   65.7371 H         1 C3A         0.0816
     64 H23        -3.1959   21.7420   67.4339 H         1 C3A         0.0792
     65 H24        -4.5088   22.9202   68.8849 H         1 C3A         0.2131
     66 H25        -3.3086   18.1529   72.0058 H         1 C3A         0.0706
     67 H26        -2.9206   17.5031   70.3767 H         1 C3A         0.0706
     68 H27        -5.6542   18.1915   72.9191 H         1 C3A         0.0576
     69 H28        -7.9041   16.9650   72.9007 H         1 C3A         0.0653
     70 H29        -6.8073   15.2489   69.0099 H         1 C3A         0.0653
     71 H30        -4.6560   16.4066   68.9938 H         1 C3A         0.0576
     72 H31        -7.5566   14.0708   69.8580 H         1 C3A         0.1849
     73 H32        -8.3633   12.2484   69.8247 H         1 C3A         0.0598
     74 H33       -10.7443   12.8991   71.2617 H         1 C3A         0.0435
     75 H34        -9.6445   11.4788   71.2608 H         1 C3A         0.0435
     76 H35       -12.2974   10.3324   71.0687 H         1 C3A         0.0537
     77 H36       -13.6518    9.3228   69.1777 H         1 C3A         0.0541
     78 H37       -13.1572    9.9195   66.7602 H         1 C3A         0.0541
     79 H38       -11.3357   11.6030   66.2142 H         1 C3A         0.0537
     80 H39        -8.8063   12.5062   67.6103 H         1 C3A         0.0435
     81 H40        -9.9769   13.8457   67.8593 H         1 C3A         0.0435
@<TRIPOS>BOND
     1    1    3 1  
     2    4    1 1  
     3    2    5 1  
     4    2    6 2  
     5    9    2 am 
     6    5    4 1  
     7    7    8 1  
     8    7    9 1  
     9    7   16 1  
    10    8   10 1  
    11   10   11 1  
    12   11   12 1  
    13   11   15 1  
    14   12   13 1  
    15   13   14 1  
    16   14   15 1  
    17   16   17 1  
    18   16   18 1  
    19   18   19 2  
    20   18   41 1  
    21   19   20 1  
    22   20   21 1  
    23   21   22 1  
    24   21   41 2  
    25   22   23 1  
    26   23   24 ar 
    27   23   28 ar 
    28   24   25 ar 
    29   25   26 ar 
    30   26   27 ar 
    31   26   29 1  
    32   27   28 ar 
    33   29   30 2  
    34   29   31 am 
    35   31   32 1  
    36   32   33 1  
    37   32   40 1  
    38   33   34 1  
    39   34   35 ar 
    40   34   39 ar 
    41   35   36 ar 
    42   36   37 ar 
    43   37   38 ar 
    44   38   39 ar 
    45   39   40 1  
    46    1   42 1  
    47    1   43 1  
    48    3   44 1  
    49    3   45 1  
    50    3   46 1  
    51    4   47 1  
    52    4   48 1  
    53    7   49 1  
    54    8   50 1  
    55    8   51 1  
    56    9   52 1  
    57   10   53 1  
    58   10   54 1  
    59   11   55 1  
    60   12   56 1  
    61   12   57 1  
    62   13   58 1  
    63   13   59 1  
    64   14   60 1  
    65   14   61 1  
    66   15   62 1  
    67   15   63 1  
    68   16   64 1  
    69   17   65 1  
    70   22   66 1  
    71   22   67 1  
    72   24   68 1  
    73   25   69 1  
    74   27   70 1  
    75   28   71 1  
    76   31   72 1  
    77   32   73 1  
    78   33   74 1  
    79   33   75 1  
    80   35   76 1  
    81   36   77 1  
    82   37   78 1  
    83   38   79 1  
    84   40   80 1  
    85   40   81 1  
@<TRIPOS>SUBSTRUCTURE
     1 C3A         1

