### 
### Created by X-TOOL on Mon Sep 10 21:12:54 2018
### 

@<TRIPOS>MOLECULE
2fs9_ligand
   74    77     1     0     0
SMALL
GAST_HUCK


@<TRIPOS>ATOM
      1 N1         71.3580   45.0280   85.5190 N.4       1 C4A         0.2185
      2 C2         70.2200   44.4320   84.8080 C.3       1 C4A        -0.0354
      3 C4         67.8510   43.5560   85.3260 C.3       1 C4A        -0.0459
      4 C5         66.4300   43.9870   85.7780 C.3       1 C4A        -0.0254
      5 C6         65.2910   42.9920   85.3790 C.3       1 C4A         0.0807
      6 C3         68.9020   44.6680   85.5820 C.3       1 C4A        -0.0126
      7 C8         64.4300   42.5540   83.0580 C.2       1 C4A         0.3199
      8 O9         64.5020   41.3250   83.1490 O.2       1 C4A        -0.3775
      9 N7         64.7830   43.3600   84.0670 N.am      1 C4A        -0.2550
     10 O10        63.9830   43.1440   81.9400 O.3       1 C4A        -0.2642
     11 C11        63.7940   42.5570   80.6320 C.3       1 C4A         0.0745
     12 C12        62.8870   43.4610   79.7640 C.3       1 C4A        -0.0372
     13 O14        64.5770   42.6490   87.7360 O.3       1 C4A        -0.3757
     14 C15        63.0270   42.0300   86.0940 C.2       1 C4A         0.1086
     15 N16        62.8730   40.7830   86.5850 N.2       1 C4A        -0.1416
     16 O17        61.8220   40.2280   86.0480 O.3       1 C4A        -0.1457
     17 C18        61.2920   41.1410   85.1940 C.2       1 C4A         0.2227
     18 C19        60.0870   40.9360   84.3570 C.3       1 C4A         0.0780
     19 C20        58.8380   40.7000   85.1410 C.ar      1 C4A        -0.0174
     20 C21        58.6920   39.5190   85.9640 C.ar      1 C4A        -0.0515
     21 C22        57.4960   39.2930   86.7060 C.ar      1 C4A        -0.0479
     22 C23        56.3910   40.2350   86.6650 C.ar      1 C4A         0.0431
     23 C24        56.5500   41.4110   85.8360 C.ar      1 C4A        -0.0479
     24 C25        57.7480   41.6400   85.0920 C.ar      1 C4A        -0.0515
     25 C26        55.2080   40.0070   87.4020 C.2       1 C4A         0.2007
     26 O27        55.1020   38.9830   88.1020 O.2       1 C4A        -0.3877
     27 N28        54.1870   40.8760   87.3600 N.am      1 C4A        -0.2806
     28 C29        52.9430   40.7750   88.0600 C.3       1 C4A         0.0584
     29 C30        52.3760   42.1320   88.5460 C.3       1 C4A         0.0032
     30 C31        50.9510   41.8500   88.6200 C.ar      1 C4A        -0.0386
     31 C32        50.6170   40.6960   87.8510 C.ar      1 C4A        -0.0386
     32 C33        51.8040   40.1340   87.2110 C.3       1 C4A         0.0032
     33 C34        49.2610   40.2320   87.7760 C.ar      1 C4A        -0.0668
     34 C35        48.2440   40.9480   88.4990 C.ar      1 C4A        -0.0755
     35 C36        48.5870   42.1130   89.2780 C.ar      1 C4A        -0.0755
     36 C37        49.9510   42.5690   89.3440 C.ar      1 C4A        -0.0668
     37 N38        62.0360   42.2600   85.2200 N.2       1 C4A        -0.2724
     38 C13        64.1060   43.0000   86.4370 C.3       1 C4A         0.1283
     39 H1         72.2043   44.8621   84.9972 H         1 C4A         0.1994
     40 H2         71.4394   44.6104   86.4328 H         1 C4A         0.1994
     41 H3         71.2117   46.0207   85.6150 H         1 C4A         0.1994
     42 H4         70.3874   43.3499   84.7031 H         1 C4A         0.0813
     43 H5         70.1389   44.8889   83.8107 H         1 C4A         0.0813
     44 H6         67.8283   43.3292   84.2499 H         1 C4A         0.0268
     45 H7         68.1437   42.6548   85.8846 H         1 C4A         0.0268
     46 H8         66.2069   44.9639   85.3242 H         1 C4A         0.0290
     47 H9         66.4329   44.0838   86.8737 H         1 C4A         0.0290
     48 H10        65.7102   41.9761   85.3310 H         1 C4A         0.0604
     49 H11        68.4772   45.6329   85.2680 H         1 C4A         0.0317
     50 H12        69.1265   44.6991   86.6584 H         1 C4A         0.0317
     51 H13        64.6848   44.3405   83.8967 H         1 C4A         0.1873
     52 H14        63.3229   41.5691   80.7422 H         1 C4A         0.0608
     53 H15        64.7714   42.4443   80.1401 H         1 C4A         0.0608
     54 H16        62.7524   43.0022   78.7733 H         1 C4A         0.0255
     55 H17        63.3561   44.4494   79.6496 H         1 C4A         0.0255
     56 H18        61.9076   43.5742   80.2517 H         1 C4A         0.0255
     57 H19        65.2365   43.2746   88.0122 H         1 C4A         0.2131
     58 H20        60.2594   40.0636   83.7096 H         1 C4A         0.0706
     59 H21        59.9412   41.8313   83.7348 H         1 C4A         0.0706
     60 H22        59.5003   38.7987   86.0169 H         1 C4A         0.0576
     61 H23        57.4093   38.3995   87.3136 H         1 C4A         0.0653
     62 H24        55.7434   42.1329   85.7785 H         1 C4A         0.0653
     63 H25        57.8376   42.5323   84.4831 H         1 C4A         0.0576
     64 H26        54.3081   41.6799   86.7776 H         1 C4A         0.1849
     65 H27        53.1236   40.1395   88.9395 H         1 C4A         0.0598
     66 H28        52.5882   42.9358   87.8257 H         1 C4A         0.0435
     67 H29        52.7817   42.4058   89.5311 H         1 C4A         0.0435
     68 H30        51.8180   39.0364   87.2822 H         1 C4A         0.0435
     69 H31        51.8718   40.4339   86.1549 H         1 C4A         0.0435
     70 H32        49.0079   39.3587   87.1858 H         1 C4A         0.0537
     71 H33        47.2147   40.6105   88.4583 H         1 C4A         0.0541
     72 H34        47.8133   42.6480   89.8167 H         1 C4A         0.0541
     73 H35        50.2142   43.4410   89.9317 H         1 C4A         0.0537
     74 H36        63.6798   44.0136   86.4666 H         1 C4A         0.0792
@<TRIPOS>BOND
     1    2    1 1  
     2    6    2 1  
     3    4    3 1  
     4    3    6 1  
     5    5    4 1  
     6    5    9 1  
     7   38    5 1  
     8    7    8 2  
     9    9    7 am 
    10    7   10 1  
    11   10   11 1  
    12   11   12 1  
    13   38   13 1  
    14   14   15 2  
    15   14   37 1  
    16   14   38 1  
    17   15   16 1  
    18   16   17 1  
    19   17   18 1  
    20   17   37 2  
    21   18   19 1  
    22   19   20 ar 
    23   19   24 ar 
    24   20   21 ar 
    25   21   22 ar 
    26   22   23 ar 
    27   22   25 1  
    28   23   24 ar 
    29   25   26 2  
    30   25   27 am 
    31   27   28 1  
    32   28   29 1  
    33   28   32 1  
    34   29   30 1  
    35   30   31 ar 
    36   30   36 ar 
    37   31   32 1  
    38   31   33 ar 
    39   33   34 ar 
    40   34   35 ar 
    41   35   36 ar 
    42    1   39 1  
    43    1   40 1  
    44    1   41 1  
    45    2   42 1  
    46    2   43 1  
    47    3   44 1  
    48    3   45 1  
    49    4   46 1  
    50    4   47 1  
    51    5   48 1  
    52    6   49 1  
    53    6   50 1  
    54    9   51 1  
    55   11   52 1  
    56   11   53 1  
    57   12   54 1  
    58   12   55 1  
    59   12   56 1  
    60   13   57 1  
    61   18   58 1  
    62   18   59 1  
    63   20   60 1  
    64   21   61 1  
    65   23   62 1  
    66   24   63 1  
    67   27   64 1  
    68   28   65 1  
    69   29   66 1  
    70   29   67 1  
    71   32   68 1  
    72   32   69 1  
    73   33   70 1  
    74   34   71 1  
    75   35   72 1  
    76   36   73 1  
    77   38   74 1  
@<TRIPOS>SUBSTRUCTURE
     1 C4A         1

