### 
### Created by X-TOOL on Mon Sep 10 21:12:56 2018
### 

@<TRIPOS>MOLECULE
2ftd_ligand
   72    75     1     0     0
SMALL
GAST_HUCK


@<TRIPOS>ATOM
      1 N3         85.4710  -24.4740 -102.1030 N.ar      1 ILI        -0.2696
      2 C4         85.1060  -24.7850 -100.8030 C.ar      1 ILI         0.1821
      3 C5         84.8840  -23.8180  -99.7910 C.ar      1 ILI        -0.0062
      4 C6         85.0510  -22.4570 -100.1470 C.ar      1 ILI        -0.0398
      5 C13        83.3540  -27.6300 -104.8420 C.3       1 ILI         0.0695
      6 C15        82.4240  -25.6830 -103.1940 C.3       1 ILI        -0.0311
      7 C20        82.4820  -29.2960 -106.4190 C.2       1 ILI         0.2019
      8 C22        81.4810  -30.4480 -106.6640 C.3       1 ILI         0.1305
      9 C24        81.3160  -33.0330 -106.7540 C.3       1 ILI        -0.0425
     10 C26        80.1120  -33.1050 -105.7800 C.3       1 ILI        -0.0625
     11 C28        80.0600  -29.2920 -108.3640 C.2       1 ILI         0.2402
     12 C1         85.4230  -22.1000 -101.4670 C.ar      1 ILI        -0.0333
     13 C2         85.6210  -23.1360 -102.4070 C.ar      1 ILI         0.0137
     14 S7         84.9240  -26.5510 -100.4950 S.o2      1 ILI         0.0864
     15 O8         84.2860  -26.6790  -99.1810 O.2       1 ILI        -0.1482
     16 O9         86.2580  -27.1320 -100.6920 O.2       1 ILI        -0.1482
     17 N10        83.8840  -27.0700 -101.7040 N.am      1 ILI        -0.2271
     18 C11        84.2680  -28.2610 -102.5140 C.3       1 ILI         0.0582
     19 C12        84.6440  -28.0350 -103.9920 C.3       1 ILI         0.0950
     20 C14        82.3160  -26.5250 -104.4530 C.3       1 ILI        -0.0257
     21 C16        82.5720  -26.3840 -101.8430 C.3       1 ILI         0.0383
     22 O17        85.5620  -27.0680 -104.0990 O.3       1 ILI        -0.3879
     23 C18        81.3950  -27.3300 -101.5170 C.3       1 ILI        -0.0451
     24 N19        82.4790  -28.7640 -105.1560 N.am      1 ILI        -0.2795
     25 O21        83.2110  -28.8730 -107.3390 O.2       1 ILI        -0.3945
     26 C23        82.2070  -31.7990 -106.5060 C.3       1 ILI        -0.0101
     27 C25        82.1400  -34.2940 -106.5970 C.3       1 ILI        -0.0625
     28 N27        81.0190  -30.2380 -108.0310 N.am      1 ILI        -0.2629
     29 O29        79.5420  -28.5790 -107.5060 O.2       1 ILI        -0.3826
     30 C30        79.7690  -29.1940 -109.7720 C.2       1 ILI         0.1914
     31 C31        79.6720  -30.1180 -110.7820 C.2       1 ILI        -0.0221
     32 C32        79.3850  -29.4290 -111.9750 C.ar      1 ILI        -0.0008
     33 C33        79.3160  -28.0700 -111.6070 C.ar      1 ILI         0.1284
     34 O34        79.5500  -27.9360 -110.2780 O.3       1 ILI        -0.2416
     35 C35        79.1700  -29.7850 -113.3420 C.ar      1 ILI        -0.0670
     36 C36        78.8930  -28.7520 -114.2900 C.ar      1 ILI        -0.0739
     37 C37        78.8310  -27.3870 -113.8800 C.ar      1 ILI        -0.0709
     38 C38        79.0430  -27.0150 -112.5200 C.ar      1 ILI        -0.0282
     39 H1         84.5983  -24.1077  -98.7863 H         1 ILI         0.0733
     40 H2         84.8931  -21.6832  -99.4044 H         1 ILI         0.0740
     41 H3         83.7905  -27.2825 -105.7900 H         1 ILI         0.0582
     42 H4         81.5144  -25.0669 -103.1393 H         1 ILI         0.0284
     43 H5         83.3015  -25.0312 -103.3166 H         1 ILI         0.0284
     44 H6         80.6384  -30.3973 -105.9587 H         1 ILI         0.0799
     45 H7         80.9305  -32.9801 -107.7829 H         1 ILI         0.0298
     46 H8         79.5139  -34.0011 -106.0020 H         1 ILI         0.0232
     47 H9         79.4874  -32.2078 -105.9021 H         1 ILI         0.0232
     48 H10        80.4804  -33.1573 -104.7448 H         1 ILI         0.0232
     49 H11        85.5520  -21.0609 -101.7477 H         1 ILI         0.0713
     50 H12        85.9050  -22.8665 -103.4178 H         1 ILI         0.0828
     51 H13        83.4177  -28.9586 -102.4949 H         1 ILI         0.0504
     52 H14        85.1352  -28.7262 -102.0225 H         1 ILI         0.0504
     53 H15        85.0601  -28.9693 -104.3969 H         1 ILI         0.0632
     54 H16        81.3428  -27.0340 -104.3922 H         1 ILI         0.0289
     55 H17        82.3057  -25.8130 -105.2914 H         1 ILI         0.0289
     56 H18        82.5516  -25.5908 -101.0812 H         1 ILI         0.0511
     57 H19        85.2124  -26.2601 -103.7418 H         1 ILI         0.2099
     58 H20        81.5630  -27.7999 -100.5367 H         1 ILI         0.0248
     59 H21        81.3260  -28.1094 -102.2901 H         1 ILI         0.0248
     60 H22        80.4580  -26.7544 -101.4919 H         1 ILI         0.0248
     61 H23        81.8823  -29.1477 -104.4512 H         1 ILI         0.1855
     62 H24        82.6016  -31.8599 -105.4810 H         1 ILI         0.0315
     63 H25        83.0412  -31.8273 -107.2224 H         1 ILI         0.0315
     64 H26        81.5027  -35.1729 -106.7743 H         1 ILI         0.0232
     65 H27        82.5511  -34.3389 -105.5777 H         1 ILI         0.0232
     66 H28        82.9646  -34.2862 -107.3250 H         1 ILI         0.0232
     67 H29        81.4101  -30.7999 -108.7599 H         1 ILI         0.1874
     68 H30        79.7954  -31.1950 -110.6785 H         1 ILI         0.0460
     69 H31        79.2162  -30.8218 -113.6550 H         1 ILI         0.0568
     70 H32        78.7285  -29.0081 -115.3304 H         1 ILI         0.0535
     71 H33        78.6190  -26.6192 -114.6153 H         1 ILI         0.0563
     72 H34        78.9983  -25.9807 -112.1986 H         1 ILI         0.0568
@<TRIPOS>BOND
     1    2    1 ar 
     2    1   13 ar 
     3    2    3 ar 
     4   14    2 1  
     5    3    4 ar 
     6    4   12 ar 
     7    5   19 1  
     8   20    5 1  
     9    5   24 1  
    10    6   20 1  
    11   21    6 1  
    12    7    8 1  
    13   24    7 am 
    14    7   25 2  
    15    8   26 1  
    16    8   28 1  
    17    9   10 1  
    18   26    9 1  
    19    9   27 1  
    20   28   11 am 
    21   11   29 2  
    22   11   30 1  
    23   13   12 ar 
    24   14   15 2  
    25   14   16 2  
    26   17   14 am 
    27   17   18 1  
    28   17   21 1  
    29   18   19 1  
    30   19   22 1  
    31   21   23 1  
    32   30   31 2  
    33   30   34 1  
    34   31   32 1  
    35   32   33 ar 
    36   32   35 ar 
    37   33   34 1  
    38   33   38 ar 
    39   35   36 ar 
    40   36   37 ar 
    41   37   38 ar 
    42    3   39 1  
    43    4   40 1  
    44    5   41 1  
    45    6   42 1  
    46    6   43 1  
    47    8   44 1  
    48    9   45 1  
    49   10   46 1  
    50   10   47 1  
    51   10   48 1  
    52   12   49 1  
    53   13   50 1  
    54   18   51 1  
    55   18   52 1  
    56   19   53 1  
    57   20   54 1  
    58   20   55 1  
    59   21   56 1  
    60   22   57 1  
    61   23   58 1  
    62   23   59 1  
    63   23   60 1  
    64   24   61 1  
    65   26   62 1  
    66   26   63 1  
    67   27   64 1  
    68   27   65 1  
    69   27   66 1  
    70   28   67 1  
    71   31   68 1  
    72   35   69 1  
    73   36   70 1  
    74   37   71 1  
    75   38   72 1  
@<TRIPOS>SUBSTRUCTURE
     1 ILI         1

