### 
### Created by X-TOOL on Mon Sep 10 21:12:55 2018
### 

@<TRIPOS>MOLECULE
2fu8_ligand
   28    28     1     0     0
SMALL
GAST_HUCK


@<TRIPOS>ATOM
      1 O2         12.4610   27.8840   36.7350 O.co2     1 MCO        -0.5666
      2 C9         12.2550   28.3950   35.5990 C.2       1 MCO         0.0603
      3 O3         12.4650   29.6100   35.3680 O.co2     1 MCO        -0.5666
      4 C8         11.5800   27.5560   34.5390 C.3       1 MCO         0.0971
      5 C7         10.1170   27.4990   34.9540 C.3       1 MCO        -0.0159
      6 C6          9.2650   28.2030   33.9290 C.3       1 MCO        -0.0288
      7 C5         10.2110   28.5780   32.8020 C.3       1 MCO         0.0362
      8 N          11.5460   28.1730   33.1870 N.am      1 MCO        -0.2572
      9 C4         12.6470   28.3380   32.4130 C.2       1 MCO         0.1838
     10 O1         13.7630   27.9650   32.7670 O.2       1 MCO        -0.3964
     11 C2         12.5530   28.9890   31.0430 C.3       1 MCO         0.0548
     12 C3         13.1740   28.0450   29.9990 C.3       1 MCO        -0.0446
     13 C1         13.2790   30.3310   31.0050 C.3       1 MCO         0.0101
     14 S          12.5730   31.5720   32.1160 S.3       1 MCO        -0.1756
     15 H1         12.0419   26.5587   34.4933 H         1 MCO         0.0728
     16 H2          9.9952   27.9917   35.9299 H         1 MCO         0.0306
     17 H3          9.8006   26.4484   35.0317 H         1 MCO         0.0306
     18 H4          8.8080   29.1045   34.3630 H         1 MCO         0.0286
     19 H5          8.4748   27.5325   33.5602 H         1 MCO         0.0286
     20 H6         10.1834   29.6652   32.6373 H         1 MCO         0.0524
     21 H7          9.9153   28.0596   31.8780 H         1 MCO         0.0524
     22 H8         11.4929   29.1534   30.7999 H         1 MCO         0.0543
     23 H9         13.1108   28.5075   29.0030 H         1 MCO         0.0257
     24 H10        12.6265   27.0910   29.9956 H         1 MCO         0.0257
     25 H11        14.2287   27.8616   30.2519 H         1 MCO         0.0257
     26 H12        13.2355   30.7203   29.9771 H         1 MCO         0.0401
     27 H13        14.3284   30.1663   31.2906 H         1 MCO         0.0401
     28 H14        13.0993   32.4283   32.0392 H         1 MCO         0.1018
@<TRIPOS>BOND
     1    1    2 ar 
     2    2    3 ar 
     3    2    4 1  
     4    4    5 1  
     5    4    8 1  
     6    5    6 1  
     7    6    7 1  
     8    7    8 1  
     9    8    9 am 
    10    9   10 2  
    11    9   11 1  
    12   11   12 1  
    13   11   13 1  
    14   13   14 1  
    15    4   15 1  
    16    5   16 1  
    17    5   17 1  
    18    6   18 1  
    19    6   19 1  
    20    7   20 1  
    21    7   21 1  
    22   11   22 1  
    23   12   23 1  
    24   12   24 1  
    25   12   25 1  
    26   13   26 1  
    27   13   27 1  
    28   14   28 1  
@<TRIPOS>SUBSTRUCTURE
     1 MCO         1

