### 
### Created by X-TOOL on Mon Sep 10 21:12:54 2018
### 

@<TRIPOS>MOLECULE
2fum_ligand
   62    64     1     0     0
SMALL
GAST_HUCK


@<TRIPOS>ATOM
      1 OAC        66.6340    9.8490  -22.9810 O.3       1 MIX        -0.3898
      2 CAK        65.7040   10.6410  -22.2080 C.3       1 MIX         0.0840
      3 CAM        64.2580   10.3380  -22.6500 C.3       1 MIX        -0.0099
      4 NAS        64.2050   10.0110  -24.0970 N.4       1 MIX         0.2300
      5 CAO        64.3500    8.5630  -24.3640 C.3       1 MIX        -0.0138
      6 CAQ        63.0350    8.0410  -24.9550 C.3       1 MIX         0.0631
      7 NAU        63.2090    6.6690  -25.4520 N.pl3     1 MIX        -0.3187
      8 CAY        62.8460    5.6090  -24.7280 C.ar      1 MIX         0.0509
      9 CAI        62.7140    5.6940  -23.3500 C.ar      1 MIX        -0.0429
     10 CAJ        62.3420    4.5890  -22.5940 C.ar      1 MIX        -0.0429
     11 CBE        62.6050    4.3970  -25.3470 C.ar      1 MIX         0.0551
     12 CBA        62.7450    4.3240  -26.7240 C.2       1 MIX         0.1476
     13 OAA        63.0770    5.3290  -27.3550 O.2       1 MIX        -0.3783
     14 CBC        62.5130    3.1200  -27.3730 C.ar      1 MIX         0.0684
     15 CAW        62.6510    3.0220  -28.7480 C.ar      1 MIX         0.1017
     16 OAE        63.0170    4.1010  -29.4660 O.3       1 MIX        -0.3332
     17 CAG        62.4040    1.8300  -29.4010 C.ar      1 MIX        -0.0297
     18 CAH        62.0250    0.7210  -28.6570 C.ar      1 MIX        -0.0297
     19 CAX        61.8870    0.8000  -27.2810 C.ar      1 MIX         0.1017
     20 OAF        61.5180   -0.2890  -26.5660 O.3       1 MIX        -0.3332
     21 CBD        62.1350    2.0010  -26.6440 C.ar      1 MIX         0.0684
     22 CBB        61.9970    2.0720  -25.2710 C.2       1 MIX         0.1476
     23 OAB        61.6580    1.0480  -24.6820 O.2       1 MIX        -0.3783
     24 CBF        62.2330    3.2730  -24.5960 C.ar      1 MIX         0.0551
     25 CAZ        62.0960    3.3760  -23.2050 C.ar      1 MIX         0.0509
     26 NAV        61.7410    2.3620  -22.4250 N.pl3     1 MIX        -0.3187
     27 CAR        60.4000    2.2990  -21.8470 C.3       1 MIX         0.0631
     28 CAP        60.4630    1.2460  -20.7550 C.3       1 MIX        -0.0138
     29 NAT        59.1020    0.9350  -20.2950 N.4       1 MIX         0.2300
     30 CAN        58.8450    1.4460  -18.9220 C.3       1 MIX        -0.0099
     31 CAL        58.9240    0.2940  -17.8890 C.3       1 MIX         0.0840
     32 OAD        57.7900   -0.6030  -17.9610 O.3       1 MIX        -0.3898
     33 H1         67.5212   10.0424  -22.7018 H         1 MIX         0.2096
     34 H2         65.9166   11.7087  -22.3651 H         1 MIX         0.0610
     35 H3         65.8173   10.3976  -21.1413 H         1 MIX         0.0610
     36 H4         63.6298   11.2200  -22.4567 H         1 MIX         0.0836
     37 H5         63.8766    9.4826  -22.0731 H         1 MIX         0.0836
     38 H6         64.9511   10.5010  -24.5653 H         1 MIX         0.2015
     39 H7         63.3183   10.3188  -24.4644 H         1 MIX         0.2015
     40 H8         64.5706    8.0333  -23.4255 H         1 MIX         0.0833
     41 H9         65.1691    8.3982  -25.0794 H         1 MIX         0.0833
     42 H10        62.7271    8.6919  -25.7865 H         1 MIX         0.0563
     43 H11        62.2584    8.0491  -24.1760 H         1 MIX         0.0563
     44 H12        63.6222    6.5219  -26.3840 H         1 MIX         0.1750
     45 H13        62.9043    6.6389  -22.8541 H         1 MIX         0.0543
     46 H14        62.2444    4.6801  -21.5182 H         1 MIX         0.0543
     47 H15        62.3754    4.7914  -29.3474 H         1 MIX         0.2477
     48 H16        62.5046    1.7616  -30.4782 H         1 MIX         0.0571
     49 H17        61.8343   -0.2201  -29.1600 H         1 MIX         0.0571
     50 H18        61.4717   -0.0609  -25.6450 H         1 MIX         0.2477
     51 H19        62.4178    1.6117  -22.2251 H         1 MIX         0.1750
     52 H20        59.6665    2.0103  -22.6142 H         1 MIX         0.0563
     53 H21        60.1211    3.2743  -21.4216 H         1 MIX         0.0563
     54 H22        61.0568    1.6277  -19.9114 H         1 MIX         0.0833
     55 H23        60.9333    0.3341  -21.1516 H         1 MIX         0.0833
     56 H24        58.9786   -0.0654  -20.2978 H         1 MIX         0.2015
     57 H25        58.4406    1.3570  -20.9279 H         1 MIX         0.2015
     58 H26        57.8421    1.8964  -18.8855 H         1 MIX         0.0836
     59 H27        59.5984    2.2077  -18.6726 H         1 MIX         0.0836
     60 H28        58.9642    0.7292  -16.8796 H         1 MIX         0.0610
     61 H29        59.8413   -0.2835  -18.0761 H         1 MIX         0.0610
     62 H30        57.8875   -1.2878  -17.3099 H         1 MIX         0.2096
@<TRIPOS>BOND
     1    1    2 1  
     2    2    3 1  
     3    3    4 1  
     4    4    5 1  
     5    5    6 1  
     6    6    7 1  
     7    7    8 1  
     8    8    9 ar 
     9    8   11 ar 
    10    9   10 ar 
    11   10   25 ar 
    12   11   12 1  
    13   11   24 ar 
    14   12   13 2  
    15   12   14 1  
    16   14   15 ar 
    17   14   21 ar 
    18   15   16 1  
    19   15   17 ar 
    20   17   18 ar 
    21   18   19 ar 
    22   19   20 1  
    23   19   21 ar 
    24   21   22 1  
    25   22   23 2  
    26   22   24 1  
    27   24   25 ar 
    28   25   26 1  
    29   26   27 1  
    30   27   28 1  
    31   28   29 1  
    32   29   30 1  
    33   30   31 1  
    34   31   32 1  
    35    1   33 1  
    36    2   34 1  
    37    2   35 1  
    38    3   36 1  
    39    3   37 1  
    40    4   38 1  
    41    4   39 1  
    42    5   40 1  
    43    5   41 1  
    44    6   42 1  
    45    6   43 1  
    46    7   44 1  
    47    9   45 1  
    48   10   46 1  
    49   16   47 1  
    50   17   48 1  
    51   18   49 1  
    52   20   50 1  
    53   26   51 1  
    54   27   52 1  
    55   27   53 1  
    56   28   54 1  
    57   28   55 1  
    58   29   56 1  
    59   29   57 1  
    60   30   58 1  
    61   30   59 1  
    62   31   60 1  
    63   31   61 1  
    64   32   62 1  
@<TRIPOS>SUBSTRUCTURE
     1 MIX         1

