### 
### Created by X-TOOL on Mon Sep 10 21:12:54 2018
### 

@<TRIPOS>MOLECULE
2fv5_ligand
   59    62     1     0     0
SMALL
GAST_HUCK


@<TRIPOS>ATOM
      1 C20        12.1820    3.9980   31.8670 C.ar      1 541        -0.0466
      2 C1         13.4570    4.4610   31.4350 C.ar      1 541        -0.0602
      3 C2         13.5850    5.7120   30.7660 C.ar      1 541        -0.0595
      4 C3         12.4340    6.5180   30.5220 C.ar      1 541        -0.0495
      5 C21        11.1420    6.0780   30.9410 C.ar      1 541         0.0100
      6 C22        11.0230    4.7940   31.6330 C.ar      1 541         0.0284
      7 N1          9.7540    4.3720   32.0370 N.ar      1 541        -0.3135
      8 C4          7.3200    4.6240   32.2720 C.3       1 541        -0.0163
      9 C5          8.6270    5.1200   31.8210 C.ar      1 541         0.0122
     10 C6          8.7060    6.3740   31.1540 C.ar      1 541        -0.0262
     11 C7          9.9750    6.8730   30.7080 C.ar      1 541         0.0155
     12 C8         10.0960    8.2300   29.9750 C.3       1 541         0.1234
     13 C9          8.2760    8.3720   28.3810 C.ar      1 541         0.1337
     14 O2          8.8120    8.7940   29.6180 O.3       1 541        -0.2761
     15 C10         6.9500    8.7630   28.0490 C.ar      1 541         0.0024
     16 C11         6.3630    8.3480   26.8210 C.ar      1 541        -0.0454
     17 C12         7.1000    7.5410   25.9000 C.ar      1 541        -0.0530
     18 C13         8.4290    7.1440   26.2290 C.ar      1 541        -0.0454
     19 C14         9.0150    7.5610   27.4560 C.ar      1 541         0.0024
     20 C15         7.4850    7.2440   23.4020 C.3       1 541        -0.0491
     21 C16         6.4720    7.1260   24.5820 C.3       1 541         0.0299
     22 C17         5.8210    5.7640   24.7020 C.3       1 541        -0.0818
     23 C18         5.3720    8.1150   24.2160 C.2       1 541         0.1606
     24 O3          4.2370    8.1200   24.6690 O.2       1 541        -0.3706
     25 C19         7.0480    8.4760   22.5840 C.3       1 541         0.0270
     26 C23         5.3680   10.2910   23.1050 C.3       1 541         0.1315
     27 C24         6.3540   11.2770   23.6950 C.2       1 541         0.2245
     28 N2          5.7890   12.2200   24.4480 N.am      1 541        -0.1623
     29 O1          6.5980   13.1710   25.0440 O.3       1 541        -0.2717
     30 O4          7.5600   11.1720   23.4830 O.2       1 541        -0.3944
     31 C25         5.1470   10.5480   21.6170 C.3       1 541        -0.0242
     32 N3          5.8710    8.9460   23.2910 N.am      1 541        -0.2615
     33 H1         12.0929    3.0431   32.3723 H         1 541         0.0608
     34 H2         14.3381    3.8563   31.6168 H         1 541         0.0642
     35 H3         14.5613    6.0528   30.4410 H         1 541         0.0606
     36 H4         12.5407    7.4704   30.0154 H         1 541         0.0653
     37 H5          6.5407    5.3556   32.0123 H         1 541         0.0432
     38 H6          7.3388    4.4798   33.3623 H         1 541         0.0432
     39 H7          7.1016    3.6652   31.7790 H         1 541         0.0432
     40 H8          7.8060    6.9534   30.9825 H         1 541         0.0568
     41 H9         10.6817    8.0814   29.0559 H         1 541         0.0847
     42 H10        10.6199    8.9389   30.6331 H         1 541         0.0847
     43 H11         6.3827    9.3810   28.7355 H         1 541         0.0655
     44 H12         5.3486    8.6463   26.5821 H         1 541         0.0823
     45 H13         8.9939    6.5233   25.5429 H         1 541         0.0823
     46 H14        10.0296    7.2634   27.6948 H         1 541         0.0655
     47 H15         7.4503    6.3393   22.7773 H         1 541         0.0167
     48 H16         8.5055    7.3844   23.7877 H         1 541         0.0167
     49 H17         5.1246    5.7642   25.5535 H         1 541         0.0111
     50 H18         6.5960    5.0000   24.8623 H         1 541         0.0111
     51 H19         5.2694    5.5385   23.7774 H         1 541         0.0111
     52 H20         6.8002    8.1947   21.5499 H         1 541         0.0515
     53 H21         7.8358    9.2437   22.5765 H         1 541         0.0515
     54 H22         4.4063   10.3938   23.6290 H         1 541         0.0800
     55 H23         4.7979   12.2400   24.5800 H         1 541         0.2217
     56 H24         6.0607   13.7728   25.5455 H         1 541         0.2490
     57 H25         4.7648   11.5695   21.4742 H         1 541         0.0277
     58 H26         4.4167    9.8251   21.2245 H         1 541         0.0277
     59 H27         6.1002   10.4347   21.0798 H         1 541         0.0277
@<TRIPOS>BOND
     1    1    2 ar 
     2    6    1 ar 
     3    3    2 ar 
     4    4    3 ar 
     5    5    4 ar 
     6    5    6 ar 
     7   11    5 ar 
     8    6    7 ar 
     9    9    7 ar 
    10    9    8 1  
    11   10    9 ar 
    12   11   10 ar 
    13   12   11 1  
    14   14   12 1  
    15   13   14 1  
    16   15   13 ar 
    17   19   13 ar 
    18   16   15 ar 
    19   17   16 ar 
    20   17   18 ar 
    21   21   17 1  
    22   18   19 ar 
    23   20   21 1  
    24   25   20 1  
    25   21   22 1  
    26   23   21 1  
    27   23   24 2  
    28   32   23 am 
    29   32   25 1  
    30   26   27 1  
    31   26   31 1  
    32   26   32 1  
    33   27   28 am 
    34   27   30 2  
    35   28   29 1  
    36    1   33 1  
    37    2   34 1  
    38    3   35 1  
    39    4   36 1  
    40    8   37 1  
    41    8   38 1  
    42    8   39 1  
    43   10   40 1  
    44   12   41 1  
    45   12   42 1  
    46   15   43 1  
    47   16   44 1  
    48   18   45 1  
    49   19   46 1  
    50   20   47 1  
    51   20   48 1  
    52   22   49 1  
    53   22   50 1  
    54   22   51 1  
    55   25   52 1  
    56   25   53 1  
    57   26   54 1  
    58   28   55 1  
    59   29   56 1  
    60   31   57 1  
    61   31   58 1  
    62   31   59 1  
@<TRIPOS>SUBSTRUCTURE
     1 541         1

