### 
### Created by X-TOOL on Tue Oct 16 15:17:23 2018
### 

@<TRIPOS>MOLECULE
2fv9_ligand
   66    66     1     0     0
SMALL
GAST_HUCK


@<TRIPOS>ATOM
      1 C1         46.8220   28.7360   39.6060 C.3       1 MOL         0.1334
      2 C2         47.3620   28.0340   38.3430 C.3       1 MOL        -0.0037
      3 C3         47.5920   29.0540   37.2270 C.3       1 MOL        -0.0491
      4 C4         48.4130   28.4900   36.0770 C.3       1 MOL        -0.0648
      5 C5         47.1640   31.0380   40.1700 C.2       1 MOL         0.1855
      6 C6         46.6160   27.6990   40.7140 C.2       1 MOL         0.2036
      7 C7         45.0330   26.1340   41.6460 C.3       1 MOL         0.0946
      8 C8         44.1100   26.4530   42.8300 C.3       1 MOL        -0.0156
      9 C9         49.2550   34.1450   39.3140 C.2       1 MOL         0.2015
     10 C10        48.2670   33.0140   39.1740 C.3       1 MOL         0.0604
     11 C11        44.3710   25.0810   40.7680 C.2       1 MOL         0.0601
     12 C12        46.3620   26.9550   37.9090 C.3       1 MOL        -0.0582
     13 N3         47.7210   29.8260   39.9930 N.am      1 MOL        -0.2649
     14 O6         47.5720   27.2580   41.3530 O.2       1 MOL        -0.3944
     15 O1         44.7760   23.9020   40.8430 O.co2     1 MOL        -0.5666
     16 O2         49.7640   36.2780   39.7670 O.3       1 MOL        -0.2717
     17 C13        44.8290   27.0700   44.0370 C.3       1 MOL        -0.0431
     18 C20        46.0700   26.2600   44.4160 C.3       1 MOL        -0.0625
     19 C21        43.8840   27.1450   45.2400 C.3       1 MOL        -0.0625
     20 N1         48.7580   35.3740   39.5170 N.am      1 MOL        -0.1641
     21 O3         50.4620   33.9280   39.2410 O.2       1 MOL        -0.3968
     22 C22        48.1640   32.1600   40.4390 C.3       1 MOL         0.0749
     23 C23        47.7340   32.9890   41.6620 C.3       1 MOL         0.0027
     24 O4         45.9630   31.2790   40.1090 O.2       1 MOL        -0.3963
     25 N2         45.3280   27.3570   40.9080 N.am      1 MOL        -0.2695
     26 O5         43.4500   25.4420   40.0020 O.co2     1 MOL        -0.5666
     27 C14        47.8720   32.1800   42.9370 C.ar      1 MOL        -0.0404
     28 C15        49.0780   32.2360   43.6910 C.ar      1 MOL        -0.0602
     29 C16        49.1970   31.5090   44.9110 C.ar      1 MOL        -0.0686
     30 C17        48.1080   30.7170   45.3760 C.ar      1 MOL        -0.0687
     31 C18        46.9120   30.6330   44.6100 C.ar      1 MOL        -0.0686
     32 C19        46.7920   31.3650   43.3900 C.ar      1 MOL        -0.0602
     33 H1         45.8423   29.1768   39.3697 H         1 MOL         0.0803
     34 H2         48.3221   27.5535   38.5822 H         1 MOL         0.0345
     35 H3         48.1231   29.9211   37.6465 H         1 MOL         0.0267
     36 H4         46.6150   29.3758   36.8373 H         1 MOL         0.0267
     37 H5         48.5461   29.2644   35.3072 H         1 MOL         0.0230
     38 H6         47.8892   27.6263   35.6415 H         1 MOL         0.0230
     39 H7         49.3973   28.1716   36.4508 H         1 MOL         0.0230
     40 H8         45.9787   25.7240   42.0300 H         1 MOL         0.0726
     41 H9         43.6296   25.5184   43.1550 H         1 MOL         0.0308
     42 H10        43.3408   27.1608   42.4874 H         1 MOL         0.0308
     43 H11        48.5843   32.3707   38.3401 H         1 MOL         0.0531
     44 H12        47.2760   33.4376   38.9538 H         1 MOL         0.0531
     45 H13        46.2173   26.2376   38.7302 H         1 MOL         0.0235
     46 H14        46.7519   26.4276   37.0259 H         1 MOL         0.0235
     47 H15        45.3997   27.4259   37.6597 H         1 MOL         0.0235
     48 H16        48.7016   29.6765   40.1196 H         1 MOL         0.1883
     49 H17        49.3871   37.1388   39.9071 H         1 MOL         0.2490
     50 H18        45.1435   28.0897   43.7699 H         1 MOL         0.0297
     51 H19        46.5619   26.7266   45.2822 H         1 MOL         0.0232
     52 H20        46.7676   26.2385   43.5658 H         1 MOL         0.0232
     53 H21        45.7729   25.2324   44.6726 H         1 MOL         0.0232
     54 H22        42.9910   27.7273   44.9690 H         1 MOL         0.0232
     55 H23        44.3987   27.6331   46.0807 H         1 MOL         0.0232
     56 H24        43.5836   26.1286   45.5342 H         1 MOL         0.0232
     57 H25        47.7849   35.6028   39.4902 H         1 MOL         0.2216
     58 H26        49.1496   31.7198   40.6504 H         1 MOL         0.0585
     59 H27        46.6840   33.2935   41.5401 H         1 MOL         0.0455
     60 H28        48.3695   33.8840   41.7324 H         1 MOL         0.0455
     61 H29        44.5890   27.9298   40.5534 H         1 MOL         0.1875
     62 H30        49.9094   32.8341   43.3358 H         1 MOL         0.0557
     63 H31        50.1154   31.5586   45.4847 H         1 MOL         0.0599
     64 H32        48.1906   30.1785   46.3132 H         1 MOL         0.0559
     65 H33        46.0915   30.0130   44.9528 H         1 MOL         0.0599
     66 H34        45.8799   31.3015   42.8076 H         1 MOL         0.0557
@<TRIPOS>BOND
     1    1    2 1  
     2    1    6 1  
     3   13    1 1  
     4    2    3 1  
     5    2   12 1  
     6    3    4 1  
     7    5   13 am 
     8   22    5 1  
     9    5   24 2  
    10    6   14 2  
    11    6   25 am 
    12    7    8 1  
    13    7   11 1  
    14   25    7 1  
    15    8   17 1  
    16   10    9 1  
    17    9   20 am 
    18    9   21 2  
    19   10   22 1  
    20   11   15 ar 
    21   11   26 ar 
    22   20   16 1  
    23   17   18 1  
    24   17   19 1  
    25   22   23 1  
    26   23   27 1  
    27   27   28 ar 
    28   27   32 ar 
    29   28   29 ar 
    30   29   30 ar 
    31   30   31 ar 
    32   31   32 ar 
    33    1   33 1  
    34    2   34 1  
    35    3   35 1  
    36    3   36 1  
    37    4   37 1  
    38    4   38 1  
    39    4   39 1  
    40    7   40 1  
    41    8   41 1  
    42    8   42 1  
    43   10   43 1  
    44   10   44 1  
    45   12   45 1  
    46   12   46 1  
    47   12   47 1  
    48   13   48 1  
    49   16   49 1  
    50   17   50 1  
    51   18   51 1  
    52   18   52 1  
    53   18   53 1  
    54   19   54 1  
    55   19   55 1  
    56   19   56 1  
    57   20   57 1  
    58   22   58 1  
    59   23   59 1  
    60   23   60 1  
    61   25   61 1  
    62   28   62 1  
    63   29   63 1  
    64   30   64 1  
    65   31   65 1  
    66   32   66 1  
@<TRIPOS>SUBSTRUCTURE
     1 MOL         1

