### 
### Created by X-TOOL on Mon Sep 10 21:12:56 2018
### 

@<TRIPOS>MOLECULE
2fvc_ligand
   50    53     1     0     0
SMALL
GAST_HUCK


@<TRIPOS>ATOM
      1 C1          9.4220   43.8660   46.6730 C.ar      1 888         0.0076
      2 C2          8.7810   42.7530   46.0700 C.ar      1 888        -0.0608
      3 C3          8.7180   42.6470   44.6610 C.ar      1 888        -0.0726
      4 C4          9.2970   43.6510   43.8480 C.ar      1 888        -0.0707
      5 C5          9.9400   44.7690   44.4500 C.ar      1 888        -0.0453
      6 C6          9.9920   44.8630   45.8540 C.ar      1 888         0.1148
      7 S11        10.7820   46.2330   46.6650 S.o2      1 888         0.0931
      8 N12        10.4200   46.1220   48.2460 N.am      1 888        -0.1622
      9 C13         9.9560   44.9680   48.8020 C.2       1 888         0.1305
     10 N14         9.4990   43.9480   48.0190 N.2       1 888        -0.3390
     11 C15         9.9960   44.7030   50.2850 C.2       1 888         0.1299
     12 C16        10.8600   45.4330   51.0770 C.2       1 888         0.1414
     13 C17        10.9310   45.1330   52.5230 C.ar      1 888         0.0666
     14 C18        10.1030   44.0990   53.0960 C.ar      1 888         0.1010
     15 N19         9.1890   43.3580   52.2830 N.am      1 888        -0.2140
     16 C20         9.1170   43.6210   50.9090 C.2       1 888         0.2151
     17 C21        11.8400   45.8670   53.3400 C.ar      1 888        -0.0498
     18 C22        11.9540   45.6010   54.7130 C.ar      1 888        -0.0662
     19 C23        11.1620   44.5950   55.2880 C.ar      1 888        -0.0659
     20 C24        10.2470   43.8590   54.4980 C.ar      1 888        -0.0274
     21 O29        11.6860   46.4310   50.5940 O.3       1 888        -0.3067
     22 O30         8.3730   43.0060   50.1480 O.2       1 888        -0.4079
     23 C31         8.3170   42.2770   52.8790 C.3       1 888         0.0609
     24 C32         6.9650   42.6370   53.5720 C.3       1 888        -0.0234
     25 C35         6.0320   43.5710   52.7610 C.3       1 888        -0.0443
     26 C38         4.9230   44.1220   53.6690 C.3       1 888        -0.0626
     27 O46        10.1890   47.4500   46.2130 O.2       1 888        -0.1443
     28 O47        12.1910   46.0730   46.5170 O.2       1 888        -0.1443
     29 C7          5.3930   42.8330   51.5650 C.3       1 888        -0.0626
     30 H1          8.3386   41.9822   46.6906 H         1 888         0.0527
     31 H2          8.2260   41.7964   44.2033 H         1 888         0.0588
     32 H3          9.2507   43.5684   42.7681 H         1 888         0.0528
     33 H4         10.3856   45.5411   43.8333 H         1 888         0.0608
     34 H5         10.5417   46.9257   48.8285 H         1 888         0.2332
     35 H6         12.4523   46.6423   52.8938 H         1 888         0.0656
     36 H7         12.6475   46.1673   55.3241 H         1 888         0.0526
     37 H8         11.2519   44.3798   56.3466 H         1 888         0.0644
     38 H9          9.6399   43.0938   54.9679 H         1 888         0.0538
     39 H10        11.5492   46.5289   49.6590 H         1 888         0.2652
     40 H11         8.9286   41.7595   53.6327 H         1 888         0.0607
     41 H12         8.0759   41.5813   52.0618 H         1 888         0.0607
     42 H13         7.1942   43.1321   54.5272 H         1 888         0.0294
     43 H14         6.4225   41.6999   53.7656 H         1 888         0.0294
     44 H15         6.6286   44.4115   52.3766 H         1 888         0.0296
     45 H16         4.2660   44.7835   53.0852 H         1 888         0.0232
     46 H17         5.3744   44.6902   54.4957 H         1 888         0.0232
     47 H18         4.3341   43.2871   54.0765 H         1 888         0.0232
     48 H19         6.1853   42.4371   50.9127 H         1 888         0.0232
     49 H20         4.7648   43.5334   50.9951 H         1 888         0.0232
     50 H21         4.7737   42.0026   51.9350 H         1 888         0.0232
@<TRIPOS>BOND
     1    1    2 ar 
     2    1    6 ar 
     3    1   10 1  
     4    2    3 ar 
     5    3    4 ar 
     6    4    5 ar 
     7    5    6 ar 
     8    6    7 1  
     9    7    8 am 
    10    7   27 2  
    11    7   28 2  
    12    8    9 1  
    13    9   10 2  
    14    9   11 1  
    15   11   12 2  
    16   11   16 1  
    17   12   13 1  
    18   12   21 1  
    19   13   14 ar 
    20   13   17 ar 
    21   14   15 1  
    22   14   20 ar 
    23   15   16 am 
    24   15   23 1  
    25   16   22 2  
    26   17   18 ar 
    27   18   19 ar 
    28   19   20 ar 
    29   23   24 1  
    30   24   25 1  
    31   25   26 1  
    32   25   29 1  
    33    2   30 1  
    34    3   31 1  
    35    4   32 1  
    36    5   33 1  
    37    8   34 1  
    38   17   35 1  
    39   18   36 1  
    40   19   37 1  
    41   20   38 1  
    42   21   39 1  
    43   23   40 1  
    44   23   41 1  
    45   24   42 1  
    46   24   43 1  
    47   25   44 1  
    48   26   45 1  
    49   26   46 1  
    50   26   47 1  
    51   29   48 1  
    52   29   49 1  
    53   29   50 1  
@<TRIPOS>SUBSTRUCTURE
     1 888         1

