### 
### Created by X-TOOL on Mon Sep 10 21:12:54 2018
### 

@<TRIPOS>MOLECULE
2fvd_ligand
   51    53     1     0     0
SMALL
GAST_HUCK


@<TRIPOS>ATOM
      1 N1          6.0060   26.4970    6.9800 N.am      1 LIA        -0.2385
      2 C2          5.2280   26.2350    5.7370 C.3       1 LIA         0.0314
      3 C3          4.4250   27.4970    5.3560 C.3       1 LIA        -0.0122
      4 C4          3.4740   27.9120    6.5080 C.3       1 LIA         0.0456
      5 C5          4.2630   28.0220    7.8590 C.3       1 LIA        -0.0122
      6 C6          5.0840   26.7430    8.1290 C.3       1 LIA         0.0314
      7 N7          2.8530   29.1930    6.1450 N.pl3     1 LIA        -0.2866
      8 C8          1.7690   29.5320    6.9000 C.ar      1 LIA         0.1789
      9 N9          1.0690   28.5960    7.5970 N.ar      1 LIA        -0.2656
     10 C10         0.0490   28.9490    8.3170 C.ar      1 LIA         0.0186
     11 C11        -0.4000   30.3250    8.4220 C.ar      1 LIA         0.0852
     12 C12         0.3640   31.2870    7.6590 C.ar      1 LIA         0.1302
     13 N13         1.4370   30.8560    6.9140 N.ar      1 LIA        -0.2356
     14 C14        -1.5430   30.6550    9.2600 C.2       1 LIA         0.1492
     15 O15        -1.9700   31.8210    9.3190 O.2       1 LIA        -0.3856
     16 C16        -2.1970   29.6470   10.0640 C.ar      1 LIA         0.0920
     17 C17        -3.5480   29.2590    9.7500 C.ar      1 LIA         0.1766
     18 C18        -4.2120   28.2570   10.5240 C.ar      1 LIA         0.1591
     19 C19        -3.5480   27.6250   11.6160 C.ar      1 LIA        -0.0338
     20 C20        -2.2140   27.9920   11.9500 C.ar      1 LIA        -0.0322
     21 C21        -1.5100   29.0040   11.1890 C.ar      1 LIA         0.1052
     22 O22        -0.1880   29.4010   11.4900 O.3       1 LIA        -0.3192
     23 C23         0.5550   28.3980   12.2270 C.3       1 LIA         0.0603
     24 F24        -4.2020   29.8250    8.7400 F         1 LIA        -0.1811
     25 F25        -5.4500   27.9070   10.2290 F         1 LIA        -0.1924
     26 N26         0.0830   32.6030    7.6390 N.pl3     1 LIA        -0.3135
     27 S27         7.0630   25.2110    7.3100 S.o2      1 LIA         0.0385
     28 C28         6.1790   23.6620    7.7100 C.3       1 LIA         0.0734
     29 O29         7.8710   25.5860    8.4490 O.2       1 LIA        -0.1556
     30 O30         7.9110   25.0020    6.1680 O.2       1 LIA        -0.1556
     31 H1          4.5354   25.3976    5.9077 H         1 LIA         0.0479
     32 H2          5.9182   25.9792    4.9196 H         1 LIA         0.0479
     33 H3          3.8301   27.2877    4.4548 H         1 LIA         0.0304
     34 H4          5.1240   28.3211    5.1507 H         1 LIA         0.0304
     35 H5          2.6881   27.1508    6.6218 H         1 LIA         0.0563
     36 H6          3.5479   28.1701    8.6816 H         1 LIA         0.0304
     37 H7          4.9458   28.8829    7.8072 H         1 LIA         0.0304
     38 H8          5.6710   26.8708    9.0504 H         1 LIA         0.0479
     39 H9          4.4032   25.8867    8.2438 H         1 LIA         0.0479
     40 H10         3.2076   29.7871    5.3820 H         1 LIA         0.1881
     41 H11        -0.4906   28.1838    8.8632 H         1 LIA         0.0904
     42 H12        -4.0601   26.8635   12.1930 H         1 LIA         0.0605
     43 H13        -1.7186   27.5083   12.7841 H         1 LIA         0.0512
     44 H14         1.5710   28.7685   12.4280 H         1 LIA         0.0579
     45 H15         0.6126   27.4741   11.6328 H         1 LIA         0.0579
     46 H16         0.0453   28.1903   13.1794 H         1 LIA         0.0579
     47 H17         0.6609   33.2445    7.0774 H         1 LIA         0.1831
     48 H18        -0.7099   32.9687    8.1853 H         1 LIA         0.1831
     49 H19         6.9094   22.8653    7.9144 H         1 LIA         0.0482
     50 H20         5.5468   23.3702    6.8584 H         1 LIA         0.0482
     51 H21         5.5488   23.8182    8.5980 H         1 LIA         0.0482
@<TRIPOS>BOND
     1    1    2 1  
     2    1    6 1  
     3    1   27 am 
     4    2    3 1  
     5    3    4 1  
     6    4    5 1  
     7    4    7 1  
     8    5    6 1  
     9    7    8 1  
    10    8    9 ar 
    11    8   13 ar 
    12    9   10 ar 
    13   10   11 ar 
    14   11   12 ar 
    15   11   14 1  
    16   12   13 ar 
    17   12   26 1  
    18   14   15 2  
    19   14   16 1  
    20   16   17 ar 
    21   16   21 ar 
    22   17   18 ar 
    23   17   24 1  
    24   18   19 ar 
    25   18   25 1  
    26   19   20 ar 
    27   20   21 ar 
    28   21   22 1  
    29   22   23 1  
    30   27   28 1  
    31   27   29 2  
    32   27   30 2  
    33    2   31 1  
    34    2   32 1  
    35    3   33 1  
    36    3   34 1  
    37    4   35 1  
    38    5   36 1  
    39    5   37 1  
    40    6   38 1  
    41    6   39 1  
    42    7   40 1  
    43   10   41 1  
    44   19   42 1  
    45   20   43 1  
    46   23   44 1  
    47   23   45 1  
    48   23   46 1  
    49   26   47 1  
    50   26   48 1  
    51   28   49 1  
    52   28   50 1  
    53   28   51 1  
@<TRIPOS>SUBSTRUCTURE
     1 LIA         1

