### 
### Created by X-TOOL on Mon Sep 10 21:12:56 2018
### 

@<TRIPOS>MOLECULE
2fw3_ligand
   73    72     1     0     0
SMALL
GAST_HUCK


@<TRIPOS>ATOM
      1 O9         27.7370   10.0010   32.4040 O.co2     1 BUI        -0.5689
      2 C3         26.4760    9.9220   32.2400 C.2       1 BUI         0.0372
      3 O8         25.8540   10.7190   31.4910 O.co2     1 BUI        -0.5689
      4 C2         25.6900    8.8300   32.9560 C.3       1 BUI         0.0280
      5 C5         24.1790    9.1310   33.1180 C.3       1 BUI         0.0934
      6 C10        23.8600   10.2710   34.1080 C.3       1 BUI        -0.0060
      7 N6         22.5080   10.9210   33.9700 N.4       1 BUI         0.2386
      8 C14        21.3620   10.0350   34.2790 C.3       1 BUI        -0.0417
      9 C13        22.2860   11.5170   32.6320 C.3       1 BUI        -0.0417
     10 C12        22.4240   11.9880   34.9730 C.3       1 BUI        -0.0417
     11 N4         23.5840    7.9080   33.6690 N.am      1 BUI        -0.2634
     12 C1         22.8390    7.1140   32.8520 C.2       1 BUI         0.2579
     13 O7         22.6920    7.4560   31.6740 O.2       1 BUI        -0.4008
     14 N11        22.2500    5.9720   33.3090 N.am      1 BUI        -0.2732
     15 C15        21.4280    5.0230   32.5590 C.3       1 BUI         0.0312
     16 C16        20.4290    4.4580   33.5690 C.3       1 BUI        -0.0330
     17 C24        18.9530    4.8750   33.4300 C.3       1 BUI        -0.0513
     18 C26        18.4310    4.7530   32.0110 C.3       1 BUI        -0.0530
     19 C27        16.9150    4.9990   31.9480 C.3       1 BUI        -0.0531
     20 C19        16.3310    4.8820   30.5350 C.3       1 BUI        -0.0531
     21 C20        15.4030    3.6680   30.4390 C.3       1 BUI        -0.0531
     22 C21        14.2870    3.8630   29.4110 C.3       1 BUI        -0.0531
     23 C22        13.1460    4.7240   29.9610 C.3       1 BUI        -0.0531
     24 C23        11.8080    4.0280   29.7190 C.3       1 BUI        -0.0531
     25 C25        10.5940    4.8650   30.1240 C.3       1 BUI        -0.0531
     26 C18         9.3370    4.1860   29.5970 C.3       1 BUI        -0.0533
     27 C17         8.0640    4.9930   29.8430 C.3       1 BUI        -0.0559
     28 C28         7.0850    4.2570   30.7270 C.3       1 BUI        -0.0653
     29 H1         26.1232    8.6949   33.9580 H         1 BUI         0.0455
     30 H2         25.7954    7.8975   32.3821 H         1 BUI         0.0455
     31 H3         23.7460    9.3718   32.1359 H         1 BUI         0.0625
     32 H4         24.6221   11.0529   33.9745 H         1 BUI         0.0839
     33 H5         23.9309    9.8597   35.1257 H         1 BUI         0.0839
     34 H6         20.4225   10.5928   34.1516 H         1 BUI         0.0778
     35 H7         21.4409    9.6822   35.3179 H         1 BUI         0.0778
     36 H8         21.3713    9.1720   33.5970 H         1 BUI         0.0778
     37 H9         23.1272   12.1802   32.3819 H         1 BUI         0.0778
     38 H10        21.3515   12.0971   32.6395 H         1 BUI         0.0778
     39 H11        22.2146   10.7163   31.8812 H         1 BUI         0.0778
     40 H12        22.5866   11.5633   35.9746 H         1 BUI         0.0778
     41 H13        21.4287   12.4544   34.9297 H         1 BUI         0.0778
     42 H14        23.1937   12.7464   34.7670 H         1 BUI         0.0778
     43 H15        23.7234    7.6621   34.6282 H         1 BUI         0.1852
     44 H16        22.3982    5.7574   34.2744 H         1 BUI         0.1845
     45 H17        22.0523    4.2177   32.1446 H         1 BUI         0.0517
     46 H18        20.8996    5.5350   31.7413 H         1 BUI         0.0517
     47 H19        20.7642    4.7671   34.5700 H         1 BUI         0.0284
     48 H20        20.4687    3.3615   33.4914 H         1 BUI         0.0284
     49 H21        18.8535    5.9225   33.7507 H         1 BUI         0.0266
     50 H22        18.3446    4.2322   34.0832 H         1 BUI         0.0266
     51 H23        18.6452    3.7411   31.6366 H         1 BUI         0.0265
     52 H24        18.9404    5.4939   31.3773 H         1 BUI         0.0265
     53 H25        16.7113    6.0120   32.3254 H         1 BUI         0.0265
     54 H26        16.4160    4.2603   32.5925 H         1 BUI         0.0265
     55 H27        17.1521    4.7684   29.8119 H         1 BUI         0.0265
     56 H28        15.7606    5.7933   30.3021 H         1 BUI         0.0265
     57 H29        14.9476    3.4933   31.4250 H         1 BUI         0.0265
     58 H30        15.9994    2.7901   30.1498 H         1 BUI         0.0265
     59 H31        13.8856    2.8779   29.1310 H         1 BUI         0.0265
     60 H32        14.7059    4.3548   28.5207 H         1 BUI         0.0265
     61 H33        13.1471    5.6995   29.4526 H         1 BUI         0.0265
     62 H34        13.2895    4.8733   31.0413 H         1 BUI         0.0265
     63 H35        11.7936    3.0933   30.2987 H         1 BUI         0.0265
     64 H36        11.7269    3.7958   28.6469 H         1 BUI         0.0265
     65 H37        10.6788    5.8734   29.6928 H         1 BUI         0.0265
     66 H38        10.5435    4.9381   31.2204 H         1 BUI         0.0265
     67 H39         9.2330    3.2103   30.0942 H         1 BUI         0.0265
     68 H40         9.4503    4.0351   28.5133 H         1 BUI         0.0265
     69 H41         7.5825    5.1991   28.8757 H         1 BUI         0.0263
     70 H42         8.3345    5.9427   30.3277 H         1 BUI         0.0263
     71 H43         6.1876    4.8758   30.8749 H         1 BUI         0.0230
     72 H44         7.5532    4.0515   31.7009 H         1 BUI         0.0230
     73 H45         6.8012    3.3078   30.2490 H         1 BUI         0.0230
@<TRIPOS>BOND
     1    1    2 ar 
     2    2    3 ar 
     3    2    4 1  
     4    4    5 1  
     5    5    6 1  
     6    5   11 1  
     7    6    7 1  
     8    7    8 1  
     9    7    9 1  
    10    7   10 1  
    11   11   12 am 
    12   12   13 2  
    13   12   14 am 
    14   14   15 1  
    15   15   16 1  
    16   16   17 1  
    17   17   18 1  
    18   18   19 1  
    19   19   20 1  
    20   20   21 1  
    21   21   22 1  
    22   22   23 1  
    23   23   24 1  
    24   24   25 1  
    25   25   26 1  
    26   26   27 1  
    27   27   28 1  
    28    4   29 1  
    29    4   30 1  
    30    5   31 1  
    31    6   32 1  
    32    6   33 1  
    33    8   34 1  
    34    8   35 1  
    35    8   36 1  
    36    9   37 1  
    37    9   38 1  
    38    9   39 1  
    39   10   40 1  
    40   10   41 1  
    41   10   42 1  
    42   11   43 1  
    43   14   44 1  
    44   15   45 1  
    45   15   46 1  
    46   16   47 1  
    47   16   48 1  
    48   17   49 1  
    49   17   50 1  
    50   18   51 1  
    51   18   52 1  
    52   19   53 1  
    53   19   54 1  
    54   20   55 1  
    55   20   56 1  
    56   21   57 1  
    57   21   58 1  
    58   22   59 1  
    59   22   60 1  
    60   23   61 1  
    61   23   62 1  
    62   24   63 1  
    63   24   64 1  
    64   25   65 1  
    65   25   66 1  
    66   26   67 1  
    67   26   68 1  
    68   27   69 1  
    69   27   70 1  
    70   28   71 1  
    71   28   72 1  
    72   28   73 1  
@<TRIPOS>SUBSTRUCTURE
     1 BUI         1

