### 
### Created by X-TOOL on Mon Sep 10 21:12:53 2018
### 

@<TRIPOS>MOLECULE
2fw6_ligand
   18    17     1     0     0
SMALL
GAST_HUCK


@<TRIPOS>ATOM
      1 C1         34.6890   65.5750 -149.1450 C.2       1 CIT         0.0371
      2 O1         33.9320   66.4800 -149.5610 O.co2     1 CIT        -0.5690
      3 O2         34.7490   65.2390 -147.9440 O.co2     1 CIT        -0.5690
      4 C2         35.5570   64.8310 -150.1440 C.3       1 CIT         0.0356
      5 C3         36.1100   65.7420 -151.2450 C.3       1 CIT         0.1328
      6 O7         35.0110   66.3270 -151.9520 O.3       1 CIT        -0.3818
      7 C4         36.9690   64.9060 -152.2020 C.3       1 CIT         0.0356
      8 C5         36.1370   64.0340 -153.1270 C.2       1 CIT         0.0371
      9 O3         36.1120   64.3180 -154.3430 O.co2     1 CIT        -0.5690
     10 O4         35.5020   63.0730 -152.6420 O.co2     1 CIT        -0.5690
     11 C6         36.9590   66.8610 -150.6430 C.2       1 CIT         0.0796
     12 O5         37.9510   66.5270 -149.9660 O.co2     1 CIT        -0.5449
     13 O6         36.6350   68.0530 -150.8640 O.co2     1 CIT        -0.5449
     14 H1         34.9537   64.0397 -150.6128 H         1 CIT         0.0452
     15 H2         36.4023   64.3774 -149.6058 H         1 CIT         0.0452
     16 H3         34.4816   66.8346 -151.3481 H         1 CIT         0.2091
     17 H4         37.6294   64.2579 -151.6071 H         1 CIT         0.0452
     18 H5         37.5782   65.5872 -152.8142 H         1 CIT         0.0452
@<TRIPOS>BOND
     1    1    2 ar 
     2    1    3 ar 
     3    1    4 1  
     4    4    5 1  
     5    5    6 1  
     6    5    7 1  
     7    5   11 1  
     8    7    8 1  
     9    8    9 ar 
    10    8   10 ar 
    11   11   12 ar 
    12   11   13 ar 
    13    4   14 1  
    14    4   15 1  
    15    6   16 1  
    16    7   17 1  
    17    7   18 1  
@<TRIPOS>SUBSTRUCTURE
     1 CIT         1

