### 
### Created by X-TOOL on Mon Sep 10 21:12:54 2018
### 

@<TRIPOS>MOLECULE
2fwp_ligand
   18    17     1     0     0
SMALL
GAST_HUCK


@<TRIPOS>ATOM
      1 C1         34.7920   65.6470 -149.0640 C.2       1 CIT         0.0371
      2 O1         34.0920   66.5850 -149.5070 O.co2     1 CIT        -0.5690
      3 O2         34.7590   65.2790 -147.8690 O.co2     1 CIT        -0.5690
      4 C2         35.7050   64.9020 -150.0250 C.3       1 CIT         0.0356
      5 C3         36.2340   65.7960 -151.1560 C.3       1 CIT         0.1328
      6 O7         35.1300   66.3790 -151.8590 O.3       1 CIT        -0.3818
      7 C4         37.0720   64.9520 -152.1230 C.3       1 CIT         0.0356
      8 C5         36.2170   64.1020 -153.0530 C.2       1 CIT         0.0371
      9 O3         36.1480   64.4290 -154.2550 O.co2     1 CIT        -0.5690
     10 O4         35.6100   63.1170 -152.5840 O.co2     1 CIT        -0.5690
     11 C6         37.0990   66.9190 -150.5950 C.2       1 CIT         0.0796
     12 O5         38.0890   66.6060 -149.9060 O.co2     1 CIT        -0.5449
     13 O6         36.7770   68.0980 -150.8600 O.co2     1 CIT        -0.5449
     14 H1         35.1420   64.0684 -150.4700 H         1 CIT         0.0452
     15 H2         36.5617   64.5057 -149.4602 H         1 CIT         0.0452
     16 H3         34.6129   66.9012 -151.2570 H         1 CIT         0.2091
     17 H4         37.7224   64.2865 -151.5365 H         1 CIT         0.0452
     18 H5         37.6915   65.6262 -152.7326 H         1 CIT         0.0452
@<TRIPOS>BOND
     1    1    2 ar 
     2    1    3 ar 
     3    1    4 1  
     4    4    5 1  
     5    5    6 1  
     6    5    7 1  
     7    5   11 1  
     8    7    8 1  
     9    8    9 ar 
    10    8   10 ar 
    11   11   12 ar 
    12   11   13 ar 
    13    4   14 1  
    14    4   15 1  
    15    6   16 1  
    16    7   17 1  
    17    7   18 1  
@<TRIPOS>SUBSTRUCTURE
     1 CIT         1

