### 
### Created by X-TOOL on Mon Sep 10 21:12:54 2018
### 

@<TRIPOS>MOLECULE
2fwy_ligand
   50    53     1     0     0
SMALL
GAST_HUCK


@<TRIPOS>ATOM
      1 C97         5.3730    5.8070   26.8060 C.3       1 H64        -0.0219
      2 C95         3.9740    5.4860   27.3370 C.3       1 H64        -0.0284
      3 C96         3.9300    4.0400   27.8350 C.3       1 H64        -0.0219
      4 N94         2.9760    5.6620   26.2710 N.4       1 H64         0.2288
      5 C93         2.5120    7.0570   26.2210 C.3       1 H64        -0.0309
      6 C92         3.5710    7.9560   25.5800 C.3       1 H64         0.0147
      7 C91         3.3000    9.4330   25.8800 C.3       1 H64         0.0661
      8 N9          2.0790    9.9150   25.2200 N.pl3     1 H64        -0.2063
      9 C4          0.8610    9.9490   25.7530 C.ar      1 H64         0.1550
     10 N3          0.3330    9.5220   26.9070 N.ar      1 H64        -0.2743
     11 C2         -0.9500    9.7050   27.1660 C.ar      1 H64         0.0509
     12 N1         -1.7520   10.3100   26.3070 N.ar      1 H64        -0.2728
     13 C6         -1.2920   10.7590   25.1310 C.ar      1 H64         0.1251
     14 N6         -2.1070   11.3640   24.2710 N.pl3     1 H64        -0.3168
     15 C5          0.0500   10.5850   24.8190 C.ar      1 H64         0.0928
     16 N7          0.7950   10.9010   23.7640 N.2       1 H64        -0.2956
     17 C8          2.0320   10.4820   24.0180 C.2       1 H64         0.2046
     18 S           3.3930   10.6440   22.9300 S.3       1 H64         0.0136
     19 C1'         4.3230   11.8880   23.7360 C.ar      1 H64         0.0299
     20 C6'         3.6620   12.9870   24.2740 C.ar      1 H64        -0.0229
     21 C5'         4.3840   14.0110   24.8770 C.ar      1 H64         0.1217
     22 O3'         4.0040   15.1810   25.4580 O.3       1 H64        -0.2904
     23 C'2         5.1620   16.0040   25.2600 C.3       1 H64         0.1862
     24 O1'         6.2220   15.0760   25.5300 O.3       1 H64        -0.2945
     25 C4'         5.7720   13.9370   24.9370 C.ar      1 H64         0.1194
     26 C3'         6.4310   12.8380   24.4010 C.ar      1 H64        -0.0369
     27 C2'         5.7110   11.8090   23.8020 C.ar      1 H64         0.0073
     28 BR          6.6380   10.2970   23.1340 Br        1 H64        -0.0676
     29 H1          6.1105    5.6721   27.6109 H         1 H64         0.0284
     30 H2          5.4014    6.8486   26.4535 H         1 H64         0.0284
     31 H3          5.6127    5.1310   25.9720 H         1 H64         0.0284
     32 H4          3.7391    6.1653   28.1697 H         1 H64         0.0845
     33 H5          2.9230    3.8138   28.2156 H         1 H64         0.0284
     34 H6          4.6653    3.9077   28.6423 H         1 H64         0.0284
     35 H7          4.1699    3.3589   27.0052 H         1 H64         0.0284
     36 H8          2.1895    5.0576   26.4505 H         1 H64         0.2016
     37 H9          3.3912    5.4191   25.3852 H         1 H64         0.2016
     38 H10         2.3117    7.4079   27.2441 H         1 H64         0.0815
     39 H11         1.5871    7.1090   25.6278 H         1 H64         0.0815
     40 H12         3.5594    7.8033   24.4907 H         1 H64         0.0343
     41 H13         4.5601    7.6849   25.9778 H         1 H64         0.0343
     42 H14         4.1538   10.0295   25.5261 H         1 H64         0.0611
     43 H15         3.1895    9.5599   26.9670 H         1 H64         0.0611
     44 H16        -1.3549    9.3499   28.1068 H         1 H64         0.0978
     45 H17        -1.7433   11.7054   23.3698 H         1 H64         0.1811
     46 H18        -3.1017   11.4910   24.5063 H         1 H64         0.1811
     47 H19         2.5808   13.0455   24.2231 H         1 H64         0.0472
     48 H20         5.1792   16.8494   25.9636 H         1 H64         0.0972
     49 H21         5.2135   16.3839   24.2290 H         1 H64         0.0972
     50 H22         7.5124   12.7817   24.4496 H         1 H64         0.0519
@<TRIPOS>BOND
     1    1    2 1  
     2    2    3 1  
     3    2    4 1  
     4    4    5 1  
     5    5    6 1  
     6    6    7 1  
     7    7    8 1  
     8    8    9 1  
     9    8   17 1  
    10    9   10 ar 
    11    9   15 ar 
    12   10   11 ar 
    13   11   12 ar 
    14   12   13 ar 
    15   13   14 1  
    16   13   15 ar 
    17   15   16 1  
    18   16   17 2  
    19   17   18 1  
    20   18   19 1  
    21   19   20 ar 
    22   19   27 ar 
    23   20   21 ar 
    24   21   22 1  
    25   21   25 ar 
    26   22   23 1  
    27   23   24 1  
    28   24   25 1  
    29   25   26 ar 
    30   26   27 ar 
    31   27   28 1  
    32    1   29 1  
    33    1   30 1  
    34    1   31 1  
    35    2   32 1  
    36    3   33 1  
    37    3   34 1  
    38    3   35 1  
    39    4   36 1  
    40    4   37 1  
    41    5   38 1  
    42    5   39 1  
    43    6   40 1  
    44    6   41 1  
    45    7   42 1  
    46    7   43 1  
    47   11   44 1  
    48   14   45 1  
    49   14   46 1  
    50   20   47 1  
    51   23   48 1  
    52   23   49 1  
    53   26   50 1  
@<TRIPOS>SUBSTRUCTURE
     1 H64         1

