### 
### Created by X-TOOL on Mon Sep 10 21:12:54 2018
### 

@<TRIPOS>MOLECULE
2fwz_ligand
   50    53     1     0     0
SMALL
GAST_HUCK


@<TRIPOS>ATOM
      1 C96         2.3670    5.2300   28.4990 C.3       1 H71        -0.0219
      2 C95         1.8480    4.9660   27.0850 C.3       1 H71        -0.0284
      3 C97         0.3730    5.3590   26.9650 C.3       1 H71        -0.0219
      4 N94         2.6460    5.7280   26.1140 N.4       1 H71         0.2288
      5 C93         2.4460    7.1690   26.3230 C.3       1 H71        -0.0309
      6 C92         3.5090    7.9660   25.5650 C.3       1 H71         0.0147
      7 C91         3.3810    9.4550   25.8880 C.3       1 H71         0.0661
      8 N9          2.1650   10.0230   25.2820 N.pl3     1 H71        -0.2063
      9 C4          0.9500   10.0700   25.8350 C.ar      1 H71         0.1550
     10 N3          0.4310    9.6260   26.9860 N.ar      1 H71        -0.2743
     11 C2         -0.8470    9.8180   27.2610 C.ar      1 H71         0.0509
     12 N1         -1.6490   10.4480   26.4220 N.ar      1 H71        -0.2728
     13 C6         -1.1930   10.9170   25.2500 C.ar      1 H71         0.1251
     14 N6         -2.0210   11.5340   24.4120 N.pl3     1 H71        -0.3168
     15 C5          0.1440   10.7340   24.9260 C.ar      1 H71         0.0928
     16 N7          0.8870   11.0630   23.8630 N.2       1 H71        -0.2956
     17 C8          2.1170   10.6170   24.1040 C.2       1 H71         0.2045
     18 S           3.4950   10.7990   23.0330 S.3       1 H71         0.0136
     19 C1'         4.3930   12.0430   23.8670 C.ar      1 H71         0.0311
     20 C6'         3.7310   13.1550   24.3640 C.ar      1 H71        -0.0230
     21 C5'         4.4350   14.1620   25.0020 C.ar      1 H71         0.1212
     22 O3'         4.0540   15.3480   25.5500 O.3       1 H71        -0.2907
     23 C'2         5.2370   16.1460   25.4200 C.3       1 H71         0.1861
     24 O1'         6.2530   15.1930   25.7630 O.3       1 H71        -0.2945
     25 C4'         5.8220   14.0610   25.1460 C.ar      1 H71         0.1194
     26 C3'         6.4870   12.9460   24.6520 C.ar      1 H71        -0.0355
     27 C2'         5.7840   11.9360   24.0150 C.ar      1 H71         0.0043
     28 I           6.8040   10.2360   23.3020 I         1 H71        -0.0661
     29 H1          1.7673    4.6581   29.2224 H         1 H71         0.0284
     30 H2          2.2873    6.3037   28.7243 H         1 H71         0.0284
     31 H3          3.4196    4.9180   28.5675 H         1 H71         0.0284
     32 H4          1.9473    3.8926   26.8659 H         1 H71         0.0845
     33 H5          0.0228    5.1605   25.9413 H         1 H71         0.0284
     34 H6          0.2593    6.4297   27.1902 H         1 H71         0.0284
     35 H7         -0.2228    4.7692   27.6772 H         1 H71         0.0284
     36 H8          2.3586    5.4828   25.1795 H         1 H71         0.2016
     37 H9          3.6216    5.5051   26.2349 H         1 H71         0.2016
     38 H10         2.5206    7.3941   27.3971 H         1 H71         0.0815
     39 H11         1.4486    7.4541   25.9570 H         1 H71         0.0815
     40 H12         3.3739    7.8157   24.4837 H         1 H71         0.0343
     41 H13         4.5079    7.6141   25.8622 H         1 H71         0.0343
     42 H14         4.2606    9.9855   25.4946 H         1 H71         0.0611
     43 H15         3.3330    9.5837   26.9794 H         1 H71         0.0611
     44 H16        -1.2471    9.4493   28.1985 H         1 H71         0.0978
     45 H17        -1.6702   11.8936   23.5128 H         1 H71         0.1811
     46 H18        -3.0131   11.6523   24.6621 H         1 H71         0.1811
     47 H19         2.6558   13.2365   24.2524 H         1 H71         0.0471
     48 H20         5.2290   16.9960   26.1182 H         1 H71         0.0972
     49 H21         5.3624   16.5170   24.3921 H         1 H71         0.0972
     50 H22         7.5620   12.8655   24.7655 H         1 H71         0.0521
@<TRIPOS>BOND
     1    1    2 1  
     2    2    3 1  
     3    2    4 1  
     4    4    5 1  
     5    5    6 1  
     6    6    7 1  
     7    7    8 1  
     8    8    9 1  
     9    8   17 1  
    10    9   10 ar 
    11    9   15 ar 
    12   10   11 ar 
    13   11   12 ar 
    14   12   13 ar 
    15   13   14 1  
    16   13   15 ar 
    17   15   16 1  
    18   16   17 2  
    19   17   18 1  
    20   18   19 1  
    21   19   20 ar 
    22   19   27 ar 
    23   20   21 ar 
    24   21   22 1  
    25   21   25 ar 
    26   22   23 1  
    27   23   24 1  
    28   24   25 1  
    29   25   26 ar 
    30   26   27 ar 
    31   27   28 1  
    32    1   29 1  
    33    1   30 1  
    34    1   31 1  
    35    2   32 1  
    36    3   33 1  
    37    3   34 1  
    38    3   35 1  
    39    4   36 1  
    40    4   37 1  
    41    5   38 1  
    42    5   39 1  
    43    6   40 1  
    44    6   41 1  
    45    7   42 1  
    46    7   43 1  
    47   11   44 1  
    48   14   45 1  
    49   14   46 1  
    50   20   47 1  
    51   23   48 1  
    52   23   49 1  
    53   26   50 1  
@<TRIPOS>SUBSTRUCTURE
     1 H71         1

