### 
### Created by X-TOOL on Mon Sep 10 21:12:54 2018
### 

@<TRIPOS>MOLECULE
2fx6_ligand
   17    18     1     0     0
SMALL
GAST_HUCK


@<TRIPOS>ATOM
      1 N1         44.4200   -2.3760   25.6810 N.2       1 270        -0.3139
      2 C1         44.1210   -3.6080   25.3470 C.2       1 270         0.2106
      3 C2         44.1430   -2.2660   26.9430 C.ar      1 270         0.0112
      4 C3         44.2820   -1.1670   27.7600 C.ar      1 270        -0.0694
      5 C4         43.9050   -1.3490   29.0980 C.ar      1 270        -0.0809
      6 C5         43.4110   -2.5950   29.5450 C.ar      1 270        -0.0787
      7 C6         43.2860   -3.7060   28.6680 C.ar      1 270        -0.0448
      8 C7         43.6700   -3.4780   27.3690 C.ar      1 270         0.0750
      9 N3         43.6570   -4.3030   26.3630 N.pl3     1 270        -0.2304
     10 N2         44.3670   -4.0970   24.1710 N.pl3     1 270        -0.2887
     11 H1         44.6594   -0.2199   27.3918 H         1 270         0.0516
     12 H2         43.9934   -0.5251   29.7969 H         1 270         0.0508
     13 H3         43.1200   -2.7062   30.5833 H         1 270         0.0513
     14 H4         42.9131   -4.6677   29.0013 H         1 270         0.0533
     15 H5         43.3502   -5.2862   26.3623 H         1 270         0.2311
     16 H6         44.7302   -3.4866   23.4251 H         1 270         0.1860
     17 H7         44.1991   -5.0957   23.9831 H         1 270         0.1860
@<TRIPOS>BOND
     1    1    2 2  
     2    1    3 1  
     3    2    9 1  
     4    2   10 1  
     5    3    4 ar 
     6    3    8 ar 
     7    4    5 ar 
     8    5    6 ar 
     9    6    7 ar 
    10    7    8 ar 
    11    8    9 1  
    12    4   11 1  
    13    5   12 1  
    14    6   13 1  
    15    7   14 1  
    16    9   15 1  
    17   10   16 1  
    18   10   17 1  
@<TRIPOS>SUBSTRUCTURE
     1 270         1

