### 
### Created by X-TOOL on Mon Sep 10 21:12:54 2018
### 

@<TRIPOS>MOLECULE
2fxr_ligand
   79    83     1     0     0
SMALL
GAST_HUCK


@<TRIPOS>ATOM
      1 C2          1.8100   18.3770   71.4840 C.2       1 C3A        -0.0593
      2 C5         -0.3230   21.1540   70.4240 C.2       1 C3A         0.3224
      3 C1          3.0780   18.5930   71.1310 C.2       1 C3A        -0.1150
      4 C3          0.7880   19.4620   71.6510 C.3       1 C3A         0.1058
      5 O4          0.6050   20.1570   70.3700 O.3       1 C3A        -0.2495
      6 O6         -0.9670   21.4720   71.4340 O.2       1 C3A        -0.3774
      7 C8         -1.4500   22.8230   68.9160 C.3       1 C3A         0.0807
      8 C9         -0.8320   23.9540   68.0420 C.3       1 C3A        -0.0252
      9 N7         -0.4670   21.7330   69.1890 N.am      1 C3A        -0.2548
     10 C10         0.3650   24.6560   68.7080 C.3       1 C3A        -0.0429
     11 C11         0.9390   25.7870   67.8480 C.3       1 C3A         0.0040
     12 C12         1.5810   25.3580   66.5290 C.3       1 C3A        -0.0049
     13 C13         2.5060   26.5180   66.1730 C.3       1 C3A        -0.0332
     14 N14         2.5690   27.3610   67.4060 N.4       1 C3A         0.2272
     15 C15         2.0770   26.5030   68.5210 C.3       1 C3A        -0.0306
     16 C16        -2.7390   22.1420   68.2560 C.3       1 C3A         0.1283
     17 O17        -3.6200   23.0780   67.8580 O.3       1 C3A        -0.3757
     18 C18        -3.4040   21.2530   69.2830 C.2       1 C3A         0.1086
     19 N19        -4.4300   21.6110   70.0820 N.2       1 C3A        -0.1416
     20 O20        -4.6540   20.4510   70.8580 O.3       1 C3A        -0.1457
     21 C21        -3.7340   19.5200   70.4390 C.2       1 C3A         0.2227
     22 C22        -3.7360   18.1920   71.1030 C.3       1 C3A         0.0780
     23 C23        -5.0430   17.4360   70.9940 C.ar      1 C3A        -0.0174
     24 C24        -6.1540   17.7660   71.8320 C.ar      1 C3A        -0.0515
     25 C25        -7.3720   17.0500   71.7300 C.ar      1 C3A        -0.0479
     26 C26        -7.5070   15.9820   70.7870 C.ar      1 C3A         0.0431
     27 C27        -6.4060   15.6450   69.9410 C.ar      1 C3A        -0.0479
     28 C28        -5.1880   16.3680   70.0470 C.ar      1 C3A        -0.0515
     29 C29        -8.7910   15.2530   70.7270 C.2       1 C3A         0.2007
     30 O30        -9.6270   15.4580   71.5750 O.2       1 C3A        -0.3877
     31 N31        -8.9480   14.3600   69.6820 N.am      1 C3A        -0.2806
     32 C32       -10.1290   13.5440   69.4380 C.3       1 C3A         0.0584
     33 C33       -10.1320   12.8710   68.0460 C.3       1 C3A         0.0032
     34 C34       -11.0750   11.7360   68.2690 C.ar      1 C3A        -0.0386
     35 C35       -11.7960   10.9820   67.3070 C.ar      1 C3A        -0.0668
     36 C36       -12.6400    9.9350   67.7680 C.ar      1 C3A        -0.0755
     37 C37       -12.7540    9.6580   69.1690 C.ar      1 C3A        -0.0755
     38 C38       -12.0230   10.4260   70.1250 C.ar      1 C3A        -0.0668
     39 C39       -11.1880   11.4610   69.6590 C.ar      1 C3A        -0.0386
     40 C40       -10.3290   12.3960   70.4630 C.3       1 C3A         0.0032
     41 N41        -2.9480   19.9570   69.4800 N.2       1 C3A        -0.2724
     42 H1          1.4974   17.3491   71.6620 H         1 C3A         0.0698
     43 H2          3.7652   17.7544   71.0289 H         1 C3A         0.0291
     44 H3          3.4261   19.6080   70.9449 H         1 C3A         0.0291
     45 H4          1.1329   20.1779   72.4116 H         1 C3A         0.0793
     46 H5         -0.1679   19.0207   71.9695 H         1 C3A         0.0793
     47 H6         -1.7497   23.2738   69.8736 H         1 C3A         0.0604
     48 H7         -1.6102   24.7055   67.8428 H         1 C3A         0.0290
     49 H8         -0.4942   23.5151   67.0916 H         1 C3A         0.0290
     50 H9          0.1112   21.4112   68.4393 H         1 C3A         0.1873
     51 H10         1.1558   23.9121   68.8848 H         1 C3A         0.0271
     52 H11         0.0360   25.0770   69.6695 H         1 C3A         0.0271
     53 H12         0.1189   26.4908   67.6431 H         1 C3A         0.0354
     54 H13         0.8169   25.2145   65.7509 H         1 C3A         0.0321
     55 H14         2.1530   24.4272   66.6573 H         1 C3A         0.0321
     56 H15         2.0949   27.0952   65.3317 H         1 C3A         0.0814
     57 H16         3.5068   26.1462   65.9083 H         1 C3A         0.0814
     58 H17         1.9810   28.1734   67.3045 H         1 C3A         0.2013
     59 H18         3.5177   27.6527   67.5819 H         1 C3A         0.2013
     60 H19         2.8514   25.8004   68.8625 H         1 C3A         0.0816
     61 H20         1.7283   27.1065   69.3720 H         1 C3A         0.0816
     62 H21        -2.4294   21.5402   67.3889 H         1 C3A         0.0792
     63 H22        -3.2092   23.6454   67.2162 H         1 C3A         0.2131
     64 H23        -3.5138   18.3413   72.1699 H         1 C3A         0.0706
     65 H24        -2.9455   17.5785   70.6461 H         1 C3A         0.0706
     66 H25        -6.0632   18.5714   72.5518 H         1 C3A         0.0576
     67 H26        -8.2066   17.3126   72.3699 H         1 C3A         0.0653
     68 H27        -6.4999   14.8403   69.2208 H         1 C3A         0.0653
     69 H28        -4.3556   16.1090   69.4028 H         1 C3A         0.0576
     70 H29        -8.1865   14.2672   69.0405 H         1 C3A         0.1849
     71 H30       -10.9976   14.2161   69.5003 H         1 C3A         0.0598
     72 H31        -9.1293   12.5125   67.7703 H         1 C3A         0.0435
     73 H32       -10.5031   13.5555   67.2691 H         1 C3A         0.0435
     74 H33       -11.7056   11.1986   66.2487 H         1 C3A         0.0537
     75 H34       -13.2011    9.3422   67.0546 H         1 C3A         0.0541
     76 H35       -13.4019    8.8571   69.5066 H         1 C3A         0.0541
     77 H36       -12.1084   10.2177   71.1854 H         1 C3A         0.0537
     78 H37       -10.8460   12.7453   71.3689 H         1 C3A         0.0435
     79 H38        -9.3728   11.9300   70.7431 H         1 C3A         0.0435
@<TRIPOS>BOND
     1    1    3 2  
     2    4    1 1  
     3    2    5 1  
     4    2    6 2  
     5    9    2 am 
     6    5    4 1  
     7    7    8 1  
     8    7    9 1  
     9    7   16 1  
    10    8   10 1  
    11   10   11 1  
    12   11   12 1  
    13   11   15 1  
    14   12   13 1  
    15   13   14 1  
    16   14   15 1  
    17   16   17 1  
    18   16   18 1  
    19   18   19 2  
    20   18   41 1  
    21   19   20 1  
    22   20   21 1  
    23   21   22 1  
    24   21   41 2  
    25   22   23 1  
    26   23   24 ar 
    27   23   28 ar 
    28   24   25 ar 
    29   25   26 ar 
    30   26   27 ar 
    31   26   29 1  
    32   27   28 ar 
    33   29   30 2  
    34   29   31 am 
    35   31   32 1  
    36   32   33 1  
    37   32   40 1  
    38   33   34 1  
    39   34   35 ar 
    40   34   39 ar 
    41   35   36 ar 
    42   36   37 ar 
    43   37   38 ar 
    44   38   39 ar 
    45   39   40 1  
    46    1   42 1  
    47    3   43 1  
    48    3   44 1  
    49    4   45 1  
    50    4   46 1  
    51    7   47 1  
    52    8   48 1  
    53    8   49 1  
    54    9   50 1  
    55   10   51 1  
    56   10   52 1  
    57   11   53 1  
    58   12   54 1  
    59   12   55 1  
    60   13   56 1  
    61   13   57 1  
    62   14   58 1  
    63   14   59 1  
    64   15   60 1  
    65   15   61 1  
    66   16   62 1  
    67   17   63 1  
    68   22   64 1  
    69   22   65 1  
    70   24   66 1  
    71   25   67 1  
    72   27   68 1  
    73   28   69 1  
    74   31   70 1  
    75   32   71 1  
    76   33   72 1  
    77   33   73 1  
    78   35   74 1  
    79   36   75 1  
    80   37   76 1  
    81   38   77 1  
    82   40   78 1  
    83   40   79 1  
@<TRIPOS>SUBSTRUCTURE
     1 C3A         1

