### 
### Created by X-TOOL on Mon Sep 10 21:12:53 2018
### 

@<TRIPOS>MOLECULE
2fxu_ligand
  118   120     1     0     0
SMALL
GAST_HUCK


@<TRIPOS>ATOM
      1 O5         14.2060  -12.9030   37.1060 O.2       1 BID        -0.3967
      2 C18        14.1450  -13.6130   36.1170 C.2       1 BID         0.1813
      3 C16        14.9100  -13.2100   34.8880 C.3       1 BID         0.0735
      4 C17        14.2890  -11.9090   34.3280 C.3       1 BID        -0.0428
      5 C15        16.4200  -13.1110   35.1420 C.3       1 BID         0.0944
      6 O4         16.7020  -11.9690   35.9460 O.3       1 BID        -0.3872
      7 C14        16.9360  -14.4070   35.7850 C.3       1 BID         0.0592
      8 N1         18.3900  -14.3980   35.9460 N.am      1 BID        -0.2842
      9 C13        19.2530  -14.8950   35.0720 C.2       1 BID         0.1786
     10 O3         18.8500  -15.3550   34.0040 O.2       1 BID        -0.3970
     11 C12        20.7270  -14.8180   35.3960 C.3       1 BID         0.0637
     12 C11        21.3760  -16.1950   35.3760 C.3       1 BID         0.0784
     13 C9         22.8710  -16.1350   35.6890 C.3       1 BID        -0.0153
     14 C10        23.6060  -15.1710   34.7820 C.3       1 BID        -0.0599
     15 C8         23.1220  -15.8010   37.1530 C.3       1 BID        -0.0455
     16 C7         22.4060  -16.7970   38.0370 C.3       1 BID        -0.0242
     17 O2         20.7060  -17.0560   36.3090 O.3       1 BID        -0.3685
     18 C6         20.9190  -16.8690   37.7130 C.3       1 BID         0.0736
     19 C5         20.3280  -18.0630   38.4590 C.3       1 BID         0.0427
     20 C4         18.8430  -17.9100   38.7180 C.2       1 BID         0.1064
     21 O1         18.3510  -16.7980   38.7610 O.2       1 BID        -0.3963
     22 C3         17.9560  -19.0770   38.9350 C.2       1 BID        -0.0200
     23 C2         18.3940  -20.3380   38.9170 C.2       1 BID        -0.0629
     24 C1         17.4290  -21.4790   39.1430 C.3       1 BID        -0.0261
     25 N2         13.4460  -14.7330   36.0670 N.am      1 BID        -0.2867
     26 C19        12.6480  -15.2540   37.1700 C.3       1 BID         0.0310
     27 C20        11.5820  -16.1680   36.5890 C.3       1 BID        -0.0304
     28 C21        10.5960  -16.6390   37.6570 C.3       1 BID        -0.0244
     29 C22         9.5280  -17.5070   37.0230 C.3       1 BID         0.0646
     30 C23         8.4390  -17.9690   37.9930 C.3       1 BID        -0.0173
     31 C24         7.6670  -16.7860   38.5830 C.3       1 BID        -0.0601
     32 C25         7.5490  -18.9770   37.2710 C.3       1 BID        -0.0432
     33 C26         8.3760  -20.1140   36.6740 C.3       1 BID         0.0018
     34 C27         9.4710  -19.5690   35.7580 C.3       1 BID         0.1707
     35 O6         10.2180  -18.6530   36.5480 O.3       1 BID        -0.3451
     36 C28        10.4530  -20.6510   35.3200 C.3       1 BID         0.0015
     37 C29        11.4970  -20.1190   34.3430 C.3       1 BID        -0.0458
     38 C30        10.7760  -19.4760   33.1660 C.3       1 BID        -0.0263
     39 C31         9.8600  -18.3890   33.6990 C.3       1 BID         0.0621
     40 O7          8.8850  -18.9710   34.5970 O.3       1 BID        -0.3454
     41 C32         9.1100  -17.7360   32.5690 C.3       1 BID        -0.0251
     42 C33         8.3550  -16.4850   33.0120 C.3       1 BID        -0.0449
     43 C34         7.7170  -15.7120   31.8470 C.3       1 BID        -0.0378
     44 C35         7.1380  -14.3600   32.2750 C.3       1 BID        -0.0592
     45 C36         6.6240  -16.5560   31.2220 C.2       1 BID        -0.1038
     46 C37         6.6480  -17.0360   29.9610 C.2       1 BID        -0.0560
     47 C38         7.7600  -16.7640   28.9730 C.3       1 BID        -0.0380
     48 C39         5.5000  -17.8720   29.4540 C.3       1 BID         0.0772
     49 C40         5.9740  -19.3010   29.2200 C.3       1 BID        -0.0302
     50 O8          5.0180  -17.3110   28.2270 O.3       1 BID        -0.3811
     51 H1         14.7674  -13.9964   34.1322 H         1 BID         0.0561
     52 H2         13.2100  -12.0553   34.1721 H         1 BID         0.0257
     53 H3         14.7670  -11.6574   33.3698 H         1 BID         0.0257
     54 H4         14.4482  -11.0890   35.0437 H         1 BID         0.0257
     55 H5         16.9289  -12.9835   34.1752 H         1 BID         0.0641
     56 H6         16.2483  -12.0482   36.7768 H         1 BID         0.2101
     57 H7         16.6548  -15.2569   35.1458 H         1 BID         0.0547
     58 H8         16.4699  -14.5224   36.7747 H         1 BID         0.0547
     59 H9         18.7605  -13.9857   36.7783 H         1 BID         0.1852
     60 H10        20.8504  -14.3794   36.3972 H         1 BID         0.0528
     61 H11        21.2235  -14.1782   34.6517 H         1 BID         0.0528
     62 H12        21.2571  -16.6146   34.3662 H         1 BID         0.0624
     63 H13        23.2829  -17.1380   35.5039 H         1 BID         0.0325
     64 H14        24.6742  -15.1625   35.0446 H         1 BID         0.0233
     65 H15        23.1898  -14.1605   34.9066 H         1 BID         0.0233
     66 H16        23.4882  -15.4897   33.7358 H         1 BID         0.0233
     67 H17        22.7474  -14.7889   37.3658 H         1 BID         0.0270
     68 H18        24.2021  -15.8426   37.3568 H         1 BID         0.0270
     69 H19        22.5279  -16.4940   39.0874 H         1 BID         0.0292
     70 H20        22.8521  -17.7914   37.8881 H         1 BID         0.0292
     71 H21        20.4264  -15.9406   38.0375 H         1 BID         0.0620
     72 H22        20.8452  -18.1668   39.4242 H         1 BID         0.0502
     73 H23        20.4892  -18.9696   37.8572 H         1 BID         0.0502
     74 H24        16.8975  -18.8977   39.1177 H         1 BID         0.0460
     75 H25        19.4483  -20.5448   38.7392 H         1 BID         0.0854
     76 H26        17.9722  -22.4342   39.0917 H         1 BID         0.0456
     77 H27        16.6491  -21.4587   38.3676 H         1 BID         0.0456
     78 H28        16.9635  -21.3747   40.1342 H         1 BID         0.0456
     79 H29        13.4657  -15.2581   35.2162 H         1 BID         0.1851
     80 H30        12.1723  -14.4230   37.7114 H         1 BID         0.0520
     81 H31        13.2902  -15.8212   37.8598 H         1 BID         0.0520
     82 H32        12.0707  -17.0468   36.1431 H         1 BID         0.0285
     83 H33        11.0296  -15.6212   35.8106 H         1 BID         0.0285
     84 H34        10.1235  -15.7648   38.1287 H         1 BID         0.0291
     85 H35        11.1342  -17.2210   38.4196 H         1 BID         0.0291
     86 H36         9.0572  -16.9627   36.1911 H         1 BID         0.0600
     87 H37         8.9250  -18.4895   38.8313 H         1 BID         0.0323
     88 H38         6.8957  -17.1590   39.2730 H         1 BID         0.0233
     89 H39         7.1890  -16.2184   37.7710 H         1 BID         0.0233
     90 H40         8.3615  -16.1306   39.1291 H         1 BID         0.0233
     91 H41         7.0079  -18.4638   36.4624 H         1 BID         0.0270
     92 H42         6.8269  -19.3960   37.9872 H         1 BID         0.0270
     93 H43         7.7150  -20.7732   36.0923 H         1 BID         0.0317
     94 H44         8.8410  -20.6877   37.4892 H         1 BID         0.0317
     95 H45         9.8924  -21.4622   34.8326 H         1 BID         0.0317
     96 H46        10.9676  -21.0437   36.2094 H         1 BID         0.0317
     97 H47        12.1259  -20.9474   33.9849 H         1 BID         0.0268
     98 H48        12.1275  -19.3706   34.8453 H         1 BID         0.0268
     99 H49        10.1821  -20.2346   32.6351 H         1 BID         0.0290
    100 H50        11.5110  -19.0365   32.4756 H         1 BID         0.0290
    101 H51        10.4585  -17.6360   34.2327 H         1 BID         0.0597
    102 H52         8.3871  -18.4582   32.1619 H         1 BID         0.0291
    103 H53         9.8285  -17.4548   31.7850 H         1 BID         0.0291
    104 H54         9.0598  -15.8172   33.5289 H         1 BID         0.0283
    105 H55         7.5583  -16.7867   33.7079 H         1 BID         0.0283
    106 H56         8.4959  -15.5263   31.0928 H         1 BID         0.0372
    107 H57         6.6976  -13.8567   31.4016 H         1 BID         0.0247
    108 H58         7.9396  -13.7337   32.6934 H         1 BID         0.0247
    109 H59         6.3609  -14.5186   33.0372 H         1 BID         0.0247
    110 H60         5.7558  -16.7923   31.8355 H         1 BID         0.0246
    111 H61         8.5352  -16.1492   29.4536 H         1 BID         0.0376
    112 H62         7.3541  -16.2277   28.1026 H         1 BID         0.0376
    113 H63         8.1996  -17.7172   28.6441 H         1 BID         0.0376
    114 H64         4.6902  -17.8740   30.1985 H         1 BID         0.0738
    115 H65         5.1355  -19.9095   28.8502 H         1 BID         0.0276
    116 H66         6.3449  -19.7238   30.1654 H         1 BID         0.0276
    117 H67         6.7837  -19.3015   28.4754 H         1 BID         0.0276
    118 H68         4.7245  -16.4207   28.3809 H         1 BID         0.2129
@<TRIPOS>BOND
     1    1    2 2  
     2    2    3 1  
     3    2   25 am 
     4    3    4 1  
     5    3    5 1  
     6    5    6 1  
     7    5    7 1  
     8    7    8 1  
     9    8    9 am 
    10    9   10 2  
    11    9   11 1  
    12   11   12 1  
    13   12   13 1  
    14   12   17 1  
    15   13   14 1  
    16   13   15 1  
    17   15   16 1  
    18   16   18 1  
    19   17   18 1  
    20   18   19 1  
    21   19   20 1  
    22   20   21 2  
    23   20   22 1  
    24   22   23 2  
    25   23   24 1  
    26   25   26 1  
    27   26   27 1  
    28   27   28 1  
    29   28   29 1  
    30   29   30 1  
    31   29   35 1  
    32   30   31 1  
    33   30   32 1  
    34   32   33 1  
    35   33   34 1  
    36   34   35 1  
    37   34   36 1  
    38   34   40 1  
    39   36   37 1  
    40   37   38 1  
    41   38   39 1  
    42   39   40 1  
    43   39   41 1  
    44   41   42 1  
    45   42   43 1  
    46   43   44 1  
    47   43   45 1  
    48   45   46 2  
    49   46   47 1  
    50   46   48 1  
    51   48   49 1  
    52   48   50 1  
    53    3   51 1  
    54    4   52 1  
    55    4   53 1  
    56    4   54 1  
    57    5   55 1  
    58    6   56 1  
    59    7   57 1  
    60    7   58 1  
    61    8   59 1  
    62   11   60 1  
    63   11   61 1  
    64   12   62 1  
    65   13   63 1  
    66   14   64 1  
    67   14   65 1  
    68   14   66 1  
    69   15   67 1  
    70   15   68 1  
    71   16   69 1  
    72   16   70 1  
    73   18   71 1  
    74   19   72 1  
    75   19   73 1  
    76   22   74 1  
    77   23   75 1  
    78   24   76 1  
    79   24   77 1  
    80   24   78 1  
    81   25   79 1  
    82   26   80 1  
    83   26   81 1  
    84   27   82 1  
    85   27   83 1  
    86   28   84 1  
    87   28   85 1  
    88   29   86 1  
    89   30   87 1  
    90   31   88 1  
    91   31   89 1  
    92   31   90 1  
    93   32   91 1  
    94   32   92 1  
    95   33   93 1  
    96   33   94 1  
    97   36   95 1  
    98   36   96 1  
    99   37   97 1  
   100   37   98 1  
   101   38   99 1  
   102   38  100 1  
   103   39  101 1  
   104   41  102 1  
   105   41  103 1  
   106   42  104 1  
   107   42  105 1  
   108   43  106 1  
   109   44  107 1  
   110   44  108 1  
   111   44  109 1  
   112   45  110 1  
   113   47  111 1  
   114   47  112 1  
   115   47  113 1  
   116   48  114 1  
   117   49  115 1  
   118   49  116 1  
   119   49  117 1  
   120   50  118 1  
@<TRIPOS>SUBSTRUCTURE
     1 BID         1

