### 
### Created by X-TOOL on Mon Sep 10 21:12:53 2018
### 

@<TRIPOS>MOLECULE
2fyv_ligand
   42    42     1     0     0
SMALL
GAST_HUCK


@<TRIPOS>ATOM
      1 C1         31.5140   66.2070    7.1750 C.3       1 W72         0.1304
      2 O1         31.6230   67.1410    6.1300 O.3       1 W72        -0.3833
      3 C2         32.5920   66.0980    8.2440 C.3       1 W72         0.1259
      4 O2         33.8250   65.4390    8.0020 O.3       1 W72        -0.3837
      5 C3         31.9480   65.5570    9.5040 C.3       1 W72        -0.0020
      6 N4         30.5800   65.0330    9.1330 N.4       1 W72         0.2447
      7 C5         30.3020   66.0380    8.0800 C.3       1 W72         0.0321
      8 C6         29.0140   65.9060    7.2820 C.3       1 W72         0.0894
      9 O6         27.8510   65.9350    8.0890 O.3       1 W72        -0.3894
     10 C7         29.7210   65.3550   10.3330 C.3       1 W72        -0.0022
     11 C8         30.0090   64.1550   11.2320 C.3       1 W72         0.1231
     12 O8         29.7750   62.9510   10.5020 O.3       1 W72        -0.3838
     13 C9         29.2540   64.0490   12.5610 C.3       1 W72         0.1158
     14 O9         29.1600   65.3380   13.1660 O.3       1 W72        -0.3863
     15 C10        27.8750   63.3860   12.3810 C.3       1 W72         0.1210
     16 O10        27.0690   64.4690   11.9180 O.3       1 W72        -0.3848
     17 C11        27.0410   62.7060   13.4730 C.3       1 W72         0.1355
     18 O11        25.6600   62.6430   13.1080 O.3       1 W72        -0.3750
     19 C12        27.2300   63.4410   14.8140 C.2       1 W72         0.0660
     20 O12        26.3060   64.3510   15.3680 O.co2     1 W72        -0.5663
     21 O13        28.3560   63.2350   15.2990 O.co2     1 W72        -0.5663
     22 H1         31.5680   65.2666    6.6069 H         1 W72         0.0679
     23 H2         32.4126   66.9661    5.6316 H         1 W72         0.2102
     24 H3         32.8800   67.1388    8.4533 H         1 W72         0.0675
     25 H4         34.3617   65.4762    8.7850 H         1 W72         0.2101
     26 H5         31.8519   66.3598   10.2499 H         1 W72         0.0841
     27 H6         32.5611   64.7431    9.9182 H         1 W72         0.0841
     28 H7         30.5312   64.0698    8.8400 H         1 W72         0.2040
     29 H8         30.1932   66.9889    8.6222 H         1 W72         0.0901
     30 H9         29.0371   64.9509    6.7368 H         1 W72         0.0614
     31 H10        28.9614   66.7372    6.5635 H         1 W72         0.0614
     32 H11        27.8139   66.7594    8.5596 H         1 W72         0.2097
     33 H12        28.6560   65.4107   10.0635 H         1 W72         0.0841
     34 H13        30.0289   66.2981   10.8082 H         1 W72         0.0841
     35 H14        31.0790   64.2066   11.4820 H         1 W72         0.0674
     36 H15        29.9539   62.2036   11.0604 H         1 W72         0.2101
     37 H16        29.8419   63.4059   13.2324 H         1 W72         0.0649
     38 H17        28.6930   65.9263   12.5843 H         1 W72         0.2100
     39 H18        28.0001   62.6315   11.5904 H         1 W72         0.0665
     40 H19        26.1816   64.1624   11.7730 H         1 W72         0.2102
     41 H20        27.4069   61.6755   13.5920 H         1 W72         0.0791
     42 H21        25.3277   63.5233   12.9772 H         1 W72         0.2125
@<TRIPOS>BOND
     1    1    2 1  
     2    1    3 1  
     3    1    7 1  
     4    3    4 1  
     5    3    5 1  
     6    5    6 1  
     7    6    7 1  
     8    6   10 1  
     9    7    8 1  
    10    8    9 1  
    11   10   11 1  
    12   11   12 1  
    13   11   13 1  
    14   13   14 1  
    15   13   15 1  
    16   15   16 1  
    17   15   17 1  
    18   17   18 1  
    19   17   19 1  
    20   19   20 ar 
    21   19   21 ar 
    22    1   22 1  
    23    2   23 1  
    24    3   24 1  
    25    4   25 1  
    26    5   26 1  
    27    5   27 1  
    28    6   28 1  
    29    7   29 1  
    30    8   30 1  
    31    8   31 1  
    32    9   32 1  
    33   10   33 1  
    34   10   34 1  
    35   11   35 1  
    36   12   36 1  
    37   13   37 1  
    38   14   38 1  
    39   15   39 1  
    40   16   40 1  
    41   17   41 1  
    42   18   42 1  
@<TRIPOS>SUBSTRUCTURE
     1 W72         1

