### 
### Created by X-TOOL on Mon Sep 10 21:12:55 2018
### 

@<TRIPOS>MOLECULE
2fzz_ligand
   71    77     1     0     0
SMALL
GAST_HUCK


@<TRIPOS>ATOM
      1 F          25.8170   26.3860   63.4850 F         1 5QC        -0.2234
      2 F1         25.6410   27.7750   65.1970 F         1 5QC        -0.2234
      3 F2         25.0350   25.6540   65.4070 F         1 5QC        -0.2234
      4 O3         16.2800   27.6280   65.7490 O.3       1 5QC        -0.1910
      5 O1         20.3600   28.9070   61.6560 O.2       1 5QC        -0.3776
      6 N          16.3940   28.4640   66.7810 N.2       1 5QC        -0.1479
      7 N1         18.2730   29.6520   67.7210 N.pl3     1 5QC        -0.3306
      8 N2         21.5750   27.4090   63.8500 N.pl3     1 5QC        -0.1229
      9 N3         22.5580   26.7890   64.5770 N.2       1 5QC        -0.1399
     10 N4         22.3870   29.9110   61.3100 N.am      1 5QC        -0.2163
     11 C          17.4480   27.4180   65.1380 C.ar      1 5QC         0.1485
     12 C1         18.4640   28.1970   65.8180 C.ar      1 5QC         0.0491
     13 C2         17.7070   28.8230   66.8430 C.2       1 5QC         0.1245
     14 C3         17.8530   26.5840   63.9850 C.ar      1 5QC        -0.0228
     15 C4         19.2640   26.5570   63.5280 C.ar      1 5QC        -0.0241
     16 C5         20.2650   27.3800   64.2360 C.ar      1 5QC         0.1214
     17 C6         19.8650   28.2020   65.3930 C.ar      1 5QC        -0.0158
     18 C7         23.7580   27.1160   64.0630 C.2       1 5QC         0.1291
     19 C8         23.5290   27.9660   62.9730 C.2       1 5QC         0.0245
     20 C9         22.1510   28.1450   62.8540 C.2       1 5QC         0.1992
     21 C10        25.1310   26.7090   64.5610 C.3       1 5QC         0.3824
     22 C13        21.5590   28.9940   61.9140 C.2       1 5QC         0.2602
     23 C14        21.9050   30.7520   60.3440 C.ar      1 5QC         0.0701
     24 C15        22.0090   32.1730   60.6140 C.ar      1 5QC        -0.0398
     25 C16        21.4020   33.1150   59.6950 C.ar      1 5QC        -0.0678
     26 C17        20.6900   32.6280   58.4980 C.ar      1 5QC        -0.0353
     27 C18        20.6350   31.1850   58.2150 C.ar      1 5QC        -0.0678
     28 C19        21.2470   30.2330   59.1380 C.ar      1 5QC        -0.0398
     29 C24        19.9970   33.6230   57.5700 C.ar      1 5QC        -0.0197
     30 C25        20.2620   33.7280   56.1330 C.ar      1 5QC         0.0070
     31 C11        21.3210   32.8530   55.4260 C.3       1 5QC         0.0023
     32 N7         22.4710   33.6470   54.9410 N.4       1 5QC         0.2492
     33 C20        23.5700   32.9920   54.1820 C.3       1 5QC        -0.0278
     34 C23        23.0880   34.4430   56.0250 C.3       1 5QC        -0.0036
     35 C12        18.9480   34.5120   58.1070 C.ar      1 5QC        -0.0637
     36 C21        18.2420   35.4380   57.2250 C.ar      1 5QC        -0.0703
     37 C22        19.5360   34.6760   55.2550 C.ar      1 5QC        -0.0564
     38 C26        18.5230   35.5560   55.8080 C.ar      1 5QC        -0.0702
     39 C27        24.4880   33.8480   56.0850 C.3       1 5QC         0.0997
     40 C28        24.8140   33.7950   54.5920 C.3       1 5QC         0.0185
     41 O2         25.2570   34.7170   56.7070 O.3       1 5QC        -0.3863
     42 C29        23.8010   30.0250   61.7500 C.3       1 5QC         0.0643
     43 C31        24.4750   28.6630   62.0280 C.3       1 5QC         0.0079
     44 H1         19.2828   29.8478   67.6674 H         1 5QC         0.1701
     45 H2         17.7004   30.0964   68.4528 H         1 5QC         0.1701
     46 H3         17.1106   25.9862   63.4686 H         1 5QC         0.0572
     47 H4         19.5565   25.9411   62.6853 H         1 5QC         0.0597
     48 H5         20.5977   28.8013   65.9212 H         1 5QC         0.0605
     49 H6         22.5349   32.5267   61.4934 H         1 5QC         0.0508
     50 H7         21.4712   34.1795   59.8874 H         1 5QC         0.0580
     51 H8         20.1392   30.8279   57.3196 H         1 5QC         0.0580
     52 H9         21.2163   29.1681   58.9376 H         1 5QC         0.0508
     53 H10        20.8500   32.3516   54.5677 H         1 5QC         0.0982
     54 H11        21.6872   32.0973   56.1364 H         1 5QC         0.0982
     55 H12        22.0631   34.3043   54.2948 H         1 5QC         0.2049
     56 H13        23.3960   33.0621   53.0981 H         1 5QC         0.0815
     57 H14        23.6714   31.9351   54.4695 H         1 5QC         0.0815
     58 H15        22.5533   34.3072   56.9767 H         1 5QC         0.0840
     59 H16        23.1174   35.5127   55.7703 H         1 5QC         0.0840
     60 H17        18.7002   34.4775   59.1617 H         1 5QC         0.0584
     61 H18        17.4698   36.0681   57.6513 H         1 5QC         0.0555
     62 H19        19.7625   34.7122   54.1955 H         1 5QC         0.0552
     63 H20        17.9979   36.2724   55.1866 H         1 5QC         0.0583
     64 H21        24.5279   32.8599   56.5667 H         1 5QC         0.0649
     65 H22        24.8472   34.7923   54.1291 H         1 5QC         0.0344
     66 H23        25.7524   33.2613   54.3810 H         1 5QC         0.0344
     67 H24        25.0349   34.7306   57.6305 H         1 5QC         0.2100
     68 H25        23.8307   30.6223   62.6732 H         1 5QC         0.0610
     69 H26        24.3699   30.5398   60.9618 H         1 5QC         0.0610
     70 H27        24.5903   28.0880   61.0974 H         1 5QC         0.0446
     71 H28        25.4603   28.8041   62.4963 H         1 5QC         0.0446
@<TRIPOS>BOND
     1   21    1 1  
     2   21    2 1  
     3   21    3 1  
     4    6    4 1  
     5   11    4 1  
     6   22    5 2  
     7   13    6 2  
     8   13    7 1  
     9    8    9 1  
    10    8   16 1  
    11   20    8 1  
    12   18    9 2  
    13   22   10 am 
    14   10   23 1  
    15   10   42 1  
    16   12   11 ar 
    17   14   11 ar 
    18   12   13 1  
    19   17   12 ar 
    20   15   14 ar 
    21   16   15 ar 
    22   16   17 ar 
    23   19   18 1  
    24   18   21 1  
    25   20   19 2  
    26   19   43 1  
    27   20   22 1  
    28   23   24 ar 
    29   23   28 ar 
    30   24   25 ar 
    31   25   26 ar 
    32   26   27 ar 
    33   26   29 1  
    34   27   28 ar 
    35   29   30 ar 
    36   29   35 ar 
    37   30   31 1  
    38   30   37 ar 
    39   31   32 1  
    40   32   33 1  
    41   32   34 1  
    42   33   40 1  
    43   34   39 1  
    44   35   36 ar 
    45   36   38 ar 
    46   37   38 ar 
    47   39   40 1  
    48   39   41 1  
    49   42   43 1  
    50    7   44 1  
    51    7   45 1  
    52   14   46 1  
    53   15   47 1  
    54   17   48 1  
    55   24   49 1  
    56   25   50 1  
    57   27   51 1  
    58   28   52 1  
    59   31   53 1  
    60   31   54 1  
    61   32   55 1  
    62   33   56 1  
    63   33   57 1  
    64   34   58 1  
    65   34   59 1  
    66   35   60 1  
    67   36   61 1  
    68   37   62 1  
    69   38   63 1  
    70   39   64 1  
    71   40   65 1  
    72   40   66 1  
    73   41   67 1  
    74   42   68 1  
    75   42   69 1  
    76   43   70 1  
    77   43   71 1  
@<TRIPOS>SUBSTRUCTURE
     1 5QC         1

