### 
### Created by X-TOOL on Mon Sep 10 21:12:55 2018
### 

@<TRIPOS>MOLECULE
2g00_ligand
   66    70     1     0     0
SMALL
GAST_HUCK


@<TRIPOS>ATOM
      1 C1         17.9420    8.0900   52.8610 C.ar      1 4QC         0.0497
      2 C2         17.3350    7.3230   51.7740 C.2       1 4QC         0.2018
      3 C3         17.7890    9.8600   54.5940 C.ar      1 4QC        -0.0563
      4 C7         23.6330    8.6040   54.0410 C.2       1 4QC         0.1318
      5 C8         23.3750    7.6900   55.0820 C.2       1 4QC         0.0254
      6 C9         21.9980    7.6710   55.3320 C.2       1 4QC         0.2008
      7 C10        25.0340    8.9760   53.5740 C.3       1 4QC         0.3843
      8 C11        21.7100    2.7740   62.7150 C.3       1 4QC         0.0017
      9 C12        23.6980    6.4190   57.1880 C.3       1 4QC         0.0643
     10 C13        21.4300    6.8990   56.3850 C.2       1 4QC         0.2605
     11 C14        21.6300    5.2120   58.0030 C.ar      1 4QC         0.0701
     12 C15        20.8930    5.6660   59.2160 C.ar      1 4QC        -0.0398
     13 C16        20.3080    4.6610   60.1010 C.ar      1 4QC        -0.0678
     14 C19        21.6900    3.7720   57.6530 C.ar      1 4QC        -0.0398
     15 C20        23.0220    1.5410   64.5820 C.3       1 4QC        -0.0419
     16 C21        18.7440    1.3640   60.4190 C.ar      1 4QC        -0.0637
     17 C22        18.1150    0.4670   61.3980 C.ar      1 4QC        -0.0703
     18 C24        24.2800    6.7150   55.8140 C.3       1 4QC         0.0080
     19 C27        19.9000    2.1880   60.8220 C.ar      1 4QC        -0.0197
     20 F          25.5040    7.9250   52.9820 F         1 4QC        -0.2218
     21 F1         25.8180    9.3320   54.5800 F         1 4QC        -0.2218
     22 F2         24.9400    9.9730   52.7200 F         1 4QC        -0.2218
     23 O1         20.2190    6.8920   56.6430 O.2       1 4QC        -0.3775
     24 N2         21.4130    8.5220   54.4170 N.pl3     1 4QC        -0.1162
     25 N3         22.4250    9.0850   53.6560 N.2       1 4QC        -0.1363
     26 N4         22.2510    6.1330   57.1530 N.am      1 4QC        -0.2163
     27 C          17.1290    9.0610   53.5800 C.ar      1 4QC        -0.0454
     28 C4         19.2210    9.6680   54.8670 C.ar      1 4QC        -0.0146
     29 C5         20.0420    8.6850   54.1440 C.ar      1 4QC         0.1348
     30 C6         19.3810    7.8760   53.1190 C.ar      1 4QC         0.0010
     31 C17        20.4420    3.2030   59.8060 C.ar      1 4QC        -0.0353
     32 C18        21.1010    2.7730   58.5430 C.ar      1 4QC        -0.0678
     33 C25        20.4010    2.0290   62.2270 C.ar      1 4QC         0.0069
     34 N7         22.2770    2.7360   64.1100 N.4       1 4QC         0.2430
     35 C23        23.1330    3.8910   64.4550 C.3       1 4QC        -0.0419
     36 O2         15.9270    7.2360   51.3860 O.2       1 4QC        -0.3848
     37 N1         18.1830    6.6630   51.0850 N.am      1 4QC        -0.3001
     38 C28        18.5790    0.3260   62.7980 C.ar      1 4QC        -0.0702
     39 C29        19.7380    1.1350   63.1890 C.ar      1 4QC        -0.0564
     40 H1         17.2261   10.5998   55.1515 H         1 4QC         0.0621
     41 H2         21.5328    3.8388   62.5036 H         1 4QC         0.0982
     42 H3         22.5150    2.4002   62.0652 H         1 4QC         0.0982
     43 H4         23.8669    7.2920   57.8355 H         1 4QC         0.0610
     44 H5         24.2177    5.5451   57.6077 H         1 4QC         0.0610
     45 H6         20.7927    6.7223   59.4378 H         1 4QC         0.0508
     46 H7         19.7682    4.9788   60.9857 H         1 4QC         0.0580
     47 H8         22.1723    3.4592   56.7340 H         1 4QC         0.0508
     48 H9         23.3546    1.7019   65.6181 H         1 4QC         0.0778
     49 H10        23.8978    1.3766   63.9371 H         1 4QC         0.0778
     50 H11        22.3654    0.6595   64.5405 H         1 4QC         0.0778
     51 H12        18.3611    1.4202   59.4064 H         1 4QC         0.0584
     52 H13        17.2645   -0.1243   61.0784 H         1 4QC         0.0555
     53 H14        25.2808    7.1573   55.9270 H         1 4QC         0.0446
     54 H15        24.3548    5.7807   55.2382 H         1 4QC         0.0446
     55 H16        16.0732    9.1815   53.3658 H         1 4QC         0.0638
     56 H17        19.6906   10.2756   55.6321 H         1 4QC         0.0653
     57 H18        19.9373    7.1330   52.5590 H         1 4QC         0.0671
     58 H19        21.1442    1.7214   58.2835 H         1 4QC         0.0580
     59 H20        21.4624    2.7947   64.7008 H         1 4QC         0.2042
     60 H21        22.6416    4.8208   64.1326 H         1 4QC         0.0778
     61 H22        24.1032    3.7935   63.9458 H         1 4QC         0.0778
     62 H23        23.2911    3.9182   65.5432 H         1 4QC         0.0778
     63 H24        17.8749    6.1031   50.3158 H         1 4QC         0.1808
     64 H25        19.1554    6.7058   51.3144 H         1 4QC         0.1808
     65 H26        18.0872   -0.3407   63.4971 H         1 4QC         0.0583
     66 H27        20.1126    1.0732   64.2043 H         1 4QC         0.0552
@<TRIPOS>BOND
     1    1    2 1  
     2   27    1 ar 
     3    1   30 ar 
     4    2   36 2  
     5    2   37 am 
     6    3   27 ar 
     7   28    3 ar 
     8    4    5 1  
     9    4    7 1  
    10   25    4 2  
    11    6    5 2  
    12    5   18 1  
    13    6   10 1  
    14   24    6 1  
    15    7   20 1  
    16    7   21 1  
    17    7   22 1  
    18   33    8 1  
    19    8   34 1  
    20   18    9 1  
    21   26    9 1  
    22   10   23 2  
    23   10   26 am 
    24   11   12 ar 
    25   11   14 ar 
    26   26   11 1  
    27   12   13 ar 
    28   13   31 ar 
    29   14   32 ar 
    30   34   15 1  
    31   16   17 ar 
    32   19   16 ar 
    33   17   38 ar 
    34   31   19 1  
    35   19   33 ar 
    36   24   25 1  
    37   29   24 1  
    38   28   29 ar 
    39   29   30 ar 
    40   31   32 ar 
    41   33   39 ar 
    42   34   35 1  
    43   38   39 ar 
    44    3   40 1  
    45    8   41 1  
    46    8   42 1  
    47    9   43 1  
    48    9   44 1  
    49   12   45 1  
    50   13   46 1  
    51   14   47 1  
    52   15   48 1  
    53   15   49 1  
    54   15   50 1  
    55   16   51 1  
    56   17   52 1  
    57   18   53 1  
    58   18   54 1  
    59   27   55 1  
    60   28   56 1  
    61   30   57 1  
    62   32   58 1  
    63   34   59 1  
    64   35   60 1  
    65   35   61 1  
    66   35   62 1  
    67   37   63 1  
    68   37   64 1  
    69   38   65 1  
    70   39   66 1  
@<TRIPOS>SUBSTRUCTURE
     1 4QC         1

