### 
### Created by X-TOOL on Mon Sep 10 21:12:55 2018
### 

@<TRIPOS>MOLECULE
2g01_ligand
   28    30     1     0     0
SMALL
GAST_HUCK


@<TRIPOS>ATOM
      1 C1         25.7510   96.7380   26.1430 C.3       1 73Q        -0.0292
      2 C2         25.5430   95.2700   26.3870 C.2       1 73Q         0.0070
      3 N1         25.6710   94.2940   25.4560 N.2       1 73Q        -0.2422
      4 N2         25.3980   93.0770   26.0440 N.pl3     1 73Q        -0.1890
      5 C3         25.4350   91.8060   25.3530 C.3       1 73Q         0.0572
      6 C4         25.1020   93.2460   27.3070 C.2       1 73Q         0.2308
      7 N3         24.7480   92.3610   28.3350 N.pl3     1 73Q        -0.0898
      8 O1         24.6660   91.0390   28.0800 O.3       1 73Q        -0.2438
      9 C5         24.4720   92.7790   29.6060 C.ar      1 73Q         0.1220
     10 C6         24.0950   91.9410   30.7060 C.ar      1 73Q        -0.0280
     11 C7         23.8200   92.4010   31.9910 C.ar      1 73Q        -0.0532
     12 C8         23.9130   93.8100   32.2750 C.ar      1 73Q         0.0333
     13 CL         23.5990   94.4580   33.8100 Cl        1 73Q        -0.0802
     14 C9         24.2770   94.6700   31.2340 C.ar      1 73Q        -0.0401
     15 C10        24.5550   94.1970   29.9160 C.ar      1 73Q         0.0498
     16 C11        24.9210   95.1330   28.8680 C.2       1 73Q         0.1123
     17 O2         24.9950   96.3800   29.1240 O.2       1 73Q        -0.4173
     18 C12        25.1890   94.6860   27.5830 C.2       1 73Q         0.0713
     19 H1         25.5796   97.2928   27.0772 H         1 73Q         0.0381
     20 H2         25.0444   97.0858   25.3751 H         1 73Q         0.0381
     21 H3         26.7813   96.9100   25.7982 H         1 73Q         0.0381
     22 H4         25.1770   90.9994   26.0550 H         1 73Q         0.0584
     23 H5         26.4455   91.6351   24.9535 H         1 73Q         0.0584
     24 H6         24.7106   91.8174   24.5253 H         1 73Q         0.0584
     25 H7         24.4174   90.5794   28.8734 H         1 73Q         0.2578
     26 H8         24.0187   90.8750   30.5249 H         1 73Q         0.0551
     27 H9         23.5380   91.7040   32.7719 H         1 73Q         0.0627
     28 H10        24.3506   95.7327   31.4348 H         1 73Q         0.0642
@<TRIPOS>BOND
     1    1    2 1  
     2    2    3 2  
     3    2   18 1  
     4    3    4 1  
     5    4    5 1  
     6    4    6 1  
     7    6    7 1  
     8    6   18 2  
     9    7    8 1  
    10    7    9 1  
    11    9   10 ar 
    12    9   15 ar 
    13   10   11 ar 
    14   11   12 ar 
    15   12   13 1  
    16   12   14 ar 
    17   14   15 ar 
    18   15   16 1  
    19   16   17 2  
    20   16   18 1  
    21    1   19 1  
    22    1   20 1  
    23    1   21 1  
    24    5   22 1  
    25    5   23 1  
    26    5   24 1  
    27    8   25 1  
    28   10   26 1  
    29   11   27 1  
    30   14   28 1  
@<TRIPOS>SUBSTRUCTURE
     1 73Q         1

