### 
### Created by X-TOOL on Mon Sep 10 21:12:54 2018
### 

@<TRIPOS>MOLECULE
2g0g_ligand
   41    44     1     0     0
SMALL
GAST_HUCK


@<TRIPOS>ATOM
      1 C22         8.7880   -4.9270   34.9140 C.ar      1 SP0        -0.0010
      2 C23         7.8130   -4.2080   35.5880 C.ar      1 SP0         0.1343
      3 F40         6.6150   -4.0840   34.9810 F         1 SP0        -0.1833
      4 C24         8.0890   -3.6380   36.8280 C.ar      1 SP0        -0.0281
      5 C25         9.3410   -3.7680   37.4250 C.ar      1 SP0        -0.0618
      6 C26        10.3250   -4.4820   36.7540 C.ar      1 SP0        -0.0386
      7 C21        10.0290   -5.0510   35.5200 C.ar      1 SP0         0.1131
      8 S18        11.2250   -5.9890   34.6800 S.o2      1 SP0         0.0931
      9 O19        12.5760   -5.5080   35.1340 O.2       1 SP0        -0.1439
     10 O20        10.9880   -5.8400   33.2030 O.2       1 SP0        -0.1439
     11 N17        10.9860   -7.5790   34.9630 N.am      1 SP0        -0.1539
     12 C9         11.2710   -8.2070   36.1040 C.2       1 SP0         0.1923
     13 C10        11.9300   -7.6960   37.1410 C.2       1 SP0        -0.0298
     14 C6         11.9790   -8.6780   38.0360 C.2       1 SP0         0.0153
     15 C4         12.5830   -8.6240   39.2880 C.2       1 SP0         0.0318
     16 C5         13.1390   -7.6160   39.9520 C.2       1 SP0        -0.0702
     17 C1         13.6760   -7.8890   41.1390 C.2       1 SP0        -0.0758
     18 C2         13.6070   -9.1520   41.5440 C.2       1 SP0        -0.0069
     19 S3         12.8020   -9.9810   40.2920 S.3       1 SP0        -0.0405
     20 N7         11.3670   -9.7370   37.5060 N.2       1 SP0        -0.2337
     21 N8         10.9310   -9.4620   36.3870 N.pl3     1 SP0        -0.1511
     22 C11        10.3100  -10.3190   35.5720 C.ar      1 SP0         0.1034
     23 C12        10.6890  -11.6600   35.5730 C.ar      1 SP0        -0.0291
     24 C13        10.0860  -12.5730   34.7220 C.ar      1 SP0        -0.0332
     25 C14         9.1010  -12.1160   33.8560 C.ar      1 SP0         0.1240
     26 F27         8.4950  -12.9550   32.9970 F         1 SP0        -0.1900
     27 C15         8.7200  -10.7830   33.8310 C.ar      1 SP0        -0.0332
     28 C16         9.3270   -9.8820   34.6930 C.ar      1 SP0        -0.0291
     29 H1          8.5874   -5.3761   33.9480 H         1 SP0         0.0624
     30 H2          7.3127   -3.0809   37.3400 H         1 SP0         0.0604
     31 H3          9.5426   -3.3216   38.3920 H         1 SP0         0.0608
     32 H4         11.3124   -4.5946   37.1870 H         1 SP0         0.0602
     33 H5         10.5950   -8.1250   34.2220 H         1 SP0         0.2250
     34 H6         12.3401   -6.6916   37.2360 H         1 SP0         0.0127
     35 H7         13.1547   -6.6074   39.5416 H         1 SP0         0.0427
     36 H8         14.1471   -7.1174   41.7461 H         1 SP0         0.0419
     37 H9         13.9843   -9.5686   42.4768 H         1 SP0         0.0731
     38 H10        11.4672  -11.9942   36.2496 H         1 SP0         0.0567
     39 H11        10.3759  -13.6175   34.7321 H         1 SP0         0.0585
     40 H12         7.9530  -10.4475   33.1424 H         1 SP0         0.0585
     41 H13         9.0348   -8.8382   34.6809 H         1 SP0         0.0567
@<TRIPOS>BOND
     1    1    2 ar 
     2    1    7 ar 
     3    2    3 1  
     4    2    4 ar 
     5    4    5 ar 
     6    5    6 ar 
     7    6    7 ar 
     8    7    8 1  
     9    8    9 2  
    10    8   10 2  
    11    8   11 am 
    12   11   12 1  
    13   12   13 2  
    14   12   21 1  
    15   13   14 1  
    16   14   15 1  
    17   14   20 2  
    18   15   16 2  
    19   15   19 1  
    20   16   17 1  
    21   17   18 2  
    22   18   19 1  
    23   20   21 1  
    24   21   22 1  
    25   22   23 ar 
    26   22   28 ar 
    27   23   24 ar 
    28   24   25 ar 
    29   25   26 1  
    30   25   27 ar 
    31   27   28 ar 
    32    1   29 1  
    33    4   30 1  
    34    5   31 1  
    35    6   32 1  
    36   11   33 1  
    37   13   34 1  
    38   16   35 1  
    39   17   36 1  
    40   18   37 1  
    41   23   38 1  
    42   24   39 1  
    43   27   40 1  
    44   28   41 1  
@<TRIPOS>SUBSTRUCTURE
     1 SP0         1

