### 
### Created by X-TOOL on Mon Sep 10 21:12:55 2018
### 

@<TRIPOS>MOLECULE
2g0h_ligand
   47    50     1     0     0
SMALL
GAST_HUCK


@<TRIPOS>ATOM
      1 C30       -10.3540   11.3820   35.5830 C.ar      1 SP3        -0.0291
      2 C31        -9.7910   12.2560   34.6640 C.ar      1 SP3        -0.0332
      3 C32        -8.7570   11.7870   33.8600 C.ar      1 SP3         0.1240
      4 F35        -8.1890   12.5950   32.9480 F         1 SP3        -0.1900
      5 C33        -8.2680   10.4920   33.9720 C.ar      1 SP3        -0.0332
      6 C34        -8.8510    9.6350   34.8910 C.ar      1 SP3        -0.0291
      7 C29        -9.8870   10.0760   35.7010 C.ar      1 SP3         0.1034
      8 N8        -10.4450    9.2390   36.5790 N.pl3     1 SP3        -0.1511
      9 N7        -10.9410    9.5710   37.6570 N.2       1 SP3        -0.2337
     10 C6        -11.4550    8.5000   38.2680 C.2       1 SP3         0.0153
     11 C3        -12.1240    8.5130   39.4910 C.2       1 SP3         0.0318
     12 C2        -12.9840    7.6440   40.0240 C.2       1 SP3        -0.0702
     13 C1        -13.5190    7.9830   41.2050 C.2       1 SP3        -0.0758
     14 C5        -13.1600    9.1580   41.7170 C.2       1 SP3        -0.0069
     15 S4        -12.0660    9.8170   40.5920 S.3       1 SP3        -0.0405
     16 C10       -11.2470    7.4430   37.4870 C.2       1 SP3        -0.0298
     17 C9        -10.6190    7.9280   36.4180 C.2       1 SP3         0.1924
     18 N11       -10.1940    7.2380   35.3590 N.am      1 SP3        -0.1528
     19 S12       -10.6220    5.7300   34.9010 S.o2      1 SP3         0.1060
     20 O13       -12.0770    5.5250   35.1850 O.2       1 SP3        -0.1428
     21 O14       -10.3000    5.6180   33.4360 O.2       1 SP3        -0.1428
     22 C15        -9.5950    4.6140   35.7050 C.ar      1 SP3         0.1681
     23 C16        -8.4110    4.3180   35.0560 C.ar      1 SP3         0.0205
     24 C20        -9.8990    4.0880   36.9530 C.ar      1 SP3         0.0205
     25 C19        -9.0080    3.2050   37.5590 C.ar      1 SP3         0.0810
     26 C25        -9.3510    2.5840   38.9290 C.3       1 SP3         0.3852
     27 F28        -8.2250    2.0440   39.3990 F         1 SP3        -0.2183
     28 F26        -9.8920    3.4760   39.7490 F         1 SP3        -0.2183
     29 F27       -10.2880    1.6320   38.9470 F         1 SP3        -0.2183
     30 C18        -7.8090    2.8900   36.9130 C.ar      1 SP3         0.0016
     31 C17        -7.5220    3.4460   35.6650 C.ar      1 SP3         0.0810
     32 C21        -6.2470    3.1730   34.8830 C.3       1 SP3         0.3852
     33 F24        -6.6360    2.8410   33.6770 F         1 SP3        -0.2183
     34 F22        -5.5390    4.2850   34.7820 F         1 SP3        -0.2183
     35 F23        -5.5520    2.1500   35.3470 F         1 SP3        -0.2183
     36 H1        -11.1665   11.7200   36.2160 H         1 SP3         0.0567
     37 H2        -10.1470   13.2760   34.5750 H         1 SP3         0.0585
     38 H3         -7.4446   10.1577   33.3512 H         1 SP3         0.0585
     39 H4         -8.4958    8.6145   34.9776 H         1 SP3         0.0567
     40 H5        -13.2378    6.7092   39.5263 H         1 SP3         0.0427
     41 H6        -14.2165    7.3263   41.7228 H         1 SP3         0.0419
     42 H7        -13.4942    9.6019   42.6536 H         1 SP3         0.0731
     43 H8        -11.5285    6.4088   37.6798 H         1 SP3         0.0127
     44 H9         -9.5304    7.7018   34.7721 H         1 SP3         0.2250
     45 H10        -8.1827    4.7581   34.0920 H         1 SP3         0.1076
     46 H11       -10.8217    4.3619   37.4518 H         1 SP3         0.1076
     47 H12        -7.1023    2.2142   37.3809 H         1 SP3         0.1137
@<TRIPOS>BOND
     1    1    2 ar 
     2    1    7 ar 
     3    2    3 ar 
     4    3    4 1  
     5    3    5 ar 
     6    5    6 ar 
     7    6    7 ar 
     8    7    8 1  
     9    8    9 1  
    10    8   17 1  
    11    9   10 2  
    12   10   11 1  
    13   10   16 1  
    14   11   12 2  
    15   11   15 1  
    16   12   13 1  
    17   13   14 2  
    18   14   15 1  
    19   16   17 2  
    20   17   18 1  
    21   18   19 am 
    22   19   20 2  
    23   19   21 2  
    24   19   22 1  
    25   22   23 ar 
    26   22   24 ar 
    27   23   31 ar 
    28   24   25 ar 
    29   25   26 1  
    30   25   30 ar 
    31   26   27 1  
    32   26   28 1  
    33   26   29 1  
    34   30   31 ar 
    35   31   32 1  
    36   32   33 1  
    37   32   34 1  
    38   32   35 1  
    39    1   36 1  
    40    2   37 1  
    41    5   38 1  
    42    6   39 1  
    43   12   40 1  
    44   13   41 1  
    45   14   42 1  
    46   16   43 1  
    47   18   44 1  
    48   23   45 1  
    49   24   46 1  
    50   30   47 1  
@<TRIPOS>SUBSTRUCTURE
     1 SP3         1

