### 
### Created by X-TOOL on Mon Sep 10 21:12:54 2018
### 

@<TRIPOS>MOLECULE
2g19_ligand
   27    28     1     0     0
SMALL
GAST_HUCK


@<TRIPOS>ATOM
      1 C1          6.4020   47.7320   23.9480 C.ar      1 4HG        -0.0523
      2 C2          5.6050   48.9260   24.1480 C.ar      1 4HG        -0.0454
      3 C3          4.3480   48.7720   24.8660 C.ar      1 4HG         0.0220
      4 C4          5.8940   46.4670   24.4650 C.ar      1 4HG        -0.0400
      5 C5          4.6200   46.3470   25.1780 C.ar      1 4HG         0.0426
      6 C6          3.8010   47.5370   25.4050 C.ar      1 4HG         0.0134
      7 C7          2.5610   47.4220   26.1700 C.ar      1 4HG         0.0094
      8 N1          2.1230   46.1910   26.7020 N.ar      1 4HG        -0.2938
      9 C8          2.9090   45.0360   26.4740 C.ar      1 4HG         0.1459
     10 C9          4.1520   45.0730   25.7050 C.ar      1 4HG         0.1482
     11 I1          3.2550   50.4520   25.2810 I         1 4HG        -0.0479
     12 O1          4.8320   43.9350   25.5240 O.3       1 4HG        -0.3131
     13 C10         2.3220   43.7880   27.0580 C.2       1 4HG         0.2117
     14 C11         2.0190   41.4360   26.9670 C.3       1 4HG         0.0825
     15 C12         2.6390   40.2040   26.3130 C.2       1 4HG         0.0569
     16 O2          2.2230   39.0850   26.6550 O.co2     1 4HG        -0.5669
     17 O3          1.4080   43.8810   27.8750 O.2       1 4HG        -0.3907
     18 O4          3.5930   40.3510   25.5120 O.co2     1 4HG        -0.5669
     19 N2          2.7750   42.5910   26.6780 N.am      1 4HG        -0.2750
     20 H1          7.3516   47.7784   23.4273 H         1 4HG         0.0640
     21 H2          5.9308   49.8918   23.7789 H         1 4HG         0.0689
     22 H3          6.4875   45.5724   24.3146 H         1 4HG         0.0694
     23 H4          1.9599   48.3091   26.3335 H         1 4HG         0.0748
     24 H5          5.0820   43.5791   26.3685 H         1 4HG         0.2586
     25 H6          1.9881   41.2887   28.0566 H         1 4HG         0.0688
     26 H7          0.9959   41.5701   26.5859 H         1 4HG         0.0688
     27 H8          3.6452   42.5138   26.1913 H         1 4HG         0.1861
@<TRIPOS>BOND
     1    1    2 ar 
     2    4    1 ar 
     3    3    2 ar 
     4    6    3 ar 
     5    3   11 1  
     6    5    4 ar 
     7    5    6 ar 
     8   10    5 ar 
     9    7    6 ar 
    10    8    7 ar 
    11    9    8 ar 
    12    9   10 ar 
    13   13    9 1  
    14   10   12 1  
    15   13   17 2  
    16   19   13 am 
    17   14   15 1  
    18   14   19 1  
    19   15   16 ar 
    20   15   18 ar 
    21    1   20 1  
    22    2   21 1  
    23    4   22 1  
    24    7   23 1  
    25   12   24 1  
    26   14   25 1  
    27   14   26 1  
    28   19   27 1  
@<TRIPOS>SUBSTRUCTURE
     1 4HG         1

