### 
### Created by X-TOOL on Mon Sep 10 21:12:55 2018
### 

@<TRIPOS>MOLECULE
2g1q_ligand
   53    55     1     0     0
SMALL
GAST_HUCK


@<TRIPOS>ATOM
      1 C1         22.1460   16.5720  105.4300 C.ar      1 N9H         0.1262
      2 C2         21.0310   16.5870  106.3280 C.ar      1 N9H        -0.0241
      3 C3         20.8720   15.4240  107.1610 C.ar      1 N9H         0.0214
      4 C4         21.8670   14.3750  107.0430 C.ar      1 N9H         0.1353
      5 C5         22.9670   14.3710  106.1260 C.ar      1 N9H        -0.0311
      6 C6         23.0910   15.5070  105.2860 C.ar      1 N9H        -0.0321
      7 C10        19.7110   15.3360  108.1100 C.2       1 N9H         0.0383
      8 N1         19.0180   16.3610  108.6240 N.2       1 N9H        -0.2074
      9 N12        18.1030   15.9790  109.5870 N.am      1 N9H        -0.1743
     10 C13        18.0150   14.5180  109.6450 C.3       1 N9H         0.0923
     11 C14        19.3160   14.1440  108.9590 C.3       1 N9H        -0.0002
     12 C17        18.0570   14.0090  111.1000 C.ar      1 N9H        -0.0160
     13 C19        17.2450   12.8820  111.5650 C.ar      1 N9H        -0.0367
     14 C20        17.3820   12.3720  112.9470 C.ar      1 N9H        -0.0323
     15 C21        18.3290   13.0230  113.8590 C.ar      1 N9H        -0.0340
     16 C22        19.1230   14.1550  113.4340 C.ar      1 N9H        -0.0323
     17 C23        18.9650   14.6470  112.0540 C.ar      1 N9H        -0.0367
     18 C29        17.0760   16.8160  110.1080 C.2       1 N9H         0.2953
     19 N30        17.1770   18.1730  110.0160 N.am      1 N9H        -0.2674
     20 C31        16.0940   19.1500  110.2760 C.3       1 N9H         0.0289
     21 O39        16.1400   16.2160  110.6230 O.2       1 N9H        -0.3898
     22 F40        21.7860   13.3450  107.8640 F         1 N9H        -0.1862
     23 F41        22.3250   17.6150  104.6930 F         1 N9H        -0.1875
     24 C7         16.8120   13.9780  108.7570 C.3       1 N9H        -0.0371
     25 C8         16.7200   14.4850  107.2450 C.3       1 N9H        -0.0170
     26 C9         15.1130   19.2480  109.1050 C.3       1 N9H        -0.0451
     27 C11        15.6870   13.9620  106.1350 C.3       1 N9H        -0.0360
     28 N2         15.8870   12.5840  105.6320 N.4       1 N9H         0.2185
     29 H1         20.3461   17.4258  106.3777 H         1 N9H         0.0577
     30 H2         23.6668   13.5446  106.0766 H         1 N9H         0.0588
     31 H3         23.8849   15.5673  104.5504 H         1 N9H         0.0577
     32 H4         20.0945   13.9356  109.7077 H         1 N9H         0.0355
     33 H5         19.1703   13.2570  108.3249 H         1 N9H         0.0355
     34 H6         16.5363   12.4168  110.8894 H         1 N9H         0.0851
     35 H7         16.7900   11.5278  113.2816 H         1 N9H         0.0698
     36 H8         18.4358   12.6486  114.8707 H         1 N9H         0.0856
     37 H9         19.8188   14.6308  114.1156 H         1 N9H         0.0698
     38 H10        19.5397   15.5091  111.7353 H         1 N9H         0.0851
     39 H11        18.0662   18.5436  109.7477 H         1 N9H         0.1851
     40 H12        16.5427   20.1398  110.4465 H         1 N9H         0.0515
     41 H13        15.5428   18.8375  111.1751 H         1 N9H         0.0515
     42 H14        15.8771   14.2686  109.2585 H         1 N9H         0.0204
     43 H15        16.8889   12.8810  108.7316 H         1 N9H         0.0204
     44 H16        17.7175   14.3025  106.8188 H         1 N9H         0.0310
     45 H17        16.5436   15.5685  107.3147 H         1 N9H         0.0310
     46 H18        14.3298   19.9827  109.3433 H         1 N9H         0.0249
     47 H19        14.6521   18.2648  108.9294 H         1 N9H         0.0249
     48 H20        15.6520   19.5670  108.2008 H         1 N9H         0.0249
     49 H21        15.7514   14.6430  105.2736 H         1 N9H         0.0813
     50 H22        14.6777   14.0143  106.5691 H         1 N9H         0.0813
     51 H23        15.1814   12.3717  104.9442 H         1 N9H         0.1994
     52 H24        15.8159   11.9330  106.3982 H         1 N9H         0.1994
     53 H25        16.7998   12.5091  105.2111 H         1 N9H         0.1994
@<TRIPOS>BOND
     1    1    2 ar 
     2    1    6 ar 
     3    1   23 1  
     4    2    3 ar 
     5    3    4 ar 
     6    3    7 1  
     7    4    5 ar 
     8    4   22 1  
     9    5    6 ar 
    10    7    8 2  
    11    7   11 1  
    12    8    9 1  
    13    9   10 1  
    14    9   18 am 
    15   10   11 1  
    16   10   12 1  
    17   10   24 1  
    18   12   13 ar 
    19   12   17 ar 
    20   13   14 ar 
    21   14   15 ar 
    22   15   16 ar 
    23   16   17 ar 
    24   18   19 am 
    25   18   21 2  
    26   19   20 1  
    27   20   26 1  
    28   24   25 1  
    29   25   27 1  
    30   27   28 1  
    31    2   29 1  
    32    5   30 1  
    33    6   31 1  
    34   11   32 1  
    35   11   33 1  
    36   13   34 1  
    37   14   35 1  
    38   15   36 1  
    39   16   37 1  
    40   17   38 1  
    41   19   39 1  
    42   20   40 1  
    43   20   41 1  
    44   24   42 1  
    45   24   43 1  
    46   25   44 1  
    47   25   45 1  
    48   26   46 1  
    49   26   47 1  
    50   26   48 1  
    51   27   49 1  
    52   27   50 1  
    53   28   51 1  
    54   28   52 1  
    55   28   53 1  
@<TRIPOS>SUBSTRUCTURE
     1 N9H         1

