### 
### Created by X-TOOL on Mon Sep 10 21:12:54 2018
### 

@<TRIPOS>MOLECULE
2g1r_ligand
   55    57     1     0     0
SMALL
GAST_HUCK


@<TRIPOS>ATOM
      1 C1         78.7740   24.9270   71.3990 C.ar      1 3IG         0.1110
      2 N1         78.1240   25.8870   72.1090 N.ar      1 3IG        -0.2512
      3 C2         78.4120   25.9540   73.4200 C.ar      1 3IG         0.1618
      4 N2         79.2800   25.1420   74.0530 N.ar      1 3IG        -0.2738
      5 C3         79.9420   24.1750   73.3570 C.ar      1 3IG         0.0237
      6 C4         79.7170   24.0300   71.9620 C.ar      1 3IG         0.0297
      7 N3         78.4810   24.8790   70.0870 N.pl3     1 3IG        -0.3182
      8 N4         77.8080   26.8820   74.1580 N.pl3     1 3IG        -0.3079
      9 C5         80.9080   23.3170   74.1550 C.3       1 3IG        -0.0068
     10 C6         82.3070   23.9280   74.2220 C.3       1 3IG        -0.0521
     11 C7         80.0660   21.6980   70.8870 C.ar      1 3IG        -0.0816
     12 C8         80.8820   20.8710   70.0510 C.ar      1 3IG        -0.0468
     13 C9         82.0640   21.3930   69.4480 C.ar      1 3IG         0.1115
     14 C10        82.4330   22.7510   69.6740 C.ar      1 3IG         0.0989
     15 C11        81.5990   23.5170   70.5160 C.ar      1 3IG        -0.0452
     16 C12        80.4420   23.0330   71.1150 C.ar      1 3IG        -0.0466
     17 O3         82.8420   20.5490   68.6520 O.3       1 3IG        -0.3129
     18 C14        83.7710   21.1520   67.7220 C.3       1 3IG         0.1655
     19 C15        84.3310   22.5670   68.1510 C.2       1 3IG         0.2560
     20 N5         83.6160   23.2810   69.1000 N.am      1 3IG        -0.2174
     21 C16        84.1350   24.6620   69.4400 C.3       1 3IG         0.0743
     22 C17        84.6940   24.7810   70.8780 C.3       1 3IG         0.0562
     23 N6         84.8000   26.1880   71.2740 N.am      1 3IG        -0.2847
     24 C13        85.9730   26.7360   71.6710 C.2       1 3IG         0.1730
     25 C19        85.8740   28.2220   72.0300 C.3       1 3IG         0.0256
     26 C21        83.0870   21.3010   66.3440 C.3       1 3IG        -0.0252
     27 C20        84.9340   20.1560   67.5890 C.3       1 3IG        -0.0252
     28 O4         85.3510   22.9890   67.6210 O.2       1 3IG        -0.3352
     29 O1         87.0420   26.1360   71.7420 O.2       1 3IG        -0.3974
     30 H1         78.9340   24.1780   69.4835 H         1 3IG         0.1813
     31 H2         77.8037   25.5433   69.6859 H         1 3IG         0.1813
     32 H3         77.1349   27.5287   73.7225 H         1 3IG         0.1826
     33 H4         78.0135   26.9536   75.1647 H         1 3IG         0.1826
     34 H5         80.9768   22.3270   73.6805 H         1 3IG         0.0472
     35 H6         80.5207   23.2069   75.1787 H         1 3IG         0.0472
     36 H7         82.9662   23.2712   74.8085 H         1 3IG         0.0257
     37 H8         82.2529   24.9163   74.7020 H         1 3IG         0.0257
     38 H9         82.7090   24.0363   73.2038 H         1 3IG         0.0257
     39 H10        79.1661   21.2983   71.3402 H         1 3IG         0.0448
     40 H11        80.5991   19.8395   69.8748 H         1 3IG         0.0496
     41 H12        81.8780   24.5468   70.7075 H         1 3IG         0.0443
     42 H13        83.3095   25.3803   69.3280 H         1 3IG         0.0606
     43 H14        84.9391   24.9144   68.7331 H         1 3IG         0.0606
     44 H15        85.6909   24.3179   70.9181 H         1 3IG         0.0545
     45 H16        84.0192   24.2595   71.5728 H         1 3IG         0.0545
     46 H17        83.9809   26.7611   71.2503 H         1 3IG         0.1851
     47 H18        86.8627   28.5908   72.3408 H         1 3IG         0.0467
     48 H19        85.1580   28.3531   72.8547 H         1 3IG         0.0467
     49 H20        85.5304   28.7892   71.1524 H         1 3IG         0.0467
     50 H21        83.7903   21.7594   65.6332 H         1 3IG         0.0246
     51 H22        82.1974   21.9403   66.4434 H         1 3IG         0.0246
     52 H23        82.7866   20.3094   65.9746 H         1 3IG         0.0246
     53 H24        85.6822   20.5573   66.8896 H         1 3IG         0.0246
     54 H25        84.5535   19.1967   67.2082 H         1 3IG         0.0246
     55 H26        85.3987   20.0012   68.5739 H         1 3IG         0.0246
@<TRIPOS>BOND
     1    1    2 ar 
     2    6    1 ar 
     3    1    7 1  
     4    2    3 ar 
     5    4    3 ar 
     6    3    8 1  
     7    5    4 ar 
     8    6    5 ar 
     9    5    9 1  
    10   16    6 1  
    11    9   10 1  
    12   11   12 ar 
    13   11   16 ar 
    14   12   13 ar 
    15   13   14 ar 
    16   13   17 1  
    17   14   15 ar 
    18   14   20 1  
    19   15   16 ar 
    20   17   18 1  
    21   18   19 1  
    22   18   26 1  
    23   18   27 1  
    24   19   20 am 
    25   19   28 2  
    26   20   21 1  
    27   21   22 1  
    28   22   23 1  
    29   23   24 am 
    30   24   25 1  
    31   24   29 2  
    32    7   30 1  
    33    7   31 1  
    34    8   32 1  
    35    8   33 1  
    36    9   34 1  
    37    9   35 1  
    38   10   36 1  
    39   10   37 1  
    40   10   38 1  
    41   11   39 1  
    42   12   40 1  
    43   15   41 1  
    44   21   42 1  
    45   21   43 1  
    46   22   44 1  
    47   22   45 1  
    48   23   46 1  
    49   25   47 1  
    50   25   48 1  
    51   25   49 1  
    52   26   50 1  
    53   26   51 1  
    54   26   52 1  
    55   27   53 1  
    56   27   54 1  
    57   27   55 1  
@<TRIPOS>SUBSTRUCTURE
     1 3IG         1

