### 
### Created by X-TOOL on Mon Sep 10 21:12:54 2018
### 

@<TRIPOS>MOLECULE
2g1y_ligand
   55    57     1     0     0
SMALL
GAST_HUCK


@<TRIPOS>ATOM
      1 C1         27.3650  106.3890  130.6310 C.ar      1 5IG         0.1110
      2 N1         28.0590  107.1070  131.5340 N.ar      1 5IG        -0.2512
      3 C2         27.8160  108.4200  131.5610 C.ar      1 5IG         0.1618
      4 N2         26.9440  109.0510  130.7560 N.ar      1 5IG        -0.2738
      5 C3         26.2260  108.3450  129.8410 C.ar      1 5IG         0.0237
      6 C4         26.4110  106.9510  129.7470 C.ar      1 5IG         0.0297
      7 N3         27.6220  105.0660  130.6200 N.pl3     1 5IG        -0.3182
      8 N4         28.4760  109.1670  132.4390 N.pl3     1 5IG        -0.3079
      9 C6         25.2490  109.1290  128.9660 C.3       1 5IG        -0.0068
     10 C7         25.9960  105.8530  127.4620 C.ar      1 5IG        -0.0816
     11 C8         25.1930  104.9780  126.6870 C.ar      1 5IG        -0.0468
     12 C9         24.0730  104.3300  127.2660 C.ar      1 5IG         0.1115
     13 C10        23.7300  104.5560  128.6380 C.ar      1 5IG         0.0988
     14 C11        24.5420  105.4390  129.3600 C.ar      1 5IG        -0.0452
     15 C12        25.6580  106.0800  128.8110 C.ar      1 5IG        -0.0466
     16 O3         23.3370  103.5030  126.4410 O.3       1 5IG        -0.3129
     17 C14        22.3660  102.6280  127.0300 C.3       1 5IG         0.1655
     18 C15        21.8700  102.9890  128.4960 C.2       1 5IG         0.2559
     19 N5         22.6160  103.9150  129.2160 N.am      1 5IG        -0.2193
     20 C16        22.1760  104.1690  130.6340 C.3       1 5IG         0.0563
     21 C17        21.2070  105.3680  130.8100 C.3       1 5IG        -0.0039
     22 C18        21.2520  105.9580  132.2310 C.3       1 5IG         0.0496
     23 O1         20.1000  106.7400  132.4910 O.3       1 5IG        -0.3829
     24 C19        20.0440  107.3260  133.7790 C.3       1 5IG         0.0364
     25 C21        22.9770  101.2140  127.0900 C.3       1 5IG        -0.0252
     26 C20        21.1970  102.6480  126.0420 C.3       1 5IG        -0.0252
     27 O4         20.8950  102.4090  128.9520 O.2       1 5IG        -0.3352
     28 C5         23.8550  109.2430  129.5760 C.3       1 5IG        -0.0521
     29 H1         27.1295  104.4512  129.9564 H         1 5IG         0.1813
     30 H2         28.3109  104.6697  131.2752 H         1 5IG         0.1813
     31 H3         29.1555  108.7308  133.0785 H         1 5IG         0.1826
     32 H4         28.3083  110.1824  132.4803 H         1 5IG         0.1826
     33 H5         25.1649  108.6210  127.9940 H         1 5IG         0.0472
     34 H6         25.6492  110.1426  128.8166 H         1 5IG         0.0472
     35 H7         26.8585  106.3408  127.0224 H         1 5IG         0.0448
     36 H8         25.4372  104.8036  125.6454 H         1 5IG         0.0496
     37 H9         24.2935  105.6360  130.3966 H         1 5IG         0.0443
     38 H10        23.0727  104.3619  131.2412 H         1 5IG         0.0587
     39 H11        21.6710  103.2641  131.0029 H         1 5IG         0.0587
     40 H12        20.1821  105.0269  130.6019 H         1 5IG         0.0312
     41 H13        21.4846  106.1543  130.0926 H         1 5IG         0.0312
     42 H14        22.1464  106.5907  132.3300 H         1 5IG         0.0560
     43 H15        21.3015  105.1363  132.9606 H         1 5IG         0.0560
     44 H16        19.1158  107.9081  133.8769 H         1 5IG         0.0523
     45 H17        20.9097  107.9903  133.9176 H         1 5IG         0.0523
     46 H18        20.0629  106.5348  134.5430 H         1 5IG         0.0523
     47 H19        22.2514  100.5198  127.5390 H         1 5IG         0.0246
     48 H20        23.8910  101.2351  127.7016 H         1 5IG         0.0246
     49 H21        23.2245  100.8780  126.0722 H         1 5IG         0.0246
     50 H22        20.3920  101.9967  126.4132 H         1 5IG         0.0246
     51 H23        21.5393  102.2854  125.0615 H         1 5IG         0.0246
     52 H24        20.8195  103.6763  125.9413 H         1 5IG         0.0246
     53 H25        23.2043  109.8161  128.8991 H         1 5IG         0.0257
     54 H26        23.9200  109.7584  130.5456 H         1 5IG         0.0257
     55 H27        23.4357  108.2368  129.7230 H         1 5IG         0.0257
@<TRIPOS>BOND
     1    1    2 ar 
     2    6    1 ar 
     3    1    7 1  
     4    2    3 ar 
     5    4    3 ar 
     6    3    8 1  
     7    5    4 ar 
     8    6    5 ar 
     9    5    9 1  
    10   15    6 1  
    11    9   28 1  
    12   10   11 ar 
    13   10   15 ar 
    14   11   12 ar 
    15   12   13 ar 
    16   12   16 1  
    17   13   14 ar 
    18   13   19 1  
    19   14   15 ar 
    20   16   17 1  
    21   17   18 1  
    22   17   25 1  
    23   17   26 1  
    24   18   19 am 
    25   18   27 2  
    26   19   20 1  
    27   20   21 1  
    28   21   22 1  
    29   22   23 1  
    30   23   24 1  
    31    7   29 1  
    32    7   30 1  
    33    8   31 1  
    34    8   32 1  
    35    9   33 1  
    36    9   34 1  
    37   10   35 1  
    38   11   36 1  
    39   14   37 1  
    40   20   38 1  
    41   20   39 1  
    42   21   40 1  
    43   21   41 1  
    44   22   42 1  
    45   22   43 1  
    46   24   44 1  
    47   24   45 1  
    48   24   46 1  
    49   25   47 1  
    50   25   48 1  
    51   25   49 1  
    52   26   50 1  
    53   26   51 1  
    54   26   52 1  
    55   28   53 1  
    56   28   54 1  
    57   28   55 1  
@<TRIPOS>SUBSTRUCTURE
     1 5IG         1

