### 
### Created by X-TOOL on Mon Sep 10 21:12:55 2018
### 

@<TRIPOS>MOLECULE
2g24_ligand
   45    47     1     0     0
SMALL
GAST_HUCK


@<TRIPOS>ATOM
      1 C1         27.6260  106.0630  130.2130 C.ar      1 7IG         0.1106
      2 N1         28.1670  106.6390  131.3250 N.ar      1 7IG        -0.2516
      3 C2         27.8690  107.9350  131.5210 C.ar      1 7IG         0.1614
      4 N2         27.1000  108.6550  130.7040 N.ar      1 7IG        -0.2743
      5 C3         26.5520  108.1000  129.5930 C.ar      1 7IG         0.0233
      6 C4         26.7840  106.7440  129.2820 C.ar      1 7IG         0.0318
      7 N3         27.9410  104.7510  130.0340 N.pl3     1 7IG        -0.3184
      8 N4         28.3560  108.5670  132.5890 N.pl3     1 7IG        -0.3081
      9 C5         25.7100  109.0690  128.8000 C.3       1 7IG        -0.0070
     10 C6         24.2370  109.0790  129.2140 C.3       1 7IG        -0.0521
     11 C7         24.2590  104.4610  127.6560 C.ar      1 7IG        -0.0461
     12 C8         24.9920  105.2280  128.5600 C.ar      1 7IG        -0.0699
     13 C9         26.1200  105.9740  128.1740 C.ar      1 7IG        -0.0354
     14 C10        26.5060  105.9330  126.8080 C.ar      1 7IG        -0.0699
     15 C11        25.7580  105.1480  125.8700 C.ar      1 7IG        -0.0461
     16 C12        24.6210  104.3970  126.2830 C.ar      1 7IG         0.0379
     17 N5         23.9150  103.6310  125.3640 N.pl3     1 7IG        -0.3127
     18 C13        24.5380   99.7310  127.2010 C.ar      1 7IG         0.1242
     19 C14        24.2810  101.0340  126.7400 C.ar      1 7IG        -0.0292
     20 C15        23.0160  101.3710  126.1560 C.ar      1 7IG        -0.0256
     21 C16        22.0350  100.3550  126.0600 C.ar      1 7IG        -0.0292
     22 C17        22.3190   99.0520  126.5320 C.ar      1 7IG         0.1242
     23 C18        23.5680   98.7100  127.1090 C.ar      1 7IG        -0.0019
     24 F1         25.7480   99.4700  127.7420 F         1 7IG        -0.1863
     25 C19        22.7180  102.7840  125.6460 C.3       1 7IG         0.0556
     26 F2         21.3760   98.1120  126.4270 F         1 7IG        -0.1863
     27 H1         27.5737  104.2398  129.2187 H         1 7IG         0.1812
     28 H2         28.5467  104.2694  130.7138 H         1 7IG         0.1812
     29 H3         28.9567  108.0625  133.2565 H         1 7IG         0.1825
     30 H4         28.1316  109.5598  132.7467 H         1 7IG         0.1825
     31 H5         25.7708  108.7938  127.7367 H         1 7IG         0.0471
     32 H6         26.1180  110.0808  128.9408 H         1 7IG         0.0471
     33 H7         23.6875  109.8049  128.5966 H         1 7IG         0.0257
     34 H8         24.1558  109.3632  130.2735 H         1 7IG         0.0257
     35 H9         23.8087  108.0762  129.0695 H         1 7IG         0.0257
     36 H10        23.3978  103.9036  128.0062 H         1 7IG         0.0512
     37 H11        24.6813  105.2503  129.5983 H         1 7IG         0.0561
     38 H12        27.3691  106.4971  126.4734 H         1 7IG         0.0561
     39 H13        26.0629  105.1259  124.8300 H         1 7IG         0.0512
     40 H14        24.2509  103.6491  124.3905 H         1 7IG         0.1780
     41 H15        25.0493  101.7937  126.8273 H         1 7IG         0.0509
     42 H16        21.0668  100.5753  125.6251 H         1 7IG         0.0509
     43 H17        23.7696   97.7061  127.4647 H         1 7IG         0.0532
     44 H18        22.1399  102.6932  124.7146 H         1 7IG         0.0674
     45 H19        22.1108  103.2976  126.4059 H         1 7IG         0.0674
@<TRIPOS>BOND
     1    1    2 ar 
     2    6    1 ar 
     3    1    7 1  
     4    2    3 ar 
     5    4    3 ar 
     6    3    8 1  
     7    5    4 ar 
     8    6    5 ar 
     9    5    9 1  
    10   13    6 1  
    11    9   10 1  
    12   11   12 ar 
    13   16   11 ar 
    14   12   13 ar 
    15   14   13 ar 
    16   15   14 ar 
    17   16   15 ar 
    18   17   16 1  
    19   25   17 1  
    20   19   18 ar 
    21   18   23 ar 
    22   18   24 1  
    23   20   19 ar 
    24   20   21 ar 
    25   20   25 1  
    26   21   22 ar 
    27   22   23 ar 
    28   22   26 1  
    29    7   27 1  
    30    7   28 1  
    31    8   29 1  
    32    8   30 1  
    33    9   31 1  
    34    9   32 1  
    35   10   33 1  
    36   10   34 1  
    37   10   35 1  
    38   11   36 1  
    39   12   37 1  
    40   14   38 1  
    41   15   39 1  
    42   17   40 1  
    43   19   41 1  
    44   21   42 1  
    45   23   43 1  
    46   25   44 1  
    47   25   45 1  
@<TRIPOS>SUBSTRUCTURE
     1 7IG         1

