### 
### Created by X-TOOL on Mon Sep 10 21:12:54 2018
### 

@<TRIPOS>MOLECULE
2g2r_ligand
   47    48     1     0     0
SMALL
GAST_HUCK


@<TRIPOS>ATOM
      1 O22       -58.3540   27.4370   12.0970 O.co2     1 TNS        -0.5690
      2 C20       -57.3570   28.0670   12.5380 C.2       1 TNS         0.0348
      3 O21       -57.0900   28.0940   13.7760 O.co2     1 TNS        -0.5690
      4 C19       -56.4740   28.8100   11.5230 C.3       1 TNS         0.0003
      5 C18       -54.9590   28.5490   11.6850 C.3       1 TNS        -0.0391
      6 C17       -54.6310   27.0530   11.8260 C.3       1 TNS        -0.0259
      7 C16       -53.1440   26.6860   11.8040 C.3       1 TNS         0.0520
      8 N15       -53.0100   25.4110   12.5270 N.pl3     1 TNS        -0.2550
      9 C23       -53.5000   24.1550   11.9690 C.3       1 TNS         0.0411
     10 C14       -52.3680   25.3850   13.7720 C.ar      1 TNS         0.1430
     11 C13       -51.7710   24.2040   14.1870 C.ar      1 TNS         0.0443
     12 C12       -51.1160   24.1630   15.4070 C.ar      1 TNS         0.0266
     13 C9        -52.2940   26.5270   14.5770 C.ar      1 TNS         0.0443
     14 C10       -51.6350   26.4880   15.7940 C.ar      1 TNS         0.0266
     15 C11       -51.0500   25.2980   16.2060 C.ar      1 TNS         0.1048
     16 C8        -50.3390   25.1870   17.5040 C.2       1 TNS         0.0981
     17 C7        -50.2280   26.2220   18.3250 C.2       1 TNS         0.0952
     18 C3        -49.5320   26.1420   19.6220 C.ar      1 TNS         0.1021
     19 C2        -49.4840   27.3020   20.3890 C.ar      1 TNS         0.0166
     20 C4        -48.9360   24.9650   20.0760 C.ar      1 TNS         0.0166
     21 C5        -48.2890   24.9650   21.3050 C.ar      1 TNS         0.0218
     22 C6        -48.2500   26.1320   22.0700 C.ar      1 TNS         0.1317
     23 C1        -48.8440   27.3020   21.6150 C.ar      1 TNS         0.0218
     24 N24       -47.6060   26.1430   23.3190 N.2       1 TNS        -0.1806
     25 O26       -47.0750   25.1270   23.7400 O.2       1 TNS        -0.4705
     26 O25       -47.5710   27.1600   24.0100 O.2       1 TNS        -0.4705
     27 H1        -56.6515   29.8895   11.6375 H         1 TNS         0.0430
     28 H2        -56.7715   28.4946   10.5120 H         1 TNS         0.0430
     29 H3        -54.6047   29.0741   12.5843 H         1 TNS         0.0284
     30 H4        -54.4366   28.9428   10.8007 H         1 TNS         0.0284
     31 H5        -55.1209   26.5215   10.9969 H         1 TNS         0.0291
     32 H6        -55.0491   26.7056   12.7823 H         1 TNS         0.0291
     33 H7        -52.5534   27.4683   12.3032 H         1 TNS         0.0587
     34 H8        -52.7976   26.5711   10.7663 H         1 TNS         0.0587
     35 H9        -53.2959   23.3360   12.6744 H         1 TNS         0.0551
     36 H10       -52.9896   23.9534   11.0157 H         1 TNS         0.0551
     37 H11       -54.5839   24.2286   11.7963 H         1 TNS         0.0551
     38 H12       -51.8166   23.3198   13.5616 H         1 TNS         0.0860
     39 H13       -50.6528   23.2412   15.7399 H         1 TNS         0.1031
     40 H14       -52.7563   27.4496   14.2452 H         1 TNS         0.0860
     41 H15       -51.5766   27.3737   16.4162 H         1 TNS         0.1031
     42 H16       -49.8981   24.2328   17.7888 H         1 TNS         0.1565
     43 H17       -50.6700   27.1721   18.0285 H         1 TNS         0.1739
     44 H18       -49.9504   28.2099   20.0239 H         1 TNS         0.1005
     45 H19       -48.9774   24.0623   19.4773 H         1 TNS         0.1005
     46 H20       -47.8153   24.0606   21.6694 H         1 TNS         0.0825
     47 H21       -48.8064   28.2048   22.2139 H         1 TNS         0.0825
@<TRIPOS>BOND
     1    1    2 ar 
     2    2    3 ar 
     3    2    4 1  
     4    4    5 1  
     5    5    6 1  
     6    6    7 1  
     7    7    8 1  
     8    8    9 1  
     9    8   10 1  
    10   10   11 ar 
    11   10   13 ar 
    12   11   12 ar 
    13   12   15 ar 
    14   13   14 ar 
    15   14   15 ar 
    16   15   16 1  
    17   16   17 2  
    18   17   18 1  
    19   18   19 ar 
    20   18   20 ar 
    21   19   23 ar 
    22   20   21 ar 
    23   21   22 ar 
    24   22   23 ar 
    25   22   24 1  
    26   24   25 2  
    27   24   26 2  
    28    4   27 1  
    29    4   28 1  
    30    5   29 1  
    31    5   30 1  
    32    6   31 1  
    33    6   32 1  
    34    7   33 1  
    35    7   34 1  
    36    9   35 1  
    37    9   36 1  
    38    9   37 1  
    39   11   38 1  
    40   12   39 1  
    41   13   40 1  
    42   14   41 1  
    43   16   42 1  
    44   17   43 1  
    45   19   44 1  
    46   20   45 1  
    47   21   46 1  
    48   23   47 1  
@<TRIPOS>SUBSTRUCTURE
     1 TNS         1

