### 
### Created by X-TOOL on Mon Sep 10 21:12:54 2018
### 

@<TRIPOS>MOLECULE
2g5u_ligand
   24    25     1     0     0
SMALL
GAST_HUCK


@<TRIPOS>ATOM
      1 O2         21.8070   42.9850   30.4750 O.3       1 PCQ        -0.3311
      2 C9         21.7490   42.9670   29.1080 C.ar      1 PCQ         0.1165
      3 C8         20.9760   43.9000   28.4170 C.ar      1 PCQ         0.0686
      4 CL2        20.1810   44.9560   29.1470 Cl        1 PCQ        -0.0787
      5 C10        22.4640   42.0110   28.3890 C.ar      1 PCQ         0.0686
      6 CL4        23.3150   40.9820   29.0900 Cl        1 PCQ        -0.0787
      7 C11        22.4050   41.9910   26.9910 C.ar      1 PCQ        -0.0499
      8 C12        21.6330   42.9180   26.2800 C.ar      1 PCQ        -0.0334
      9 C7         20.9220   43.8700   27.0190 C.ar      1 PCQ        -0.0499
     10 C3         21.5770   42.8940   24.8760 C.ar      1 PCQ        -0.0334
     11 C2         21.5670   41.6820   24.1730 C.ar      1 PCQ        -0.0499
     12 C4         21.5230   44.0810   24.1390 C.ar      1 PCQ        -0.0499
     13 C5         21.4670   44.0670   22.7400 C.ar      1 PCQ         0.0686
     14 CL5        21.4180   45.3710   21.9790 Cl        1 PCQ        -0.0787
     15 C6         21.4600   42.8490   22.0580 C.ar      1 PCQ         0.1165
     16 O1         21.4000   42.8190   20.6910 O.3       1 PCQ        -0.3311
     17 C1         21.5090   41.6530   22.7730 C.ar      1 PCQ         0.0686
     18 CL1        21.4980   40.3310   22.0370 Cl        1 PCQ        -0.0787
     19 H1         22.3750   42.2856   30.7760 H         1 PCQ         0.2493
     20 H2         22.9689   41.2420   26.4469 H         1 PCQ         0.0594
     21 H3         20.3155   44.6010   26.4966 H         1 PCQ         0.0594
     22 H4         21.6049   40.7485   24.7227 H         1 PCQ         0.0594
     23 H5         21.5245   45.0310   24.6611 H         1 PCQ         0.0594
     24 H6         22.1523   43.2747   20.3320 H         1 PCQ         0.2493
@<TRIPOS>BOND
     1    1    2 1  
     2    2    3 ar 
     3    2    5 ar 
     4    3    4 1  
     5    3    9 ar 
     6    5    6 1  
     7    5    7 ar 
     8    7    8 ar 
     9    8    9 ar 
    10    8   10 1  
    11   10   11 ar 
    12   10   12 ar 
    13   11   17 ar 
    14   12   13 ar 
    15   13   14 1  
    16   13   15 ar 
    17   15   16 1  
    18   15   17 ar 
    19   17   18 1  
    20    1   19 1  
    21    7   20 1  
    22    9   21 1  
    23   11   22 1  
    24   12   23 1  
    25   16   24 1  
@<TRIPOS>SUBSTRUCTURE
     1 PCQ         1

