### 
### Created by X-TOOL on Mon Sep 10 21:12:54 2018
### 

@<TRIPOS>MOLECULE
2g6p_ligand
   40    42     1     0     0
SMALL
GAST_HUCK


@<TRIPOS>ATOM
      1 N1         22.0290   19.5340   11.4170 N.ar      1 HM2        -0.2829
      2 N2         21.4760   19.2310   15.0800 N.ar      1 HM2        -0.2537
      3 N3         20.8520   20.8110   13.4480 N.ar      1 HM2        -0.2765
      4 N4         21.3220   19.4520   17.2330 N.pl3     1 HM2        -0.3001
      5 C1         22.7090   18.8170   10.3050 C.ar      1 HM2         0.0147
      6 C2         23.2950   17.6110   10.4890 C.ar      1 HM2        -0.0308
      7 C3         23.2620   16.9900   11.8510 C.ar      1 HM2        -0.0381
      8 C4         22.6620   17.6510   12.9130 C.ar      1 HM2        -0.0194
      9 C5         22.0560   18.8780   12.7340 C.ar      1 HM2         0.0864
     10 C6         21.4230   19.6660   13.8260 C.ar      1 HM2         0.1192
     11 C7         20.9150   20.0850   16.0530 C.ar      1 HM2         0.1344
     12 C8         20.2840   21.6180   14.3460 C.ar      1 HM2         0.0418
     13 C9         20.3090   21.2710   15.7570 C.ar      1 HM2         0.1077
     14 C10        21.4910   18.0300   17.6200 C.3       1 HM2         0.0386
     15 C11        20.2570   17.2690   18.0420 C.3       1 HM2         0.0013
     16 C12        19.2750   17.2230   16.9230 C.ar      1 HM2        -0.0411
     17 C13        19.4280   16.2820   15.8820 C.ar      1 HM2        -0.0603
     18 C14        18.5010   16.2590   14.8480 C.ar      1 HM2        -0.0686
     19 C15        17.4270   17.1130   14.7740 C.ar      1 HM2        -0.0687
     20 C16        17.2890   18.0170   15.7830 C.ar      1 HM2        -0.0686
     21 C17        18.1850   18.1090   16.8760 C.ar      1 HM2        -0.0603
     22 C18        19.6420   22.8800   13.8860 C.3       1 HM2        -0.0126
     23 CL1        19.6220   22.3620   16.8860 Cl        1 HM2        -0.0713
     24 H1         21.5521   20.1108   17.9906 H         1 HM2         0.1844
     25 H2         22.7358   19.2724    9.3216 H         1 HM2         0.0839
     26 H3         23.7804   17.1029    9.6636 H         1 HM2         0.0734
     27 H4         23.7106   16.0159   12.0086 H         1 HM2         0.0745
     28 H5         22.6693   17.1973   13.8974 H         1 HM2         0.0751
     29 H6         22.1998   17.9997   18.4606 H         1 HM2         0.0545
     30 H7         21.9233   17.5031   16.7566 H         1 HM2         0.0545
     31 H8         19.7989   17.7702   18.9074 H         1 HM2         0.0446
     32 H9         20.5398   16.2430   18.3199 H         1 HM2         0.0446
     33 H10        20.2589   15.5858   15.8895 H         1 HM2         0.0557
     34 H11        18.6316   15.5288   14.0576 H         1 HM2         0.0599
     35 H12        16.7227   17.0691   13.9511 H         1 HM2         0.0559
     36 H13        16.4496   18.7020   15.7478 H         1 HM2         0.0599
     37 H14        18.0337   18.8450   17.6574 H         1 HM2         0.0557
     38 H15        19.2282   23.4176   14.7519 H         1 HM2         0.0440
     39 H16        18.8322   22.6433   13.1802 H         1 HM2         0.0440
     40 H17        20.3912   23.5115   13.3861 H         1 HM2         0.0440
@<TRIPOS>BOND
     1    1    5 ar 
     2    9    1 ar 
     3   10    2 ar 
     4    2   11 ar 
     5   10    3 ar 
     6    3   12 ar 
     7   11    4 1  
     8    4   14 1  
     9    5    6 ar 
    10    7    6 ar 
    11    8    7 ar 
    12    9    8 ar 
    13    9   10 1  
    14   11   13 ar 
    15   12   13 ar 
    16   12   22 1  
    17   13   23 1  
    18   14   15 1  
    19   15   16 1  
    20   16   17 ar 
    21   16   21 ar 
    22   17   18 ar 
    23   18   19 ar 
    24   19   20 ar 
    25   20   21 ar 
    26    4   24 1  
    27    5   25 1  
    28    6   26 1  
    29    7   27 1  
    30    8   28 1  
    31   14   29 1  
    32   14   30 1  
    33   15   31 1  
    34   15   32 1  
    35   17   33 1  
    36   18   34 1  
    37   19   35 1  
    38   20   36 1  
    39   21   37 1  
    40   22   38 1  
    41   22   39 1  
    42   22   40 1  
@<TRIPOS>SUBSTRUCTURE
     1 HM2         1

