### 
### Created by X-TOOL on Fri Sep 26 17:34:39 2014
### 

@<TRIPOS>MOLECULE
2g70_ligand
   28    29     1     0     0
SMALL
GAST_HUCK


@<TRIPOS>ATOM
      1 C1         28.1360   45.6050   18.3040 C.3       1 HNT         0.0268
      2 C2         27.7780   44.8180   19.5660 C.3       1 HNT         0.0116
      3 O2         26.3510   41.2810   13.7810 O.2       1 HNT         0.1750
      4 C4         27.6300   42.6390   18.4790 C.3       1 HNT        -0.0003
      5 C5         27.0770   42.7130   16.0320 C.ar      1 HNT        -0.0189
      6 C6         26.9060   43.3660   14.8170 C.ar      1 HNT         0.1861
      7 C7         27.1300   44.7380   14.7430 C.ar      1 HNT        -0.0321
      8 C8         27.5270   45.4440   15.8750 C.ar      1 HNT        -0.0576
      9 O22        27.6070   45.0230   21.9680 O.3       1 HNT        -0.3893
     10 C22        28.2660   45.5540   20.8160 C.3       1 HNT         0.0887
     11 C8A        27.7000   44.7860   17.0870 C.ar      1 HNT        -0.0245
     12 N1         26.5910   42.6800   13.7180 N.2       1 HNT         0.3079
     13 O3         26.4880   43.3420   12.4650 O.2       1 HNT         0.1750
     14 C4A        27.4730   43.4150   17.1690 C.ar      1 HNT         0.0118
     15 N41        28.3270   43.4550   19.4880 N.4       1 HNT         0.2433
     16 H1         29.2221   45.7757   18.2677 H         1 HNT         0.0480
     17 H2         27.6127   46.5725   18.3080 H         1 HNT         0.0480
     18 H3         26.6823   44.7406   19.6243 H         1 HNT         0.0897
     19 H4         28.2117   41.7249   18.2896 H         1 HNT         0.0965
     20 H5         26.6342   42.3677   18.8594 H         1 HNT         0.0965
     21 H6         26.9003   41.6454   16.0960 H         1 HNT         0.0612
     22 H7         26.9949   45.2578   13.8014 H         1 HNT         0.0619
     23 H8         27.7020   46.5119   15.8110 H         1 HNT         0.0555
     24 H9         27.9102   45.4801   22.7437 H         1 HNT         0.2097
     25 H10        28.0366   46.6258   20.7237 H         1 HNT         0.0615
     26 H11        29.3527   45.4192   20.9203 H         1 HNT         0.0615
     27 H12        28.2300   43.0126   20.3885 H         1 HNT         0.2032
     28 H13        29.3035   43.5104   19.2443 H         1 HNT         0.2032
@<TRIPOS>BOND
     1    2    1 1  
     2    1   11 1  
     3    2   10 1  
     4   15    2 1  
     5   12    3 2  
     6   14    4 1  
     7    4   15 1  
     8    6    5 ar 
     9    5   14 ar 
    10    6    7 ar 
    11    6   12 1  
    12    7    8 ar 
    13    8   11 ar 
    14   10    9 1  
    15   11   14 ar 
    16   12   13 2  
    17    1   16 1  
    18    1   17 1  
    19    2   18 1  
    20    4   19 1  
    21    4   20 1  
    22    5   21 1  
    23    7   22 1  
    24    8   23 1  
    25    9   24 1  
    26   10   25 1  
    27   10   26 1  
    28   15   27 1  
    29   15   28 1  
@<TRIPOS>SUBSTRUCTURE
     1 HNT         1

