### 
### Created by X-TOOL on Fri Sep 26 17:34:38 2014
### 

@<TRIPOS>MOLECULE
2g71_ligand
   39    40     1     0     0
SMALL
GAST_HUCK


@<TRIPOS>ATOM
      1 C7         28.0050   43.2620   16.7460 C.ar      1 FTS        -0.0353
      2 C8         28.5970   43.7970   17.8890 C.ar      1 FTS         0.0053
      3 C1         28.8530   42.9050   19.1070 C.3       1 FTS        -0.0016
      4 N1         29.7420   43.5700   20.0600 N.4       1 FTS         0.2434
      5 C2         29.2360   44.9090   20.4020 C.3       1 FTS         0.0159
      6 C10        29.8960   45.4340   21.6800 C.3       1 FTS         0.1343
      7 F4         29.3460   46.6000   22.0480 F         1 FTS        -0.2430
      8 C3         29.5340   45.7790   19.1780 C.3       1 FTS         0.0242
      9 C9         28.9140   45.1530   17.9280 C.ar      1 FTS        -0.0305
     10 C4         28.6350   45.9520   16.8230 C.ar      1 FTS        -0.0646
     11 C5         28.0440   45.4240   15.6800 C.ar      1 FTS        -0.0489
     12 C6         27.7300   44.0670   15.6450 C.ar      1 FTS         0.0947
     13 S1         26.9860   43.3480   14.2190 S.o2      1 FTS         0.0637
     14 O1         25.6500   42.9830   14.6130 O.2       1 FTS        -0.1513
     15 O2         27.8700   42.3030   13.7680 O.2       1 FTS        -0.1513
     16 N2         26.8340   44.4240   13.0250 N.am      1 FTS        -0.2480
     17 C11        27.9740   44.6230   12.1160 C.3       1 FTS         0.0346
     18 C12        27.7140   44.2790   10.6630 C.3       1 FTS         0.0596
     19 C13        27.0420   45.2940    9.7870 C.3       1 FTS         0.3916
     20 F1         27.0200   44.9920    8.4790 F         1 FTS        -0.1707
     21 F2         27.6450   46.4890    9.8000 F         1 FTS        -0.1707
     22 F3         25.7740   45.5770   10.1170 F         1 FTS        -0.1707
     23 H1         27.7562   42.2074   16.7146 H         1 FTS         0.0558
     24 H2         29.3186   41.9655   18.7746 H         1 FTS         0.0964
     25 H3         27.8950   42.6849   19.6006 H         1 FTS         0.0964
     26 H4         30.6588   43.6581   19.6503 H         1 FTS         0.2032
     27 H5         29.8010   43.0150   20.8994 H         1 FTS         0.2032
     28 H6         28.1491   44.8669   20.5656 H         1 FTS         0.0898
     29 H7         30.9706   45.5823   21.4978 H         1 FTS         0.0674
     30 H8         29.7589   44.6987   22.4865 H         1 FTS         0.0674
     31 H9         30.6229   45.8583   19.0438 H         1 FTS         0.0467
     32 H10        29.1094   46.7820   19.3319 H         1 FTS         0.0467
     33 H11        28.8833   47.0067   16.8538 H         1 FTS         0.0538
     34 H12        27.8306   46.0595   14.8281 H         1 FTS         0.0561
     35 H13        25.9869   44.9420   12.9062 H         1 FTS         0.1671
     36 H14        28.8044   43.9945   12.4702 H         1 FTS         0.0478
     37 H15        28.2679   45.6818   12.1668 H         1 FTS         0.0478
     38 H16        27.0851   43.3766   10.6524 H         1 FTS         0.0367
     39 H17        28.6883   44.0523   10.2055 H         1 FTS         0.0367
@<TRIPOS>BOND
     1    1    2 ar 
     2    1   12 ar 
     3    2    3 1  
     4    2    9 ar 
     5    3    4 1  
     6    4    5 1  
     7    5    6 1  
     8    5    8 1  
     9    6    7 1  
    10    8    9 1  
    11    9   10 ar 
    12   10   11 ar 
    13   11   12 ar 
    14   12   13 1  
    15   13   14 2  
    16   13   15 2  
    17   13   16 am 
    18   16   17 1  
    19   17   18 1  
    20   18   19 1  
    21   19   20 1  
    22   19   21 1  
    23   19   22 1  
    24    1   23 1  
    25    3   24 1  
    26    3   25 1  
    27    4   26 1  
    28    4   27 1  
    29    5   28 1  
    30    6   29 1  
    31    6   30 1  
    32    8   31 1  
    33    8   32 1  
    34   10   33 1  
    35   11   34 1  
    36   16   35 1  
    37   17   36 1  
    38   17   37 1  
    39   18   38 1  
    40   18   39 1  
@<TRIPOS>SUBSTRUCTURE
     1 FTS         1

