### 
### Created by X-TOOL on Fri Sep 26 17:34:38 2014
### 

@<TRIPOS>MOLECULE
2g72_ligand
   41    43     1     0     0
SMALL
GAST_HUCK


@<TRIPOS>ATOM
      1 C12        25.4190   45.1080   12.8050 C.3       1 F21         0.0386
      2 C13        24.7240   45.4900   11.4930 C.3       1 F21         0.0108
      3 S2         25.9940   46.0790   10.3160 S.3       1 F21        -0.1576
      4 C15        27.3250   44.8260   10.3970 C.3       1 F21         0.0108
      5 C14        27.6210   44.5470   11.8750 C.3       1 F21         0.0386
      6 N1         26.3920   44.0430   12.5110 N.am      1 F21        -0.2333
      7 S1         26.7330   43.1380   13.8220 S.o2      1 F21         0.0660
      8 O2         25.5190   42.4960   14.2160 O.2       1 F21        -0.1511
      9 O1         27.7170   42.0840   13.4090 O.2       1 F21        -0.1511
     10 C7         27.4210   43.9450   15.2130 C.ar      1 F21         0.0950
     11 C8         27.7660   43.1620   16.3120 C.ar      1 F21        -0.0353
     12 C9         28.3510   43.7290   17.4410 C.ar      1 F21         0.0053
     13 C1         28.5980   42.8650   18.6840 C.3       1 F21        -0.0016
     14 N2         29.4230   43.5410   19.7010 N.4       1 F21         0.2434
     15 C3         29.0200   44.9410   19.9030 C.3       1 F21         0.0159
     16 C11        29.7940   45.5770   21.0600 C.3       1 F21         0.1343
     17 F1         29.1530   45.2880   22.2540 F         1 F21        -0.2430
     18 C4         29.3000   45.7550   18.6390 C.3       1 F21         0.0242
     19 C10        28.5990   45.1000   17.4480 C.ar      1 F21        -0.0305
     20 C5         28.2490   45.8870   16.3540 C.ar      1 F21        -0.0646
     21 C6         27.6570   45.3150   15.2330 C.ar      1 F21        -0.0489
     22 H1         24.6753   44.7445   13.5294 H         1 F21         0.0486
     23 H2         25.9385   45.9838   13.2210 H         1 F21         0.0486
     24 H3         23.9916   46.2892   11.6797 H         1 F21         0.0392
     25 H4         24.2099   44.6117   11.0757 H         1 F21         0.0392
     26 H5         28.2290   45.2086    9.9007 H         1 F21         0.0392
     27 H6         26.9978   43.9006    9.9004 H         1 F21         0.0392
     28 H7         27.9415   45.4751   12.3708 H         1 F21         0.0486
     29 H8         28.4176   43.7930   11.9579 H         1 F21         0.0486
     30 H9         27.5762   42.0950   16.2879 H         1 F21         0.0558
     31 H10        29.1106   41.9426   18.3735 H         1 F21         0.0964
     32 H11        27.6265   42.6112   19.1331 H         1 F21         0.0964
     33 H12        30.3860   43.5202   19.4040 H         1 F21         0.2032
     34 H13        29.3301   43.0473   20.5749 H         1 F21         0.2032
     35 H14        27.9436   44.9719   20.1272 H         1 F21         0.0898
     36 H15        29.8347   46.6672   20.9195 H         1 F21         0.0674
     37 H16        30.8164   45.1720   21.0846 H         1 F21         0.0674
     38 H17        30.3841   45.7862   18.4551 H         1 F21         0.0467
     39 H18        28.9207   46.7791   18.7703 H         1 F21         0.0467
     40 H19        28.4394   46.9539   16.3762 H         1 F21         0.0538
     41 H20        27.3826   45.9307   14.3841 H         1 F21         0.0561
@<TRIPOS>BOND
     1    1    2 1  
     2    1    6 1  
     3    2    3 1  
     4    3    4 1  
     5    4    5 1  
     6    5    6 1  
     7    6    7 am 
     8    7    8 2  
     9    7    9 2  
    10    7   10 1  
    11   10   11 ar 
    12   10   21 ar 
    13   11   12 ar 
    14   12   13 1  
    15   12   19 ar 
    16   13   14 1  
    17   14   15 1  
    18   15   16 1  
    19   15   18 1  
    20   16   17 1  
    21   18   19 1  
    22   19   20 ar 
    23   20   21 ar 
    24    1   22 1  
    25    1   23 1  
    26    2   24 1  
    27    2   25 1  
    28    4   26 1  
    29    4   27 1  
    30    5   28 1  
    31    5   29 1  
    32   11   30 1  
    33   13   31 1  
    34   13   32 1  
    35   14   33 1  
    36   14   34 1  
    37   15   35 1  
    38   16   36 1  
    39   16   37 1  
    40   18   38 1  
    41   18   39 1  
    42   20   40 1  
    43   21   41 1  
@<TRIPOS>SUBSTRUCTURE
     1 F21         1

