### 
### Created by X-TOOL on Mon Sep 10 21:12:55 2018
### 

@<TRIPOS>MOLECULE
2g78_ligand
   51    51     1     0     0
SMALL
GAST_HUCK


@<TRIPOS>ATOM
      1 C1         21.6270   29.3960   16.5110 C.3       1 REA        -0.0919
      2 C2         20.5360   30.0740   15.6790 C.3       1 REA        -0.0999
      3 C3         19.8510   29.1120   14.7310 C.3       1 REA        -0.0414
      4 C4         19.1600   27.9620   15.4160 C.3       1 REA         0.0276
      5 C5         20.0480   27.3390   16.4260 C.2       1 REA         0.0095
      6 C6         21.1140   28.0640   16.9900 C.2       1 REA        -0.0713
      7 C7         21.9100   27.5430   18.0670 C.3       1 REA        -0.0159
      8 C8         21.2650   26.8470   19.1450 C.3       1 REA         0.0037
      9 C9         22.1110   26.1800   20.0880 C.2       1 REA        -0.0367
     10 C10        21.4310   25.2640   20.9460 C.2       1 REA        -0.0606
     11 C11        22.1430   24.7110   22.0350 C.2       1 REA        -0.0813
     12 C12        21.3270   23.7670   22.7880 C.2       1 REA        -0.0746
     13 C13        21.9120   23.0970   23.9240 C.2       1 REA        -0.0675
     14 C14        21.0020   22.2940   24.6310 C.2       1 REA        -0.0609
     15 C15        21.4340   21.5600   25.8120 C.2       1 REA         0.0223
     16 C16        22.0600   30.2480   17.7000 C.3       1 REA        -0.1162
     17 C17        22.8920   29.1420   15.6960 C.3       1 REA        -0.1162
     18 C18        19.7050   25.9520   16.8200 C.3       1 REA         0.0178
     19 C19        23.5870   26.3550   20.2110 C.3       1 REA        -0.0147
     20 C20        23.3450   23.2190   24.3400 C.3       1 REA        -0.0336
     21 O1         22.4630   20.8280   25.7930 O.co2     1 REA        -0.5766
     22 O2         20.7930   21.7510   26.8620 O.co2     1 REA        -0.5766
     23 H1         20.9922   30.8843   15.0913 H         1 REA         0.0074
     24 H2         19.7823   30.4949   16.3607 H         1 REA         0.0074
     25 H3         20.6089   28.7020   14.0473 H         1 REA         0.0303
     26 H4         19.1005   29.6715   14.1534 H         1 REA         0.0303
     27 H5         18.8844   27.2077   14.6643 H         1 REA         0.0681
     28 H6         18.2518   28.3323   15.9141 H         1 REA         0.0681
     29 H7         22.4466   28.3946   18.5105 H         1 REA         0.0428
     30 H8         22.6342   26.8447   17.6221 H         1 REA         0.0428
     31 H9         20.6018   26.0900   18.7012 H         1 REA         0.0547
     32 H10        20.6633   27.5812   19.7008 H         1 REA         0.0547
     33 H11        20.3904   24.9980   20.7663 H         1 REA         0.0355
     34 H12        23.1743   24.9598   22.2809 H         1 REA         0.0648
     35 H13        20.2955   23.5711   22.4988 H         1 REA         0.0390
     36 H14        19.9689   22.2200   24.2945 H         1 REA         0.0257
     37 H15        22.8424   29.7194   18.2642 H         1 REA         0.0034
     38 H16        21.1952   30.4300   18.3550 H         1 REA         0.0034
     39 H17        22.4547   31.2089   17.3382 H         1 REA         0.0034
     40 H18        22.6450   28.5279   14.8175 H         1 REA         0.0034
     41 H19        23.6288   28.6126   16.3180 H         1 REA         0.0034
     42 H20        23.3140   30.1024   15.3650 H         1 REA         0.0034
     43 H21        20.4268   25.5946   17.5692 H         1 REA         0.0646
     44 H22        19.7418   25.2997   15.9351 H         1 REA         0.0646
     45 H23        18.6920   25.9323   17.2483 H         1 REA         0.0646
     46 H24        23.9658   25.7149   21.0214 H         1 REA         0.0492
     47 H25        23.8139   27.4071   20.4382 H         1 REA         0.0492
     48 H26        24.0700   26.0720   19.2641 H         1 REA         0.0492
     49 H27        23.8712   23.8941   23.6490 H         1 REA         0.0405
     50 H28        23.8196   22.2270   24.3158 H         1 REA         0.0405
     51 H29        23.3972   23.6257   25.3607 H         1 REA         0.0405
@<TRIPOS>BOND
     1    1    2 1  
     2    1    6 1  
     3    1   16 1  
     4    1   17 1  
     5    2    3 1  
     6    3    4 1  
     7    4    5 1  
     8    5    6 2  
     9    5   18 1  
    10    6    7 1  
    11    7    8 1  
    12    8    9 1  
    13    9   10 2  
    14    9   19 1  
    15   10   11 1  
    16   11   12 2  
    17   12   13 1  
    18   13   14 2  
    19   13   20 1  
    20   14   15 1  
    21   15   21 ar 
    22   15   22 ar 
    23    2   23 1  
    24    2   24 1  
    25    3   25 1  
    26    3   26 1  
    27    4   27 1  
    28    4   28 1  
    29    7   29 1  
    30    7   30 1  
    31    8   31 1  
    32    8   32 1  
    33   10   33 1  
    34   11   34 1  
    35   12   35 1  
    36   14   36 1  
    37   16   37 1  
    38   16   38 1  
    39   16   39 1  
    40   17   40 1  
    41   17   41 1  
    42   17   42 1  
    43   18   43 1  
    44   18   44 1  
    45   18   45 1  
    46   19   46 1  
    47   19   47 1  
    48   19   48 1  
    49   20   49 1  
    50   20   50 1  
    51   20   51 1  
@<TRIPOS>SUBSTRUCTURE
     1 REA         1

