### 
### Created by X-TOOL on Mon Sep 10 21:12:55 2018
### 

@<TRIPOS>MOLECULE
2g79_ligand
   49    49     1     0     0
SMALL
GAST_HUCK


@<TRIPOS>ATOM
      1 C1         21.7940    6.4900  -21.2990 C.3       1 RET        -0.0838
      2 C2         21.0390    7.2510  -22.3780 C.3       1 RET        -0.0968
      3 C3         20.3520    6.2920  -23.3370 C.3       1 RET        -0.0374
      4 C4         19.2600    5.6010  -22.5430 C.3       1 RET         0.0375
      5 C5         19.8760    4.8340  -21.4040 C.2       1 RET         0.0263
      6 C6         21.0430    5.2370  -20.8310 C.2       1 RET        -0.0410
      7 C7         21.6810    4.5570  -19.6790 C.2       1 RET        -0.0562
      8 C8         21.0940    3.6690  -18.8940 C.2       1 RET        -0.0473
      9 C9         21.7880    3.0910  -17.7450 C.2       1 RET        -0.0377
     10 C10        21.0710    2.2090  -17.0310 C.2       1 RET        -0.0567
     11 C11        21.5700    1.5290  -15.8630 C.2       1 RET        -0.0678
     12 C12        20.7260    0.6830  -15.2670 C.2       1 RET        -0.0606
     13 C13        21.1190   -0.0760  -14.0590 C.2       1 RET        -0.0512
     14 C14        20.1720   -0.8200  -13.4680 C.2       1 RET        -0.0346
     15 C15        20.3660   -1.6310  -12.2650 C.2       1 RET         0.0844
     16 O1         21.4350   -1.7540  -11.6910 O.2       1 RET        -0.3920
     17 C16        22.0030    7.4310  -20.1130 C.3       1 RET        -0.1136
     18 C17        23.1720    6.1210  -21.8420 C.3       1 RET        -0.1136
     19 C18        19.0820    3.6230  -20.9990 C.3       1 RET         0.0278
     20 C19        23.2240    3.4340  -17.4100 C.3       1 RET        -0.0248
     21 C20        22.5260   -0.0350  -13.5200 C.3       1 RET        -0.0289
     22 H1         21.7476    7.8769  -22.9403 H         1 RET         0.0082
     23 H2         20.2806    7.8912  -21.9037 H         1 RET         0.0082
     24 H3         21.0724    5.5524  -23.7165 H         1 RET         0.0310
     25 H4         19.9158    6.8458  -24.1814 H         1 RET         0.0310
     26 H5         18.7131    4.9074  -23.1986 H         1 RET         0.0731
     27 H6         18.5644    6.3540  -22.1441 H         1 RET         0.0731
     28 H7         22.7178    4.8091  -19.4611 H         1 RET         0.0724
     29 H8         20.0714    3.3619  -19.1085 H         1 RET         0.0588
     30 H9         20.0530    1.9950  -17.3533 H         1 RET         0.0496
     31 H10        22.5785    1.6955  -15.4874 H         1 RET         0.0675
     32 H11        19.7269    0.5487  -15.6789 H         1 RET         0.0492
     33 H12        19.1807   -0.8206  -13.9188 H         1 RET         0.0356
     34 H13        19.5034   -2.1564  -11.8578 H         1 RET         0.1212
     35 H14        22.5484    6.9024  -19.3173 H         1 RET         0.0042
     36 H15        21.0260    7.7616  -19.7306 H         1 RET         0.0042
     37 H16        22.5851    8.3062  -20.4374 H         1 RET         0.0042
     38 H17        23.0582    5.4419  -22.6999 H         1 RET         0.0042
     39 H18        23.7550    5.6218  -21.0540 H         1 RET         0.0042
     40 H19        23.6958    7.0333  -22.1635 H         1 RET         0.0042
     41 H20        19.5888    3.1141  -20.1659 H         1 RET         0.0697
     42 H21        19.0006    2.9353  -21.8536 H         1 RET         0.0697
     43 H22        18.0758    3.9337  -20.6811 H         1 RET         0.0697
     44 H23        23.6013    4.1755  -18.1296 H         1 RET         0.0431
     45 H24        23.8403    2.5245  -17.4636 H         1 RET         0.0431
     46 H25        23.2738    3.8513  -16.3935 H         1 RET         0.0431
     47 H26        23.1393    0.6297  -14.1462 H         1 RET         0.0419
     48 H27        22.9534   -1.0485  -13.5331 H         1 RET         0.0419
     49 H28        22.5122    0.3438  -12.4874 H         1 RET         0.0419
@<TRIPOS>BOND
     1    1    2 1  
     2    1    6 1  
     3    1   17 1  
     4    1   18 1  
     5    2    3 1  
     6    3    4 1  
     7    4    5 1  
     8    5    6 2  
     9    5   19 1  
    10    6    7 1  
    11    7    8 2  
    12    8    9 1  
    13    9   10 2  
    14    9   20 1  
    15   10   11 1  
    16   11   12 2  
    17   12   13 1  
    18   13   14 2  
    19   13   21 1  
    20   14   15 1  
    21   15   16 2  
    22    2   22 1  
    23    2   23 1  
    24    3   24 1  
    25    3   25 1  
    26    4   26 1  
    27    4   27 1  
    28    7   28 1  
    29    8   29 1  
    30   10   30 1  
    31   11   31 1  
    32   12   32 1  
    33   14   33 1  
    34   15   34 1  
    35   17   35 1  
    36   17   36 1  
    37   17   37 1  
    38   18   38 1  
    39   18   39 1  
    40   18   40 1  
    41   19   41 1  
    42   19   42 1  
    43   19   43 1  
    44   20   44 1  
    45   20   45 1  
    46   20   46 1  
    47   21   47 1  
    48   21   48 1  
    49   21   49 1  
@<TRIPOS>SUBSTRUCTURE
     1 RET         1

