### 
### Created by X-TOOL on Mon Sep 10 21:12:54 2018
### 

@<TRIPOS>MOLECULE
2g8n_ligand
   41    43     1     0     0
SMALL
GAST_HUCK


@<TRIPOS>ATOM
      1 O1         29.0990   44.7580   22.6830 O.3       1 F83        -0.3893
      2 C1         29.5500   45.4790   21.5340 C.3       1 F83         0.0886
      3 C2         28.9030   44.8560   20.2970 C.3       1 F83         0.0107
      4 N1         29.4180   43.4930   20.0970 N.4       1 F83         0.2432
      5 C3         28.5950   42.7870   19.1030 C.3       1 F83        -0.0016
      6 C4         28.4720   43.6060   17.8120 C.ar      1 F83         0.0053
      7 C5         28.0420   42.9760   16.6550 C.ar      1 F83        -0.0347
      8 C6         27.8460   43.7140   15.4880 C.ar      1 F83         0.1007
      9 C7         28.0770   45.0850   15.4840 C.ar      1 F83        -0.0484
     10 C8         28.5160   45.7200   16.6450 C.ar      1 F83        -0.0646
     11 C9         28.7180   44.9830   17.8050 C.ar      1 F83        -0.0305
     12 C10        29.2450   45.6850   19.0580 C.3       1 F83         0.0239
     13 S1         27.3310   42.9130   14.0240 S.o2      1 F83         0.0850
     14 O2         25.9100   42.7710   14.0030 O.2       1 F83        -0.1456
     15 O3         27.9720   41.5570   13.9310 O.2       1 F83        -0.1456
     16 N2         27.8390   43.8210   12.7710 N.am      1 F83        -0.1875
     17 C11        26.9100   44.6130   11.9490 C.ar      1 F83         0.0630
     18 C12        25.8530   45.3110   12.5270 C.ar      1 F83        -0.0448
     19 C13        25.0270   46.0980   11.7300 C.ar      1 F83        -0.0639
     20 C14        25.2620   46.1850   10.3560 C.ar      1 F83         0.0218
     21 C15        26.3130   45.4760    9.7820 C.ar      1 F83        -0.0639
     22 C16        27.1380   44.6890   10.5800 C.ar      1 F83        -0.0448
     23 CL1        24.3110   47.2170    9.3510 Cl        1 F83        -0.0866
     24 H1         29.4911   45.1312   23.4637 H         1 F83         0.2097
     25 H2         30.6451   45.4096   21.4566 H         1 F83         0.0615
     26 H3         29.2544   46.5353   21.6171 H         1 F83         0.0615
     27 H4         27.8118   44.8242   20.4323 H         1 F83         0.0895
     28 H5         29.3879   42.9928   20.9716 H         1 F83         0.2032
     29 H6         30.3701   43.5403   19.7695 H         1 F83         0.2032
     30 H7         27.5910   42.6198   19.5202 H         1 F83         0.0964
     31 H8         29.0620   41.8183   18.8716 H         1 F83         0.0964
     32 H9         27.8577   41.9078   16.6571 H         1 F83         0.0559
     33 H10        27.9159   45.6597   14.5791 H         1 F83         0.0561
     34 H11        28.6996   46.7883   16.6424 H         1 F83         0.0538
     35 H12        30.3367   45.7963   18.9826 H         1 F83         0.0467
     36 H13        28.7802   46.6783   19.1431 H         1 F83         0.0467
     37 H14        28.8147   43.8410   12.5529 H         1 F83         0.2165
     38 H15        25.6741   45.2417   13.5939 H         1 F83         0.0483
     39 H16        24.2023   46.6428   12.1751 H         1 F83         0.0579
     40 H17        26.4889   45.5367    8.7141 H         1 F83         0.0579
     41 H18        27.9571   44.1361   10.1346 H         1 F83         0.0483
@<TRIPOS>BOND
     1    1    2 1  
     2    2    3 1  
     3    3    4 1  
     4    3   12 1  
     5    4    5 1  
     6    5    6 1  
     7    6    7 ar 
     8    6   11 ar 
     9    7    8 ar 
    10    8    9 ar 
    11    8   13 1  
    12    9   10 ar 
    13   10   11 ar 
    14   11   12 1  
    15   13   14 2  
    16   13   15 2  
    17   13   16 am 
    18   16   17 1  
    19   17   18 ar 
    20   17   22 ar 
    21   18   19 ar 
    22   19   20 ar 
    23   20   21 ar 
    24   20   23 1  
    25   21   22 ar 
    26    1   24 1  
    27    2   25 1  
    28    2   26 1  
    29    3   27 1  
    30    4   28 1  
    31    4   29 1  
    32    5   30 1  
    33    5   31 1  
    34    7   32 1  
    35    9   33 1  
    36   10   34 1  
    37   12   35 1  
    38   12   36 1  
    39   16   37 1  
    40   18   38 1  
    41   19   39 1  
    42   21   40 1  
    43   22   41 1  
@<TRIPOS>SUBSTRUCTURE
     1 F83         1

