### 
### Created by X-TOOL on Fri Sep 26 17:34:32 2014
### 

@<TRIPOS>MOLECULE
2g8r_ligand
   46    48     1     0     0
SMALL
GAST_HUCK


@<TRIPOS>ATOM
      1 O2         38.5350    1.0970   18.1450 O.2       1 N3E        -0.3815
      2 C2         39.3940    1.8400   17.6080 C.2       1 N3E         0.3328
      3 N3         40.0240    1.4240   16.4820 N.am      1 N3E        -0.1865
      4 C4         40.9670    2.1990   15.8860 C.2       1 N3E         0.1822
      5 O4         41.5370    1.7960   14.8380 O.2       1 N3E        -0.4124
      6 C5         41.2770    3.4430   16.4440 C.2       1 N3E         0.0062
      7 C6         40.6120    3.8420   17.6060 C.2       1 N3E         0.0591
      8 N1         39.6840    3.0300   18.1680 N.am      1 N3E        -0.1590
      9 C1'        38.9760    3.4220   19.3960 C.3       1 N3E         0.2089
     10 O4'        39.1370    4.8120   19.7010 O.3       1 N3E        -0.3335
     11 C4'        39.5400    4.9970   21.0700 C.3       1 N3E         0.1300
     12 C5'        40.9230    5.6470   21.1450 C.3       1 N3E         0.0759
     13 O5'        41.2290    6.2690   19.8900 O.3       1 N3E        -0.3922
     14 C2'        39.4540    2.6240   20.6170 C.3       1 N3E         0.1553
     15 O2'        40.7460    2.0390   20.3840 O.3       1 N3E        -0.3808
     16 C3'        39.5610    3.6250   21.7540 C.3       1 N3E         0.0400
     17 N7         38.3730    3.3910   22.5880 N.4       1 N3E         0.2414
     18 C13        38.6230    2.5690   23.7870 C.3       1 N3E        -0.0297
     19 C8         37.0890    3.9160   22.0880 C.3       1 N3E        -0.0297
     20 C9         35.9730    3.8530   23.1180 C.3       1 N3E         0.0020
     21 C10        36.3450    3.2910   24.4910 C.3       1 N3E         0.0214
     22 C12        37.3020    2.1130   24.4060 C.3       1 N3E         0.0020
     23 C11        35.0830    3.0280   25.2690 C.2       1 N3E         0.0382
     24 O13        34.7770    1.8940   25.7380 O.co2     1 N3E        -0.5687
     25 O12        34.4030    4.0540   25.4220 O.co2     1 N3E        -0.5687
     26 H1         39.7917    0.5359   16.0854 H         1 N3E         0.2259
     27 H2         42.0224    4.0884   15.9817 H         1 N3E         0.0258
     28 H3         40.8393    4.8054   18.0601 H         1 N3E         0.1178
     29 H4         37.9057    3.2199   19.2420 H         1 N3E         0.0998
     30 H5         38.8128    5.6473   21.5782 H         1 N3E         0.0678
     31 H6         41.6778    4.8780   21.3664 H         1 N3E         0.0585
     32 H7         40.9284    6.4061   21.9411 H         1 N3E         0.0585
     33 H8         41.2243    5.6128   19.2031 H         1 N3E         0.2095
     34 H9         38.7294    1.8335   20.8622 H         1 N3E         0.0708
     35 H10        41.0157    1.5526   21.1542 H         1 N3E         0.2103
     36 H11        40.4817    3.4945   22.3416 H         1 N3E         0.0905
     37 H12        38.5144    4.2346   23.1213 H         1 N3E         0.2038
     38 H13        39.1822    3.1640   24.5241 H         1 N3E         0.0816
     39 H14        39.2144    1.6858   23.5040 H         1 N3E         0.0816
     40 H15        36.7880    3.3252   21.2103 H         1 N3E         0.0816
     41 H16        37.2322    4.9657   21.7919 H         1 N3E         0.0816
     42 H17        35.1714    3.2232   22.7047 H         1 N3E         0.0337
     43 H18        35.5962    4.8758   23.2661 H         1 N3E         0.0337
     44 H19        36.8878    4.0827   25.0283 H         1 N3E         0.0470
     45 H20        37.4878    1.7188   25.4160 H         1 N3E         0.0337
     46 H21        36.8575    1.3247   23.7807 H         1 N3E         0.0337
@<TRIPOS>BOND
     1    1    2 2  
     2    2    3 am 
     3    2    8 am 
     4    3    4 am 
     5    4    5 2  
     6    4    6 1  
     7    6    7 2  
     8    7    8 1  
     9    8    9 1  
    10    9   10 1  
    11    9   14 1  
    12   10   11 1  
    13   11   12 1  
    14   11   16 1  
    15   12   13 1  
    16   14   15 1  
    17   14   16 1  
    18   16   17 1  
    19   17   18 1  
    20   17   19 1  
    21   18   22 1  
    22   19   20 1  
    23   20   21 1  
    24   21   22 1  
    25   21   23 1  
    26   23   24 ar 
    27   23   25 ar 
    28    3   26 1  
    29    6   27 1  
    30    7   28 1  
    31    9   29 1  
    32   11   30 1  
    33   12   31 1  
    34   12   32 1  
    35   13   33 1  
    36   14   34 1  
    37   15   35 1  
    38   16   36 1  
    39   17   37 1  
    40   18   38 1  
    41   18   39 1  
    42   19   40 1  
    43   19   41 1  
    44   20   42 1  
    45   20   43 1  
    46   21   44 1  
    47   22   45 1  
    48   22   46 1  
@<TRIPOS>SUBSTRUCTURE
     1 N3E         1

