### 
### Created by X-TOOL on Mon Sep 10 21:12:54 2018
### 

@<TRIPOS>MOLECULE
2g94_ligand
   99    99     1     0     0
SMALL
GAST_HUCK


@<TRIPOS>ATOM
      1 C11         1.9840   -5.6010   34.5190 C.2       1 ZPQ        -0.0493
      2 C12         2.8960   -4.4190   34.3400 C.2       1 ZPQ        -0.0097
      3 N11         3.1050   -4.3720   32.7670 N.2       1 ZPQ        -0.2407
      4 N12         2.3600   -5.4370   32.2460 N.pl3     1 ZPQ        -0.1871
      5 C13         1.6920   -6.1680   33.3200 C.2       1 ZPQ         0.0624
      6 C14         3.5180   -3.4650   35.2730 C.3       1 ZPQ        -0.0313
      7 C15         2.2360   -5.8200   30.8060 C.3       1 ZPQ         0.1939
      8 O11         0.9210   -5.6910   30.2630 O.3       1 ZPQ        -0.2295
      9 C16         0.3730   -4.4380   30.1400 C.2       1 ZPQ         0.3246
     10 C17         0.8010   -7.3800   33.1860 C.3       1 ZPQ        -0.0033
     11 O12         0.9980   -3.3940   30.3070 O.2       1 ZPQ        -0.3774
     12 N2         -0.9370   -4.4500   29.8110 N.am      1 ZPQ        -0.2395
     13 C21        -1.8500   -3.3340   29.6050 C.3       1 ZPQ         0.1518
     14 C22        -2.0480   -3.1530   28.0760 C.3       1 ZPQ         0.1055
     15 S2         -0.8900   -2.0900   27.2550 S.o2      1 ZPQ        -0.0295
     16 O22        -1.5140   -1.6570   26.0290 O.2       1 ZPQ        -0.1744
     17 O23        -0.4950   -1.0130   28.1650 O.2       1 ZPQ        -0.1744
     18 C23         0.4660   -3.1910   26.9130 C.3       1 ZPQ         0.0547
     19 C25        -3.1140   -3.7990   30.2500 C.2       1 ZPQ         0.2035
     20 O2         -4.1370   -4.0120   29.6070 O.2       1 ZPQ        -0.3945
     21 N3         -3.0360   -3.9860   31.6190 N.am      1 ZPQ        -0.2795
     22 C31        -4.2220   -4.4770   32.3760 C.3       1 ZPQ         0.0683
     23 C32        -4.9840   -3.3880   33.1830 C.3       1 ZPQ         0.0804
     24 C33        -3.7950   -5.6640   33.3040 C.3       1 ZPQ        -0.0251
     25 C34        -3.2620   -6.9030   32.5090 C.3       1 ZPQ        -0.0446
     26 C35        -4.3290   -7.5100   31.5750 C.3       1 ZPQ        -0.0626
     27 C36        -2.8050   -7.9870   33.5000 C.3       1 ZPQ        -0.0626
     28 C37        -5.3600   -2.1940   32.2830 C.3       1 ZPQ        -0.0052
     29 C38        -6.6620   -1.5430   32.7540 C.3       1 ZPQ         0.0483
     30 C39        -6.7260   -0.1000   32.2390 C.3       1 ZPQ        -0.0452
     31 C30        -7.8780   -2.2990   32.2090 C.2       1 ZPQ         0.1811
     32 O31        -4.1550   -2.8940   34.2330 O.3       1 ZPQ        -0.3894
     33 O32        -7.9100   -2.7650   31.0800 O.2       1 ZPQ        -0.3966
     34 N4         -8.9360   -2.3980   33.0750 N.am      1 ZPQ        -0.2652
     35 C41       -10.1770   -3.0790   32.6600 C.3       1 ZPQ         0.1330
     36 C42       -11.0690   -3.4600   33.8710 C.3       1 ZPQ        -0.0063
     37 C43       -12.2430   -4.3610   33.4340 C.3       1 ZPQ        -0.0584
     38 C44       -11.6220   -2.2120   34.5570 C.3       1 ZPQ        -0.0584
     39 C45       -10.8820   -2.1360   31.6360 C.2       1 ZPQ         0.2019
     40 O4        -10.7850   -0.9330   31.7260 O.2       1 ZPQ        -0.3945
     41 N5        -11.6110   -2.7780   30.6420 N.am      1 ZPQ        -0.2848
     42 C51       -12.3520   -2.0350   29.5950 C.3       1 ZPQ         0.0333
     43 C52       -11.6910   -2.1750   28.1840 C.3       1 ZPQ        -0.0265
     44 C53       -10.3120   -1.5090   28.1490 C.3       1 ZPQ        -0.0608
     45 C54       -11.5290   -3.6470   27.8150 C.3       1 ZPQ        -0.0608
     46 H1          1.6090   -5.9540   35.4785 H         1 ZPQ         0.0215
     47 H2          4.1243   -2.7418   34.7079 H         1 ZPQ         0.0373
     48 H3          4.1613   -4.0097   35.9797 H         1 ZPQ         0.0373
     49 H4          2.7332   -2.9307   35.8285 H         1 ZPQ         0.0373
     50 H5          2.5472   -6.8700   30.7031 H         1 ZPQ         0.0992
     51 H6          2.9119   -5.1783   30.2218 H         1 ZPQ         0.0992
     52 H7          0.4547   -7.6924   34.1822 H         1 ZPQ         0.0437
     53 H8          1.3660   -8.2008   32.7202 H         1 ZPQ         0.0437
     54 H9         -0.0668   -7.1296   32.5581 H         1 ZPQ         0.0437
     55 H10        -1.3388   -5.3579   29.6914 H         1 ZPQ         0.1900
     56 H11        -1.4799   -2.4044   30.0620 H         1 ZPQ         0.0816
     57 H12        -3.0547   -2.7401   27.9148 H         1 ZPQ         0.0548
     58 H13        -1.9802   -4.1467   27.6092 H         1 ZPQ         0.0548
     59 H14         1.2644   -2.6395   26.3949 H         1 ZPQ         0.0464
     60 H15         0.1165   -4.0160   26.2748 H         1 ZPQ         0.0464
     61 H16         0.8552   -3.5979   27.8579 H         1 ZPQ         0.0464
     62 H17        -2.1819   -3.7912   32.1013 H         1 ZPQ         0.1855
     63 H18        -4.9320   -4.8721   31.6345 H         1 ZPQ         0.0582
     64 H19        -5.8976   -3.8294   33.6078 H         1 ZPQ         0.0618
     65 H20        -4.6675   -5.9769   33.8963 H         1 ZPQ         0.0291
     66 H21        -3.0005   -5.3127   33.9788 H         1 ZPQ         0.0291
     67 H22        -2.4035   -6.5831   31.9002 H         1 ZPQ         0.0296
     68 H23        -3.9025   -8.3735   31.0435 H         1 ZPQ         0.0232
     69 H24        -4.6510   -6.7527   30.8451 H         1 ZPQ         0.0232
     70 H25        -5.1943   -7.8368   32.1703 H         1 ZPQ         0.0232
     71 H26        -2.0428   -7.5695   34.1743 H         1 ZPQ         0.0232
     72 H27        -2.3782   -8.8351   32.9446 H         1 ZPQ         0.0232
     73 H28        -3.6672   -8.3316   34.0899 H         1 ZPQ         0.0232
     74 H29        -5.4881   -2.5484   31.2496 H         1 ZPQ         0.0318
     75 H30        -4.5518   -1.4486   32.3175 H         1 ZPQ         0.0318
     76 H31        -6.6912   -1.5466   33.8536 H         1 ZPQ         0.0536
     77 H32        -7.6619    0.3688   32.5772 H         1 ZPQ         0.0257
     78 H33        -6.6930   -0.1013   31.1395 H         1 ZPQ         0.0257
     79 H34        -5.8691    0.4676   32.6309 H         1 ZPQ         0.0257
     80 H35        -3.9080   -3.6117   34.8043 H         1 ZPQ         0.2099
     81 H36        -8.8662   -2.0066   33.9926 H         1 ZPQ         0.1883
     82 H37        -9.9102   -4.0131   32.1440 H         1 ZPQ         0.0802
     83 H38       -10.4514   -4.0137   34.5934 H         1 ZPQ         0.0343
     84 H39       -12.8567   -4.6145   34.3110 H         1 ZPQ         0.0234
     85 H40       -11.8490   -5.2837   32.9831 H         1 ZPQ         0.0234
     86 H41       -12.8602   -3.8270   32.6965 H         1 ZPQ         0.0234
     87 H42       -10.7885   -1.5662   34.8705 H         1 ZPQ         0.0234
     88 H43       -12.2084   -2.5080   35.4393 H         1 ZPQ         0.0234
     89 H44       -12.2671   -1.6632   33.8551 H         1 ZPQ         0.0234
     90 H45       -11.6366   -3.7776   30.6328 H         1 ZPQ         0.1851
     91 H46       -12.3779   -0.9700   29.8689 H         1 ZPQ         0.0522
     92 H47       -13.3790   -2.4257   29.5443 H         1 ZPQ         0.0522
     93 H48       -12.3415   -1.6878   27.4427 H         1 ZPQ         0.0315
     94 H49        -9.8745   -1.6243   27.1464 H         1 ZPQ         0.0233
     95 H50        -9.6558   -1.9853   28.8923 H         1 ZPQ         0.0233
     96 H51       -10.4154   -0.4392   28.3831 H         1 ZPQ         0.0233
     97 H52       -12.5119   -4.1404   27.8355 H         1 ZPQ         0.0233
     98 H53       -10.8588   -4.1347   28.5381 H         1 ZPQ         0.0233
     99 H54       -11.0997   -3.7269   26.8054 H         1 ZPQ         0.0233
@<TRIPOS>BOND
     1    1    2 1  
     2    1    5 2  
     3    2    3 2  
     4    2    6 1  
     5    3    4 1  
     6    4    5 1  
     7    4    7 1  
     8    5   10 1  
     9    7    8 1  
    10    8    9 1  
    11    9   11 2  
    12    9   12 am 
    13   12   13 1  
    14   13   14 1  
    15   13   19 1  
    16   14   15 1  
    17   15   16 2  
    18   15   17 2  
    19   15   18 1  
    20   19   20 2  
    21   19   21 am 
    22   21   22 1  
    23   22   23 1  
    24   22   24 1  
    25   23   28 1  
    26   23   32 1  
    27   24   25 1  
    28   25   26 1  
    29   25   27 1  
    30   28   29 1  
    31   29   30 1  
    32   29   31 1  
    33   31   33 2  
    34   31   34 am 
    35   34   35 1  
    36   35   36 1  
    37   35   39 1  
    38   36   37 1  
    39   36   38 1  
    40   39   40 2  
    41   39   41 am 
    42   41   42 1  
    43   42   43 1  
    44   43   44 1  
    45   43   45 1  
    46    1   46 1  
    47    6   47 1  
    48    6   48 1  
    49    6   49 1  
    50    7   50 1  
    51    7   51 1  
    52   10   52 1  
    53   10   53 1  
    54   10   54 1  
    55   12   55 1  
    56   13   56 1  
    57   14   57 1  
    58   14   58 1  
    59   18   59 1  
    60   18   60 1  
    61   18   61 1  
    62   21   62 1  
    63   22   63 1  
    64   23   64 1  
    65   24   65 1  
    66   24   66 1  
    67   25   67 1  
    68   26   68 1  
    69   26   69 1  
    70   26   70 1  
    71   27   71 1  
    72   27   72 1  
    73   27   73 1  
    74   28   74 1  
    75   28   75 1  
    76   29   76 1  
    77   30   77 1  
    78   30   78 1  
    79   30   79 1  
    80   32   80 1  
    81   34   81 1  
    82   35   82 1  
    83   36   83 1  
    84   37   84 1  
    85   37   85 1  
    86   37   86 1  
    87   38   87 1  
    88   38   88 1  
    89   38   89 1  
    90   41   90 1  
    91   42   91 1  
    92   42   92 1  
    93   43   93 1  
    94   44   94 1  
    95   44   95 1  
    96   44   96 1  
    97   45   97 1  
    98   45   98 1  
    99   45   99 1  
@<TRIPOS>SUBSTRUCTURE
     1 ZPQ         1

