### 
### Created by X-TOOL on Mon Sep 10 21:12:55 2018
### 

@<TRIPOS>MOLECULE
2g97_ligand
   58    60     1     0     0
SMALL
GAST_HUCK


@<TRIPOS>ATOM
      1 CAK        -3.6740  103.1150   10.4560 C.ar      1 DGB        -0.0419
      2 CAF        -3.4850  103.4210    9.1100 C.ar      1 DGB        -0.0562
      3 CAE        -4.3770  104.2690    8.4610 C.ar      1 DGB        -0.0575
      4 CAG        -5.4600  104.8040    9.1560 C.ar      1 DGB        -0.0562
      5 CAL        -5.6530  104.4970   10.4980 C.ar      1 DGB        -0.0419
      6 CBA        -4.7520  103.6540   11.1490 C.ar      1 DGB         0.0500
      7 CAY        -4.8800  103.4030   12.6540 C.2       1 DGB         0.2074
      8 OAB        -5.9570  103.0530   13.1350 O.2       1 DGB        -0.3845
      9 NBC        -3.8200  103.6100   13.4390 N.am      1 DGB        -0.2724
     10 CAU        -2.5920  104.2320   12.8910 C.3       1 DGB         0.0336
     11 CAS        -1.3600  103.4280   13.3140 C.3       1 DGB        -0.0297
     12 CAT        -3.8580  103.3360   14.8960 C.3       1 DGB         0.0336
     13 CAR        -2.6060  102.5520   15.3100 C.3       1 DGB        -0.0297
     14 CBB        -1.3340  103.2640   14.8360 C.3       1 DGB        -0.0374
     15 CAQ        -0.0320  102.6240   15.3340 C.3       1 DGB        -0.0500
     16 CAO         0.3660  101.2730   14.7310 C.3       1 DGB        -0.0510
     17 CAN         1.8840  101.2210   14.5140 C.3       1 DGB        -0.0329
     18 CAP         2.4400   99.8160   14.2670 C.3       1 DGB         0.0299
     19 NAW         2.0990   98.9680   15.4260 N.am      1 DGB        -0.2880
     20 CAX         2.9280   98.2470   16.1590 C.2       1 DGB         0.1948
     21 OAA         2.5030   97.6710   17.1640 O.2       1 DGB        -0.3887
     22 CAC         4.3100   98.1540   15.9160 C.2       1 DGB         0.0148
     23 CAD         4.9120   97.5680   14.8150 C.2       1 DGB        -0.0302
     24 CAZ         6.3050   97.5070   14.6480 C.ar      1 DGB         0.0122
     25 CAJ         6.8410   96.7720   13.5910 C.ar      1 DGB        -0.0318
     26 CAH         8.2170   96.5810   13.5010 C.ar      1 DGB        -0.0314
     27 CAI         9.0440   97.1570   14.4600 C.ar      1 DGB         0.0131
     28 NAV         8.5110   97.8670   15.4410 N.ar      1 DGB        -0.2931
     29 CAM         7.2000   98.0400   15.5640 C.ar      1 DGB         0.0223
     30 H1         -2.9794  102.4556   10.9637 H         1 DGB         0.0669
     31 H2         -2.6451  102.9995    8.5697 H         1 DGB         0.0629
     32 H3         -4.2296  104.5134    7.4152 H         1 DGB         0.0653
     33 H4         -6.1551  105.4625    8.6478 H         1 DGB         0.0629
     34 H5         -6.4988  104.9103   11.0356 H         1 DGB         0.0669
     35 H6         -2.5038  105.2600   13.2723 H         1 DGB         0.0522
     36 H7         -2.6535  104.2522   11.7929 H         1 DGB         0.0522
     37 H8         -0.4517  103.9571   12.9898 H         1 DGB         0.0287
     38 H9         -1.3942  102.4350   12.8419 H         1 DGB         0.0287
     39 H10        -4.7544  102.7442   15.1331 H         1 DGB         0.0522
     40 H11        -3.8911  104.2881   15.4459 H         1 DGB         0.0522
     41 H12        -2.6451  101.5481   14.8621 H         1 DGB         0.0287
     42 H13        -2.5822  102.4638   16.4062 H         1 DGB         0.0287
     43 H14        -1.3613  104.2754   15.2675 H         1 DGB         0.0302
     44 H15        -0.1277  102.4846   16.4209 H         1 DGB         0.0268
     45 H16         0.7841  103.3314   15.1254 H         1 DGB         0.0268
     46 H17        -0.1445  101.1405   13.7657 H         1 DGB         0.0266
     47 H18         0.0684  100.4662   15.4170 H         1 DGB         0.0266
     48 H19         2.3737  101.6323   15.4090 H         1 DGB         0.0285
     49 H20         2.1285  101.8458   13.6423 H         1 DGB         0.0285
     50 H21         3.5328   99.8643   14.1511 H         1 DGB         0.0518
     51 H22         1.9927   99.3949   13.3546 H         1 DGB         0.0518
     52 H23         1.1336   98.9358   15.6848 H         1 DGB         0.1837
     53 H24         4.9711   98.5847   16.6666 H         1 DGB         0.0699
     54 H25         4.2765   97.1350   14.0440 H         1 DGB         0.0756
     55 H26         6.1854   96.3489   12.8385 H         1 DGB         0.0763
     56 H27         8.6383   95.9915   12.6947 H         1 DGB         0.0714
     57 H28        10.1185   97.0249   14.4039 H         1 DGB         0.0838
     58 H29         6.8194   98.6126   16.4020 H         1 DGB         0.0857
@<TRIPOS>BOND
     1    1    2 ar 
     2    1    6 ar 
     3    2    3 ar 
     4    3    4 ar 
     5    4    5 ar 
     6    5    6 ar 
     7    6    7 1  
     8    7    8 2  
     9    7    9 am 
    10    9   10 1  
    11    9   12 1  
    12   10   11 1  
    13   11   14 1  
    14   12   13 1  
    15   13   14 1  
    16   14   15 1  
    17   15   16 1  
    18   16   17 1  
    19   17   18 1  
    20   18   19 1  
    21   19   20 am 
    22   20   21 2  
    23   20   22 1  
    24   22   23 2  
    25   23   24 1  
    26   24   25 ar 
    27   24   29 ar 
    28   25   26 ar 
    29   26   27 ar 
    30   27   28 ar 
    31   28   29 ar 
    32    1   30 1  
    33    2   31 1  
    34    3   32 1  
    35    4   33 1  
    36    5   34 1  
    37   10   35 1  
    38   10   36 1  
    39   11   37 1  
    40   11   38 1  
    41   12   39 1  
    42   12   40 1  
    43   13   41 1  
    44   13   42 1  
    45   14   43 1  
    46   15   44 1  
    47   15   45 1  
    48   16   46 1  
    49   16   47 1  
    50   17   48 1  
    51   17   49 1  
    52   18   50 1  
    53   18   51 1  
    54   19   52 1  
    55   22   53 1  
    56   23   54 1  
    57   25   55 1  
    58   26   56 1  
    59   27   57 1  
    60   29   58 1  
@<TRIPOS>SUBSTRUCTURE
     1 DGB         1

