### 
### Created by X-TOOL on Fri Sep 26 17:34:36 2014
### 

@<TRIPOS>MOLECULE
2g9q_ligand
   21    21     1     0     0
SMALL
GAST_HUCK


@<TRIPOS>ATOM
      1 O4         31.1450   20.9550   25.4890 O.3       1 MOL        -0.3833
      2 C4         32.5080   21.3430   25.7380 C.3       1 MOL         0.1303
      3 C3         32.7700   22.7760   25.2790 C.3       1 MOL         0.1258
      4 O3         33.1520   22.7920   23.9180 O.3       1 MOL        -0.3837
      5 C2         33.9500   23.2260   26.1610 C.3       1 MOL        -0.0039
      6 N1         34.0930   22.1650   27.1970 N.4       1 MOL         0.2346
      7 C5         32.7660   21.5110   27.2460 C.3       1 MOL         0.0302
      8 C6         32.8110   20.1940   28.0390 C.3       1 MOL         0.0893
      9 O6         33.7580   19.2940   27.4420 O.3       1 MOL        -0.3894
     10 H1         31.0123   20.0618   25.7840 H         1 MOL         0.2102
     11 H2         33.1965   20.6224   25.2725 H         1 MOL         0.0679
     12 H3         31.8871   23.4141   25.4317 H         1 MOL         0.0675
     13 H4         33.3117   23.6880   23.6456 H         1 MOL         0.2101
     14 H5         33.7318   24.1964   26.6308 H         1 MOL         0.0840
     15 H6         34.8695   23.3067   25.5627 H         1 MOL         0.0840
     16 H7         34.3238   22.5692   28.0911 H         1 MOL         0.2019
     17 H8         34.8063   21.5035   26.9330 H         1 MOL         0.2019
     18 H9         32.0100   22.1674   27.7017 H         1 MOL         0.0900
     19 H10        31.8135   19.7303   28.0324 H         1 MOL         0.0614
     20 H11        33.1112   20.4033   29.0763 H         1 MOL         0.0614
     21 H12        33.7793   18.4839   27.9377 H         1 MOL         0.2097
@<TRIPOS>BOND
     1    1    2 1  
     2    2    3 1  
     3    2    7 1  
     4    3    4 1  
     5    3    5 1  
     6    5    6 1  
     7    6    7 1  
     8    7    8 1  
     9    8    9 1  
    10    1   10 1  
    11    2   11 1  
    12    3   12 1  
    13    4   13 1  
    14    5   14 1  
    15    5   15 1  
    16    6   16 1  
    17    6   17 1  
    18    7   18 1  
    19    8   19 1  
    20    8   20 1  
    21    9   21 1  
@<TRIPOS>SUBSTRUCTURE
     1 MOL         1

