### 
### Created by X-TOOL on Mon Sep 10 21:12:55 2018
### 

@<TRIPOS>MOLECULE
2g9r_ligand
   43    44     1     0     0
SMALL
GAST_HUCK


@<TRIPOS>ATOM
      1 C12        36.3100   28.3610   29.4400 C.ar      1 G27        -0.0603
      2 C13        36.5660   29.7250   29.2790 C.ar      1 G27        -0.0686
      3 C14        37.2600   30.1720   28.1560 C.ar      1 G27        -0.0687
      4 C15        37.6950   29.2530   27.2010 C.ar      1 G27        -0.0686
      5 C16        37.4370   27.8900   27.3640 C.ar      1 G27        -0.0603
      6 C11        36.7350   27.4440   28.4810 C.ar      1 G27        -0.0428
      7 C10        36.4600   25.9490   28.6790 C.3       1 G27        -0.0143
      8 C9         35.1750   25.4550   28.0060 C.3       1 G27        -0.0028
      9 C8         35.1020   23.9240   28.1570 C.3       1 G27        -0.0300
     10 N1         33.9240   23.3320   27.4930 N.4       1 G27         0.2376
     11 C7         33.7790   21.9430   28.0080 C.3       1 G27        -0.0243
     12 C2         34.0630   23.3660   26.0120 C.3       1 G27        -0.0028
     13 C3         32.8320   22.7170   25.3360 C.3       1 G27         0.1210
     14 O3         33.0400   22.6620   23.9270 O.3       1 G27        -0.3839
     15 C4         32.5810   21.2920   25.8610 C.3       1 G27         0.0958
     16 O4         31.3540   20.7940   25.3040 O.3       1 G27        -0.3885
     17 C5         32.5330   21.2690   27.4110 C.3       1 G27         0.0508
     18 C6         32.3830   19.8510   27.9890 C.3       1 G27         0.0543
     19 O6         33.3670   18.9650   27.4360 O.3       1 G27        -0.3945
     20 H1         35.7768   28.0136   30.3175 H         1 G27         0.0557
     21 H2         36.2258   30.4337   30.0254 H         1 G27         0.0599
     22 H3         37.4608   31.2292   28.0253 H         1 G27         0.0559
     23 H4         38.2362   29.5985   26.3276 H         1 G27         0.0599
     24 H5         37.7829   27.1799   26.6216 H         1 G27         0.0557
     25 H6         36.3824   25.7520   29.7584 H         1 G27         0.0428
     26 H7         37.3071   25.3838   28.2631 H         1 G27         0.0428
     27 H8         35.1884   25.7224   26.9391 H         1 G27         0.0339
     28 H9         34.3017   25.9175   28.4890 H         1 G27         0.0339
     29 H10        35.0594   23.6796   29.2286 H         1 G27         0.0816
     30 H11        36.0094   23.4851   27.7166 H         1 G27         0.0816
     31 H12        33.1036   23.8614   27.7435 H         1 G27         0.2034
     32 H13        33.6837   21.9722   29.1035 H         1 G27         0.0819
     33 H14        34.6710   21.3610   27.7329 H         1 G27         0.0819
     34 H15        34.9687   22.8137   25.7208 H         1 G27         0.0841
     35 H16        34.1485   24.4114   25.6805 H         1 G27         0.0841
     36 H17        31.9464   23.3340   25.5482 H         1 G27         0.0673
     37 H18        33.1597   23.5425   23.5911 H         1 G27         0.2101
     38 H19        33.4068   20.6446   25.5309 H         1 G27         0.0626
     39 H20        30.6370   21.3610   25.5627 H         1 G27         0.2099
     40 H21        31.6511   21.8490   27.7206 H         1 G27         0.0401
     41 H22        31.3796   19.4690   27.7497 H         1 G27         0.0562
     42 H23        32.5089   19.8922   29.0810 H         1 G27         0.0562
     43 H24        34.2356   19.2892   27.6432 H         1 G27         0.2094
@<TRIPOS>BOND
     1    1    2 ar 
     2    1    6 ar 
     3    2    3 ar 
     4    3    4 ar 
     5    4    5 ar 
     6    5    6 ar 
     7    6    7 1  
     8    7    8 1  
     9    8    9 1  
    10    9   10 1  
    11   10   11 1  
    12   10   12 1  
    13   11   17 1  
    14   12   13 1  
    15   13   14 1  
    16   13   15 1  
    17   15   16 1  
    18   15   17 1  
    19   17   18 1  
    20   18   19 1  
    21    1   20 1  
    22    2   21 1  
    23    3   22 1  
    24    4   23 1  
    25    5   24 1  
    26    7   25 1  
    27    7   26 1  
    28    8   27 1  
    29    8   28 1  
    30    9   29 1  
    31    9   30 1  
    32   10   31 1  
    33   11   32 1  
    34   11   33 1  
    35   12   34 1  
    36   12   35 1  
    37   13   36 1  
    38   14   37 1  
    39   15   38 1  
    40   16   39 1  
    41   17   40 1  
    42   18   41 1  
    43   18   42 1  
    44   19   43 1  
@<TRIPOS>SUBSTRUCTURE
     1 G27         1

