### 
### Created by X-TOOL on Mon Sep 10 21:12:55 2018
### 

@<TRIPOS>MOLECULE
2g9u_ligand
   43    44     1     0     0
SMALL
GAST_HUCK


@<TRIPOS>ATOM
      1 C12        36.4760   28.1000   29.9550 C.ar      1 G27        -0.0603
      2 C13        36.6920   29.4820   29.9620 C.ar      1 G27        -0.0686
      3 C14        37.0370   30.1280   28.7760 C.ar      1 G27        -0.0687
      4 C15        37.1690   29.3910   27.5960 C.ar      1 G27        -0.0686
      5 C16        36.9440   28.0110   27.5890 C.ar      1 G27        -0.0603
      6 C11        36.5870   27.3650   28.7700 C.ar      1 G27        -0.0428
      7 C10        36.3600   25.8480   28.7980 C.3       1 G27        -0.0143
      8 C9         35.1390   25.3520   28.0110 C.3       1 G27        -0.0028
      9 C8         35.0440   23.8250   28.1780 C.3       1 G27        -0.0300
     10 N1         33.8630   23.2440   27.5130 N.4       1 G27         0.2376
     11 C7         33.7150   21.8340   27.9870 C.3       1 G27        -0.0243
     12 C2         33.9880   23.3490   26.0240 C.3       1 G27        -0.0028
     13 C3         32.7840   22.6750   25.3200 C.3       1 G27         0.1210
     14 O3         33.0020   22.6610   23.9120 O.3       1 G27        -0.3839
     15 C4         32.5790   21.2330   25.8070 C.3       1 G27         0.0958
     16 O4         31.3950   20.6950   25.2000 O.3       1 G27        -0.3885
     17 C5         32.4800   21.1810   27.3520 C.3       1 G27         0.0508
     18 C6         32.2790   19.7600   27.9040 C.3       1 G27         0.0543
     19 O6         33.2800   18.8580   27.4030 O.3       1 G27        -0.3945
     20 H1         36.2197   27.5929   30.8782 H         1 G27         0.0557
     21 H2         36.5919   30.0460   30.8823 H         1 G27         0.0599
     22 H3         37.2025   31.1993   28.7690 H         1 G27         0.0559
     23 H4         37.4485   29.8940   26.6773 H         1 G27         0.0599
     24 H5         37.0469   27.4469   26.6691 H         1 G27         0.0557
     25 H6         36.2347   25.5426   29.8473 H         1 G27         0.0428
     26 H7         37.2540   25.3629   28.3791 H         1 G27         0.0428
     27 H8         35.2556   25.6031   26.9464 H         1 G27         0.0339
     28 H9         34.2268   25.8263   28.4019 H         1 G27         0.0339
     29 H10        34.9910   23.5926   29.2519 H         1 G27         0.0816
     30 H11        35.9479   23.3686   27.7482 H         1 G27         0.0816
     31 H12        33.0442   23.7615   27.7920 H         1 G27         0.2034
     32 H13        33.6045   21.8296   29.0814 H         1 G27         0.0819
     33 H14        34.6116   21.2617   27.7067 H         1 G27         0.0819
     34 H15        34.9162   22.8526   25.7045 H         1 G27         0.0841
     35 H16        34.0234   24.4109   25.7394 H         1 G27         0.0841
     36 H17        31.8764   23.2561   25.5402 H         1 G27         0.0673
     37 H18        33.0938   23.5529   23.5980 H         1 G27         0.2101
     38 H19        33.4427   20.6280   25.4940 H         1 G27         0.0626
     39 H20        30.6458   21.2250   25.4456 H         1 G27         0.2099
     40 H21        31.5988   21.7715   27.6430 H         1 G27         0.0401
     41 H22        31.2857   19.3958   27.6028 H         1 G27         0.0562
     42 H23        32.3411   19.7900   29.0018 H         1 G27         0.0562
     43 H24        34.1403   19.1650   27.6638 H         1 G27         0.2094
@<TRIPOS>BOND
     1    1    2 ar 
     2    1    6 ar 
     3    2    3 ar 
     4    3    4 ar 
     5    4    5 ar 
     6    5    6 ar 
     7    6    7 1  
     8    7    8 1  
     9    8    9 1  
    10    9   10 1  
    11   10   11 1  
    12   10   12 1  
    13   11   17 1  
    14   12   13 1  
    15   13   14 1  
    16   13   15 1  
    17   15   16 1  
    18   15   17 1  
    19   17   18 1  
    20   18   19 1  
    21    1   20 1  
    22    2   21 1  
    23    3   22 1  
    24    4   23 1  
    25    5   24 1  
    26    7   25 1  
    27    7   26 1  
    28    8   27 1  
    29    8   28 1  
    30    9   29 1  
    31    9   30 1  
    32   10   31 1  
    33   11   32 1  
    34   11   33 1  
    35   12   34 1  
    36   12   35 1  
    37   13   36 1  
    38   14   37 1  
    39   15   38 1  
    40   16   39 1  
    41   17   40 1  
    42   18   41 1  
    43   18   42 1  
    44   19   43 1  
@<TRIPOS>SUBSTRUCTURE
     1 G27         1

