### 
### Created by X-TOOL on Mon Sep 10 21:12:55 2018
### 

@<TRIPOS>MOLECULE
2g9v_ligand
   24    24     1     0     0
SMALL
GAST_HUCK


@<TRIPOS>ATOM
      1 O4         31.5400   20.7970   25.2760 O.3       1 IFM        -0.3885
      2 C4         32.7190   21.3240   25.9110 C.3       1 IFM         0.0958
      3 C3         32.9430   22.7770   25.4470 C.3       1 IFM         0.1209
      4 O3         33.1770   22.7770   24.0370 O.3       1 IFM        -0.3839
      5 C2         34.1500   23.4190   26.1810 C.3       1 IFM        -0.0045
      6 N          33.9860   23.3020   27.6580 N.4       1 IFM         0.2292
      7 C1         33.8250   21.8890   28.1250 C.3       1 IFM        -0.0261
      8 C5         32.6080   21.2270   27.4560 C.3       1 IFM         0.0507
      9 C6         32.4560   19.7810   27.9600 C.3       1 IFM         0.0543
     10 O6         33.4890   18.9320   27.4220 O.3       1 IFM        -0.3945
     11 H1         30.7889   21.3269   25.5157 H         1 IFM         0.2099
     12 H2         33.5837   20.7226   25.5939 H         1 IFM         0.0626
     13 H3         32.0405   23.3666   25.6657 H         1 IFM         0.0673
     14 H4         33.3164   23.6687   23.7403 H         1 IFM         0.2101
     15 H5         34.2160   24.4824   25.9074 H         1 IFM         0.0840
     16 H6         35.0736   22.9042   25.8776 H         1 IFM         0.0840
     17 H7         33.1687   23.8246   27.9317 H         1 IFM         0.2014
     18 H8         34.8007   23.6951   28.1027 H         1 IFM         0.2014
     19 H9         33.6839   21.8837   29.2159 H         1 IFM         0.0818
     20 H10        34.7308   21.3195   27.8697 H         1 IFM         0.0818
     21 H11        31.7073   21.7813   27.7585 H         1 IFM         0.0401
     22 H12        31.4746   19.3936   27.6490 H         1 IFM         0.0562
     23 H13        32.5216   19.7746   29.0580 H         1 IFM         0.0562
     24 H14        34.3390   19.2601   27.6910 H         1 IFM         0.2094
@<TRIPOS>BOND
     1    1    2 1  
     2    2    3 1  
     3    2    8 1  
     4    3    4 1  
     5    3    5 1  
     6    5    6 1  
     7    6    7 1  
     8    7    8 1  
     9    8    9 1  
    10    9   10 1  
    11    1   11 1  
    12    2   12 1  
    13    3   13 1  
    14    4   14 1  
    15    5   15 1  
    16    5   16 1  
    17    6   17 1  
    18    6   18 1  
    19    7   19 1  
    20    7   20 1  
    21    8   21 1  
    22    9   22 1  
    23    9   23 1  
    24   10   24 1  
@<TRIPOS>SUBSTRUCTURE
     1 IFM         1

