### 
### Created by X-TOOL on Mon Sep 10 21:12:54 2018
### 

@<TRIPOS>MOLECULE
2g9x_ligand
   67    70     1     0     0
SMALL
GAST_HUCK


@<TRIPOS>ATOM
      1 O2         -2.9360  -28.3320   26.8310 O.2       1 NU5        -0.1706
      2 S1         -2.8770  -27.5210   25.6500 S.o2      1 NU5        -0.0032
      3 O3         -2.7900  -28.4260   24.5250 O.2       1 NU5        -0.1706
      4 C22        -1.5680  -26.4910   25.7520 C.3       1 NU5         0.1091
      5 C23        -0.4450  -26.9770   24.8550 C.3       1 NU5        -0.0136
      6 N6         -0.5150  -26.4000   23.5210 N.4       1 NU5         0.2282
      7 C24         0.7140  -25.9890   22.8510 C.3       1 NU5        -0.0315
      8 C25         0.8080  -26.5510   21.4330 C.3       1 NU5         0.0106
      9 C26         1.1280  -28.0470   21.4110 C.3       1 NU5         0.0490
     10 O4          0.0470  -28.7930   21.9940 O.3       1 NU5        -0.3948
     11 C19        -4.2310  -26.6820   25.4720 C.ar      1 NU5         0.0765
     12 C18        -5.3430  -27.0140   26.2290 C.ar      1 NU5        -0.0469
     13 C17        -6.5350  -26.3140   26.0770 C.ar      1 NU5        -0.0369
     14 C16        -6.6500  -25.2680   25.1710 C.ar      1 NU5         0.0633
     15 C21        -5.5380  -24.9280   24.4000 C.ar      1 NU5        -0.0369
     16 C20        -4.3370  -25.6330   24.5530 C.ar      1 NU5        -0.0469
     17 N2         -7.8540  -24.6440   25.0980 N.pl3     1 NU5        -0.2509
     18 C2         -8.2000  -23.6080   24.2970 C.ar      1 NU5         0.1766
     19 N1         -7.2940  -23.0690   23.4500 N.ar      1 NU5        -0.2391
     20 C6         -7.5790  -22.0300   22.6460 C.ar      1 NU5         0.1974
     21 C5         -8.9400  -21.4760   22.6850 C.ar      1 NU5         0.1541
     22 N7         -9.5900  -20.4930   22.0490 N.pl3     1 NU5        -0.2448
     23 C8        -10.8510  -20.4910   22.5400 C.2       1 NU5         0.1089
     24 N9        -11.0330  -21.4570   23.4810 N.2       1 NU5        -0.2902
     25 C4         -9.8830  -22.1090   23.6190 C.ar      1 NU5         0.0900
     26 N3         -9.4650  -23.1400   24.3780 N.ar      1 NU5        -0.2816
     27 O6         -6.6440  -21.5150   21.8070 O.3       1 NU5        -0.2928
     28 C9         -5.3010  -21.3330   22.2350 C.3       1 NU5         0.0791
     29 C10        -4.4120  -21.9920   21.1740 C.3       1 NU5        -0.0123
     30 C15        -4.9830  -21.7410   19.7550 C.3       1 NU5        -0.0477
     31 C14        -4.0310  -21.2700   18.6500 C.3       1 NU5        -0.0527
     32 C13        -2.5620  -21.5290   18.9600 C.3       1 NU5        -0.0530
     33 C12        -2.2300  -20.9160   20.3190 C.3       1 NU5        -0.0527
     34 C11        -2.9340  -21.6660   21.4450 C.3       1 NU5        -0.0477
     35 H1         -1.2127  -26.4575   26.7925 H         1 NU5         0.0556
     36 H2         -1.8741  -25.4827   25.4364 H         1 NU5         0.0556
     37 H3         -0.5083  -28.0719   24.7706 H         1 NU5         0.0830
     38 H4          0.5170  -26.6993   25.3105 H         1 NU5         0.0830
     39 H5         -1.1013  -25.5826   23.5854 H         1 NU5         0.2014
     40 H6         -0.9572  -27.0848   22.9281 H         1 NU5         0.2014
     41 H7          1.5742  -26.3500   23.4339 H         1 NU5         0.0814
     42 H8          0.7406  -24.8905   22.8002 H         1 NU5         0.0814
     43 H9          1.6015  -26.0134   20.8932 H         1 NU5         0.0339
     44 H10        -0.1547  -26.3896   20.9259 H         1 NU5         0.0339
     45 H11         2.0478  -28.2306   21.9856 H         1 NU5         0.0559
     46 H12         1.2745  -28.3722   20.3705 H         1 NU5         0.0559
     47 H13        -0.7479  -28.6367   21.4978 H         1 NU5         0.2094
     48 H14        -5.2834  -27.8256   26.9452 H         1 NU5         0.0605
     49 H15        -7.3930  -26.5909   26.6789 H         1 NU5         0.0534
     50 H16        -5.6033  -24.1181   23.6824 H         1 NU5         0.0534
     51 H17        -3.4777  -25.3616   23.9505 H         1 NU5         0.0605
     52 H18        -8.5898  -25.0000   25.7248 H         1 NU5         0.2150
     53 H19        -9.2065  -19.8637   21.3294 H         1 NU5         0.2354
     54 H20       -11.6281  -19.7984   22.2200 H         1 NU5         0.1396
     55 H21        -5.1454  -21.8131   23.2124 H         1 NU5         0.0627
     56 H22        -5.0689  -20.2605   22.3122 H         1 NU5         0.0627
     57 H23        -4.4955  -23.0785   21.3244 H         1 NU5         0.0327
     58 H24        -5.7683  -20.9770   19.8527 H         1 NU5         0.0269
     59 H25        -5.4312  -22.6862   19.4147 H         1 NU5         0.0269
     60 H26        -4.1710  -20.1882   18.5079 H         1 NU5         0.0265
     61 H27        -4.2887  -21.7984   17.7203 H         1 NU5         0.0265
     62 H28        -1.9335  -21.0686   18.1834 H         1 NU5         0.0265
     63 H29        -2.3755  -22.6127   18.9879 H         1 NU5         0.0265
     64 H30        -2.5554  -19.8653   20.3286 H         1 NU5         0.0265
     65 H31        -1.1429  -20.9647   20.4794 H         1 NU5         0.0265
     66 H32        -2.3995  -22.6126   21.6127 H         1 NU5         0.0269
     67 H33        -2.8803  -21.0486   22.3538 H         1 NU5         0.0269
@<TRIPOS>BOND
     1    1    2 2  
     2    2    3 2  
     3    2    4 1  
     4    2   11 1  
     5    4    5 1  
     6    5    6 1  
     7    6    7 1  
     8    7    8 1  
     9    8    9 1  
    10    9   10 1  
    11   11   12 ar 
    12   11   16 ar 
    13   12   13 ar 
    14   13   14 ar 
    15   14   15 ar 
    16   14   17 1  
    17   15   16 ar 
    18   17   18 1  
    19   18   19 ar 
    20   18   26 ar 
    21   19   20 ar 
    22   20   21 ar 
    23   20   27 1  
    24   21   22 1  
    25   21   25 ar 
    26   22   23 1  
    27   23   24 2  
    28   24   25 1  
    29   25   26 ar 
    30   27   28 1  
    31   28   29 1  
    32   29   30 1  
    33   29   34 1  
    34   30   31 1  
    35   31   32 1  
    36   32   33 1  
    37   33   34 1  
    38    4   35 1  
    39    4   36 1  
    40    5   37 1  
    41    5   38 1  
    42    6   39 1  
    43    6   40 1  
    44    7   41 1  
    45    7   42 1  
    46    8   43 1  
    47    8   44 1  
    48    9   45 1  
    49    9   46 1  
    50   10   47 1  
    51   12   48 1  
    52   13   49 1  
    53   15   50 1  
    54   16   51 1  
    55   17   52 1  
    56   22   53 1  
    57   23   54 1  
    58   28   55 1  
    59   28   56 1  
    60   29   57 1  
    61   30   58 1  
    62   30   59 1  
    63   31   60 1  
    64   31   61 1  
    65   32   62 1  
    66   32   63 1  
    67   33   64 1  
    68   33   65 1  
    69   34   66 1  
    70   34   67 1  
@<TRIPOS>SUBSTRUCTURE
     1 NU5         1

