### 
### Created by X-TOOL on Mon Sep 10 21:12:55 2018
### 

@<TRIPOS>MOLECULE
2gbi_ligand
   53    56     1     0     0
SMALL
GAST_HUCK


@<TRIPOS>ATOM
      1 C5         17.1300   40.5770  -80.0620 C.2       1 XIH         0.1484
      2 C6         17.2110   40.1610  -78.7820 C.2       1 XIH         0.1165
      3 C8         15.1770   39.5090  -79.4950 C.2       1 XIH         0.2135
      4 C10        12.9680   38.9270  -78.3020 C.3       1 XIH         0.0352
      5 C13        12.9190   36.8660  -80.4650 C.3       1 XIH        -0.0033
      6 C15        13.2730   38.3120  -80.7080 C.3       1 XIH         0.0774
      7 C17        15.3590   40.4480  -81.9090 C.3       1 XIH         0.0924
      8 C20        15.7010   39.2370  -85.4790 C.ar      1 XIH        -0.0597
      9 C21        16.1870   37.9290  -85.3660 C.ar      1 XIH        -0.0574
     10 C22        16.4340   37.3420  -84.1070 C.ar      1 XIH        -0.0333
     11 C24        16.4820   37.3370  -81.7400 C.1       1 XIH         0.0935
     12 C28        19.5390   41.1270  -78.5570 C.2       1 XIH         0.3173
     13 C          20.5480   42.2760  -80.5280 C.3       1 XIH         0.0473
     14 N          19.4080   41.5380  -79.8820 N.am      1 XIH        -0.1762
     15 C3         18.2960   41.3180  -80.6640 C.2       1 XIH         0.2185
     16 O          18.2060   41.6980  -81.8640 O.2       1 XIH        -0.4076
     17 N7         15.9680   39.4680  -78.4160 N.2       1 XIH        -0.2875
     18 N9         13.8260   38.9480  -79.5210 N.pl3     1 XIH        -0.2602
     19 C11        12.4510   37.4810  -78.0210 C.3       1 XIH        -0.0272
     20 C12        11.8970   36.7990  -79.2950 C.3       1 XIH        -0.0060
     21 N14        12.4350   36.2350  -81.7050 N.4       1 XIH         0.2222
     22 N16        15.7970   40.1570  -80.5530 N.pl3     1 XIH        -0.2210
     23 C18        15.6960   39.4350  -83.0060 C.ar      1 XIH         0.0213
     24 C19        15.4650   39.9700  -84.3080 C.ar      1 XIH        -0.0461
     25 C23        16.1950   38.0690  -82.9350 C.ar      1 XIH         0.0995
     26 N25        16.6160   36.7420  -80.7750 N.1       1 XIH        -0.3348
     27 N26        18.4430   40.4370  -78.0030 N.am      1 XIH        -0.2064
     28 C27        18.4940   39.9640  -76.6040 C.3       1 XIH         0.0445
     29 O29        20.5690   41.3330  -77.8680 O.2       1 XIH        -0.3874
     30 H1         12.1078   39.5957  -78.4534 H         1 XIH         0.0525
     31 H2         13.5557   39.2750  -77.4398 H         1 XIH         0.0525
     32 H3         13.8279   36.3306  -80.1531 H         1 XIH         0.0870
     33 H4         12.3644   38.8536  -81.0097 H         1 XIH         0.0581
     34 H5         14.0165   38.3639  -81.5170 H         1 XIH         0.0581
     35 H6         15.8111   41.4077  -82.1999 H         1 XIH         0.0787
     36 H7         14.2641   40.5510  -81.8841 H         1 XIH         0.0787
     37 H8         15.5110   39.6741  -86.4526 H         1 XIH         0.0671
     38 H9         16.3777   37.3547  -86.2654 H         1 XIH         0.0584
     39 H10        16.8093   36.3268  -84.0473 H         1 XIH         0.0699
     40 H11        21.3695   42.3871  -79.8049 H         1 XIH         0.0539
     41 H12        20.2056   43.2707  -80.8495 H         1 XIH         0.0539
     42 H13        20.9028   41.7101  -81.4020 H         1 XIH         0.0539
     43 H14        11.6494   37.5314  -77.2694 H         1 XIH         0.0287
     44 H15        13.2831   36.8773  -77.6297 H         1 XIH         0.0287
     45 H16        11.6789   35.7445  -79.0703 H         1 XIH         0.0321
     46 H17        10.9707   37.3082  -79.5994 H         1 XIH         0.0321
     47 H18        13.1417   36.3129  -82.4196 H         1 XIH         0.1997
     48 H19        11.5943   36.6987  -82.0120 H         1 XIH         0.1997
     49 H20        12.2380   35.2617  -81.5320 H         1 XIH         0.1997
     50 H21        15.0920   40.9841  -84.3952 H         1 XIH         0.0582
     51 H22        17.5527   39.4520  -76.3555 H         1 XIH         0.0549
     52 H23        18.6327   40.8232  -75.9313 H         1 XIH         0.0549
     53 H24        19.3345   39.2647  -76.4838 H         1 XIH         0.0549
@<TRIPOS>BOND
     1    1    2 2  
     2    1   15 1  
     3   22    1 1  
     4   17    2 1  
     5    2   27 1  
     6    3   17 2  
     7    3   18 1  
     8   22    3 1  
     9   18    4 1  
    10    4   19 1  
    11    6    5 1  
    12    5   20 1  
    13    5   21 1  
    14   18    6 1  
    15    7   22 1  
    16   23    7 1  
    17    8    9 ar 
    18   24    8 ar 
    19    9   10 ar 
    20   10   25 ar 
    21   25   11 1  
    22   11   26 3  
    23   14   12 am 
    24   27   12 am 
    25   12   29 2  
    26   14   13 1  
    27   15   14 am 
    28   15   16 2  
    29   19   20 1  
    30   23   24 ar 
    31   23   25 ar 
    32   27   28 1  
    33    4   30 1  
    34    4   31 1  
    35    5   32 1  
    36    6   33 1  
    37    6   34 1  
    38    7   35 1  
    39    7   36 1  
    40    8   37 1  
    41    9   38 1  
    42   10   39 1  
    43   13   40 1  
    44   13   41 1  
    45   13   42 1  
    46   19   43 1  
    47   19   44 1  
    48   20   45 1  
    49   20   46 1  
    50   21   47 1  
    51   21   48 1  
    52   21   49 1  
    53   24   50 1  
    54   28   51 1  
    55   28   52 1  
    56   28   53 1  
@<TRIPOS>SUBSTRUCTURE
     1 XIH         1

