### 
### Created by X-TOOL on Mon Sep 10 21:12:54 2018
### 

@<TRIPOS>MOLECULE
2gc8_ligand
   34    35     1     0     0
SMALL
GAST_HUCK


@<TRIPOS>ATOM
      1 C1          6.7990   43.0500   54.4950 C.3       1 885        -0.0365
      2 C2          7.4540   43.5210   53.2210 C.ar      1 885        -0.0429
      3 C3          8.6050   44.3390   53.3300 C.ar      1 885        -0.0446
      4 C4          9.2780   44.8240   52.1750 C.ar      1 885         0.1191
      5 C5          8.8090   44.5050   50.8520 C.ar      1 885         0.0557
      6 C6          7.6400   43.6870   50.7430 C.ar      1 885        -0.0353
      7 C7          6.9620   43.2010   51.9040 C.ar      1 885         0.0300
      8 CL          5.5500   42.2330   51.6510 Cl        1 885        -0.0804
      9 N1          9.4300   44.9510   49.6860 N.pl3     1 885        -0.3391
     10 S1         10.6940   45.8720   52.4530 S.o2      1 885         0.0673
     11 O1         10.2540   47.2250   52.1370 O.2       1 885        -0.1520
     12 O2         11.2330   45.5830   53.7710 O.2       1 885        -0.1520
     13 N2         11.8410   45.3750   51.2710 N.am      1 885        -0.2198
     14 C8         12.4760   44.0230   51.4280 C.3       1 885         0.0318
     15 C9         13.8930   44.3280   51.8810 C.3       1 885        -0.0325
     16 C10        14.2450   45.5630   51.0660 C.3       1 885        -0.0197
     17 C11        12.9470   46.3690   51.0060 C.3       1 885         0.0927
     18 C12        12.6050   47.0470   49.6610 C.2       1 885         0.0566
     19 O3         11.7970   46.4450   48.8900 O.co2     1 885        -0.5670
     20 O4         13.1770   48.1610   49.4910 O.co2     1 885        -0.5670
     21 H1          7.3648   43.4276   55.3595 H         1 885         0.0368
     22 H2          6.7874   41.9503   54.5165 H         1 885         0.0368
     23 H3          5.7671   43.4285   54.5385 H         1 885         0.0368
     24 H4          8.9802   44.6004   54.3128 H         1 885         0.0544
     25 H5          7.2609   43.4307   49.7603 H         1 885         0.0504
     26 H6         10.2725   45.5407   49.7444 H         1 885         0.1698
     27 H7          9.0463   44.6908   48.7662 H         1 885         0.1698
     28 H8         12.4805   43.4805   50.4711 H         1 885         0.0479
     29 H9         11.9441   43.4275   52.1846 H         1 885         0.0479
     30 H10        14.5717   43.4936   51.6502 H         1 885         0.0282
     31 H11        13.9276   44.5413   52.9596 H         1 885         0.0282
     32 H12        14.5735   45.2803   50.0550 H         1 885         0.0302
     33 H13        15.0387   46.1417   51.5611 H         1 885         0.0302
     34 H14        12.9758   47.1410   51.7890 H         1 885         0.0682
@<TRIPOS>BOND
     1    1    2 1  
     2    2    3 ar 
     3    2    7 ar 
     4    3    4 ar 
     5    4    5 ar 
     6    4   10 1  
     7    5    6 ar 
     8    5    9 1  
     9    6    7 ar 
    10    7    8 1  
    11   10   11 2  
    12   10   12 2  
    13   10   13 am 
    14   13   14 1  
    15   13   17 1  
    16   14   15 1  
    17   15   16 1  
    18   16   17 1  
    19   17   18 1  
    20   18   19 ar 
    21   18   20 ar 
    22    1   21 1  
    23    1   22 1  
    24    1   23 1  
    25    3   24 1  
    26    6   25 1  
    27    9   26 1  
    28    9   27 1  
    29   14   28 1  
    30   14   29 1  
    31   15   30 1  
    32   15   31 1  
    33   16   32 1  
    34   16   33 1  
    35   17   34 1  
@<TRIPOS>SUBSTRUCTURE
     1 885         1

