### 
### Created by X-TOOL on Mon Sep 10 21:12:54 2018
### 

@<TRIPOS>MOLECULE
2gcd_ligand
   62    69     1     0     0
SMALL
GAST_HUCK


@<TRIPOS>ATOM
      1 C1         50.3040   56.5340    3.5080 C.ar      1 STU        -0.0696
      2 C2         50.8970   57.7600    3.6300 C.ar      1 STU        -0.0759
      3 C3         50.3620   58.8870    3.0010 C.ar      1 STU        -0.0739
      4 C4         49.1880   58.7900    2.2170 C.ar      1 STU        -0.0408
      5 C5         48.5730   57.5210    2.0740 C.ar      1 STU         0.0695
      6 N6         47.4080   57.0880    1.3760 N.pl3     1 STU        -0.2292
      7 C7         47.3120   55.7080    1.5690 C.ar      1 STU         0.0978
      8 C8         46.3380   54.8060    1.1170 C.ar      1 STU         0.0952
      9 N9         45.2490   54.9700    0.3480 N.pl3     1 STU        -0.2376
     10 C10        44.5950   53.7720    0.1880 C.ar      1 STU         0.0681
     11 C11        43.4730   53.4330   -0.5360 C.ar      1 STU        -0.0404
     12 C12        43.1170   52.0490   -0.4960 C.ar      1 STU        -0.0732
     13 C13        43.8220   51.0700    0.2270 C.ar      1 STU        -0.0750
     14 C14        44.9750   51.3900    0.9140 C.ar      1 STU        -0.0685
     15 C15        45.3390   52.7680    0.8630 C.ar      1 STU        -0.0072
     16 C16        46.4370   53.4730    1.5050 C.ar      1 STU        -0.0018
     17 C17        47.5030   52.9960    2.3080 C.ar      1 STU         0.0320
     18 C18        47.8460   51.6470    2.8320 C.2       1 STU         0.1871
     19 N19        48.9840   51.7480    3.6020 N.am      1 STU        -0.2790
     20 C20        49.4910   53.1480    3.5980 C.3       1 STU         0.0603
     21 C21        48.4840   53.9090    2.7280 C.ar      1 STU        -0.0168
     22 C22        48.3680   55.2730    2.4030 C.ar      1 STU         0.0011
     23 C23        49.1680   56.4210    2.7270 C.ar      1 STU        -0.0075
     24 C24        46.3690   57.8040    0.5660 C.3       1 STU         0.2020
     25 C25        45.2440   58.1740    1.5710 C.3       1 STU         0.1556
     26 C26        43.8720   58.2270    0.8050 C.3       1 STU         0.0141
     27 C27        43.5290   56.7670    0.4440 C.3       1 STU         0.0455
     28 C28        44.7410   56.1840   -0.2990 C.3       1 STU         0.1668
     29 O29        45.8590   57.0510   -0.5390 O.3       1 STU        -0.3149
     30 O30        47.2230   50.6040    2.6690 O.2       1 STU        -0.3964
     31 N31        42.7720   59.0010    1.4850 N.4       1 STU         0.2291
     32 C32        41.4360   58.5830    0.8720 C.3       1 STU        -0.0445
     33 O33        45.0890   57.1480    2.5980 O.3       1 STU        -0.3686
     34 C34        45.6380   57.6520    3.8340 C.3       1 STU         0.0373
     35 C35        46.8520   59.1810    0.0540 C.3       1 STU        -0.0059
     36 H1         50.7159   55.6679    4.0132 H         1 STU         0.0566
     37 H2         51.7977   57.8592    4.2250 H         1 STU         0.0516
     38 H3         50.8521   59.8472    3.1149 H         1 STU         0.0561
     39 H4         48.7684   59.6665    1.7366 H         1 STU         0.0538
     40 H5         42.9008   54.1637   -1.0961 H         1 STU         0.0539
     41 H6         42.2466   51.7334   -1.0599 H         1 STU         0.0568
     42 H7         43.4546   50.0503    0.2447 H         1 STU         0.0516
     43 H8         45.5590   50.6512    1.4509 H         1 STU         0.0576
     44 H9         49.4094   50.9884    4.0940 H         1 STU         0.1863
     45 H10        50.4993   53.1967    3.1611 H         1 STU         0.0679
     46 H11        49.5133   53.5580    4.6185 H         1 STU         0.0679
     47 H12        45.4684   59.1457    2.0352 H         1 STU         0.0710
     48 H13        44.0538   58.7578   -0.1411 H         1 STU         0.0880
     49 H14        42.6406   56.7381   -0.2039 H         1 STU         0.0372
     50 H15        43.3345   56.1885    1.3592 H         1 STU         0.0372
     51 H16        44.3621   55.8927   -1.2897 H         1 STU         0.0933
     52 H17        42.9155   59.9891    1.3465 H         1 STU         0.2014
     53 H18        42.7722   58.7965    2.4720 H         1 STU         0.2014
     54 H19        40.6201   59.1389    1.3571 H         1 STU         0.0777
     55 H20        41.2849   57.5040    1.0230 H         1 STU         0.0777
     56 H21        41.4413   58.8053   -0.2053 H         1 STU         0.0777
     57 H22        45.5297   56.8908    4.6206 H         1 STU         0.0524
     58 H23        45.0989   58.5641    4.1297 H         1 STU         0.0524
     59 H24        46.7038   57.8852    3.6937 H         1 STU         0.0524
     60 H25        46.0507   59.6564   -0.5308 H         1 STU         0.0284
     61 H26        47.7390   59.0451   -0.5822 H         1 STU         0.0284
     62 H27        47.1097   59.8210    0.9107 H         1 STU         0.0284
@<TRIPOS>BOND
     1    1    2 ar 
     2    1   23 ar 
     3    2    3 ar 
     4    3    4 ar 
     5    4    5 ar 
     6    5    6 1  
     7    5   23 ar 
     8    6    7 1  
     9    6   24 1  
    10    7    8 ar 
    11    7   22 ar 
    12    8    9 1  
    13    8   16 ar 
    14    9   10 1  
    15    9   28 1  
    16   10   11 ar 
    17   10   15 ar 
    18   11   12 ar 
    19   12   13 ar 
    20   13   14 ar 
    21   14   15 ar 
    22   15   16 1  
    23   16   17 ar 
    24   17   18 1  
    25   17   21 ar 
    26   18   19 am 
    27   18   30 2  
    28   19   20 1  
    29   20   21 1  
    30   21   22 ar 
    31   22   23 1  
    32   24   25 1  
    33   24   29 1  
    34   24   35 1  
    35   25   26 1  
    36   25   33 1  
    37   26   27 1  
    38   26   31 1  
    39   27   28 1  
    40   28   29 1  
    41   31   32 1  
    42   33   34 1  
    43    1   36 1  
    44    2   37 1  
    45    3   38 1  
    46    4   39 1  
    47   11   40 1  
    48   12   41 1  
    49   13   42 1  
    50   14   43 1  
    51   19   44 1  
    52   20   45 1  
    53   20   46 1  
    54   25   47 1  
    55   26   48 1  
    56   27   49 1  
    57   27   50 1  
    58   28   51 1  
    59   31   52 1  
    60   31   53 1  
    61   32   54 1  
    62   32   55 1  
    63   32   56 1  
    64   34   57 1  
    65   34   58 1  
    66   34   59 1  
    67   35   60 1  
    68   35   61 1  
    69   35   62 1  
@<TRIPOS>SUBSTRUCTURE
     1 STU         1

