### 
### Created by X-TOOL on Mon Sep 10 21:12:55 2018
### 

@<TRIPOS>MOLECULE
2gd8_ligand
   58    61     1     0     0
SMALL
GAST_HUCK


@<TRIPOS>ATOM
      1 C1         -0.0580    8.8890   11.9170 C.ar      1 PO1         0.1397
      2 C2         -0.7450    8.9780   13.1530 C.ar      1 PO1         0.1085
      3 O2          2.5890    9.4290   12.6310 O.2       1 PO1        -0.1234
      4 S1          2.1890   10.2280   11.5220 S.o2      1 PO1         0.1753
      5 O1          2.6440    9.9240   10.2120 O.2       1 PO1        -0.1234
      6 N1          2.5120   11.7420   11.8410 N.am      1 PO1        -0.2385
      7 O3          0.5830   10.0720   11.4240 O.3       1 PO1        -0.1651
      8 C3         -1.3730    7.8210   13.6490 C.ar      1 PO1        -0.0456
      9 C4         -1.3520    6.5550   12.9750 C.ar      1 PO1        -0.0569
     10 C5         -0.6500    6.4970   11.7250 C.ar      1 PO1        -0.0599
     11 C6         -0.0110    7.6490   11.2080 C.ar      1 PO1        -0.0435
     12 O4         -0.8580   10.1200   13.9220 O.3       1 PO1        -0.3309
     13 C7         -0.1290   10.2340   15.1330 C.3       1 PO1         0.0553
     14 C8         -2.0400    5.3220   13.5740 C.3       1 PO1        -0.0140
     15 C9         -2.4130    4.2730   12.4590 C.3       1 PO1        -0.0262
     16 C10        -1.1590    3.9480   11.6180 C.3       1 PO1        -0.0410
     17 C11        -0.5640    5.1970   10.9220 C.3       1 PO1        -0.0287
     18 C12        -3.2820    5.7030   14.4500 C.3       1 PO1        -0.0422
     19 C13        -3.9730    4.4550   15.0820 C.3       1 PO1        -0.0432
     20 C14        -4.3470    3.4060   14.0390 C.3       1 PO1        -0.0002
     21 C15        -3.0710    3.0720   13.1900 C.3       1 PO1        -0.0285
     22 C16        -5.5810    3.9170   13.2430 C.3       1 PO1        -0.0569
     23 C17        -4.5510    1.9600   14.5510 C.3       1 PO1         0.0947
     24 C18        -4.5030    1.1010   13.2950 C.3       1 PO1        -0.0235
     25 C19        -3.5290    1.8400   12.3610 C.3       1 PO1        -0.0468
     26 O5         -5.8300    1.8250   15.2350 O.3       1 PO1        -0.2190
     27 S2         -5.8960    0.9570   16.5670 S.o2      1 PO1         0.1600
     28 O6         -7.2760    0.9830   16.9230 O.2       1 PO1        -0.1270
     29 O7         -4.9520    1.5590   17.4760 O.2       1 PO1        -0.1270
     30 N2         -5.4350   -0.4940   16.1730 N.am      1 PO1        -0.2415
     31 H1          3.4612   12.0405   11.9406 H         1 PO1         0.1657
     32 H2          1.7672   12.4014   11.9433 H         1 PO1         0.1657
     33 H3         -1.9020    7.8900   14.5927 H         1 PO1         0.0434
     34 H4          0.5196    7.5903   10.2645 H         1 PO1         0.0435
     35 H5         -0.3461   11.2052   15.6016 H         1 PO1         0.0570
     36 H6          0.9479   10.1618   14.9209 H         1 PO1         0.0570
     37 H7         -0.4234    9.4235   15.8159 H         1 PO1         0.0570
     38 H8         -1.3116    4.8395   14.2423 H         1 PO1         0.0427
     39 H9         -3.1607    4.7108   11.7813 H         1 PO1         0.0326
     40 H10        -1.4335    3.2132   10.8469 H         1 PO1         0.0288
     41 H11        -0.3938    3.5164   12.2800 H         1 PO1         0.0288
     42 H12         0.4971    4.9963   10.7131 H         1 PO1         0.0390
     43 H13        -1.1024    5.3467    9.9745 H         1 PO1         0.0390
     44 H14        -4.0126    6.2278   13.8169 H         1 PO1         0.0286
     45 H15        -2.9514    6.3707   15.2592 H         1 PO1         0.0286
     46 H16        -4.8878    4.7814   15.5983 H         1 PO1         0.0273
     47 H17        -3.2841    4.0002   15.8090 H         1 PO1         0.0273
     48 H18        -2.2950    2.7174   13.8843 H         1 PO1         0.0311
     49 H19        -6.4091    4.1169   13.9389 H         1 PO1         0.0236
     50 H20        -5.8902    3.1524   12.5152 H         1 PO1         0.0236
     51 H21        -5.3168    4.8433   12.7118 H         1 PO1         0.0236
     52 H22        -3.7416    1.6777   15.2404 H         1 PO1         0.0626
     53 H23        -5.5001    1.0261   12.8366 H         1 PO1         0.0291
     54 H24        -4.1296    0.0928   13.5273 H         1 PO1         0.0291
     55 H25        -2.6714    1.2002   12.1058 H         1 PO1         0.0269
     56 H26        -4.0373    2.1570   11.4385 H         1 PO1         0.0269
     57 H27        -5.4003   -1.2133   16.8668 H         1 PO1         0.1654
     58 H28        -5.1765   -0.6974   15.2286 H         1 PO1         0.1654
@<TRIPOS>BOND
     1    1    2 ar 
     2    7    1 1  
     3    1   11 ar 
     4    2    8 ar 
     5    2   12 1  
     6    4    3 2  
     7    4    5 2  
     8    4    6 am 
     9    4    7 1  
    10    8    9 ar 
    11    9   10 ar 
    12    9   14 1  
    13   10   11 ar 
    14   10   17 1  
    15   12   13 1  
    16   14   15 1  
    17   14   18 1  
    18   15   16 1  
    19   15   21 1  
    20   16   17 1  
    21   18   19 1  
    22   19   20 1  
    23   20   21 1  
    24   20   22 1  
    25   20   23 1  
    26   21   25 1  
    27   23   24 1  
    28   23   26 1  
    29   24   25 1  
    30   26   27 1  
    31   27   28 2  
    32   27   29 2  
    33   27   30 am 
    34    6   31 1  
    35    6   32 1  
    36    8   33 1  
    37   11   34 1  
    38   13   35 1  
    39   13   36 1  
    40   13   37 1  
    41   14   38 1  
    42   15   39 1  
    43   16   40 1  
    44   16   41 1  
    45   17   42 1  
    46   17   43 1  
    47   18   44 1  
    48   18   45 1  
    49   19   46 1  
    50   19   47 1  
    51   21   48 1  
    52   22   49 1  
    53   22   50 1  
    54   22   51 1  
    55   23   52 1  
    56   24   53 1  
    57   24   54 1  
    58   25   55 1  
    59   25   56 1  
    60   30   57 1  
    61   30   58 1  
@<TRIPOS>SUBSTRUCTURE
     1 PO1         1

