### 
### Created by X-TOOL on Mon Sep 10 21:12:56 2018
### 

@<TRIPOS>MOLECULE
2gde_ligand
   87    89     1     0     0
SMALL
GAST_HUCK


@<TRIPOS>ATOM
      1 C1         20.6550  -15.2220   18.4460 C.3       1 SN3         0.0815
      2 C2         21.1760  -14.0950   19.3760 C.3       1 SN3        -0.0193
      3 C3         20.2190  -13.5570   20.4370 C.3       1 SN3        -0.0109
      4 C4         19.1840  -14.5650   20.9690 C.3       1 SN3         0.0534
      5 C5         18.6110  -15.5450   19.9140 C.3       1 SN3        -0.0007
      6 C6         19.7530  -16.2550   19.1810 C.3       1 SN3         0.0832
      7 O7         20.4820  -17.0490   20.1390 O.3       1 SN3        -0.3892
      8 N8         18.1550  -13.6680   21.5580 N.am      1 SN3        -0.2464
      9 C9         18.1900  -12.3790   20.8640 C.3       1 SN3         0.1342
     10 C10        19.3180  -12.4730   19.8170 C.3       1 SN3        -0.0072
     11 C11        16.8780  -12.1300   20.1530 C.2       1 SN3         0.2020
     12 N12        16.3650  -10.8720   20.1540 N.am      1 SN3        -0.2832
     13 C13        15.0980  -10.6020   19.4490 C.3       1 SN3         0.0392
     14 C14        14.2810   -9.6110   20.2700 C.3       1 SN3        -0.0047
     15 C15        13.5580  -10.3830   21.3480 C.2       1 SN3        -0.0398
     16 C16        12.9610   -9.7310   22.5500 C.3       1 SN3         0.0911
     17 N17        12.2090  -10.7550   23.2710 N.pl3     1 SN3        -0.2451
     18 C18        12.6070  -12.0340   22.6700 C.3       1 SN3         0.0736
     19 C19        13.3880  -11.6830   21.4220 C.2       1 SN3        -0.0694
     20 C20        11.3470  -10.5390   24.2380 C.cat     1 SN3         0.2933
     21 N21        10.6640  -11.5920   24.8210 N.pl3     1 SN3        -0.2845
     22 N22        11.0860   -9.2630   24.6530 N.pl3     1 SN3        -0.2845
     23 O23        16.3050  -13.0560   19.5820 O.2       1 SN3        -0.3945
     24 C24        17.3320  -13.9710   22.5800 C.2       1 SN3         0.2081
     25 O25        16.5600  -13.1120   22.9460 O.2       1 SN3        -0.3941
     26 C26        17.3660  -15.3270   23.2710 C.3       1 SN3         0.1475
     27 C27        17.7450  -15.1150   24.7500 C.3       1 SN3         0.0764
     28 C28        17.7410  -16.4080   25.5710 C.3       1 SN3        -0.0261
     29 C29        18.6580  -17.5010   24.9920 C.3       1 SN3        -0.0611
     30 C30        18.1580  -16.0490   26.9950 C.3       1 SN3        -0.0611
     31 CL31       19.3340  -14.2690   24.8190 Cl        1 SN3        -0.1165
     32 N32        16.0430  -15.9480   23.2410 N.am      1 SN3        -0.2620
     33 C33        15.7690  -17.0330   22.4770 C.2       1 SN3         0.2098
     34 C34        14.3890  -17.6150   22.5220 C.3       1 SN3         0.1720
     35 O35        13.4510  -16.6030   22.9250 O.3       1 SN3        -0.3571
     36 C36        12.9280  -15.8390   21.8240 C.3       1 SN3         0.0399
     37 C37        14.4110  -18.8270   23.4710 C.3       1 SN3         0.1170
     38 O38        14.4860  -18.4670   24.8620 O.3       1 SN3        -0.2607
     39 S39        15.0530  -19.5630   25.7960 S.o2      1 SN3        -0.0735
     40 O40        15.2210  -19.0100   27.0920 O.co2     1 SN3        -0.4611
     41 O41        13.9750  -20.6200   26.0320 O.co2     1 SN3        -0.4611
     42 O42        16.1130  -20.1720   25.0540 O.co2     1 SN3        -0.4611
     43 O43        16.6010  -17.5480   21.7500 O.2       1 SN3        -0.3940
     44 O46        19.9940  -14.6320   17.3100 O.3       1 SN3        -0.3892
     45 H1         21.5311  -15.7725   18.0726 H         1 SN3         0.0619
     46 H2         21.4681  -13.2490   18.7366 H         1 SN3         0.0294
     47 H3         22.0628  -14.4829   19.8987 H         1 SN3         0.0294
     48 H4         20.8126  -13.1528   21.2702 H         1 SN3         0.0326
     49 H5         19.6433  -15.1740   21.7615 H         1 SN3         0.0564
     50 H6         18.0053  -14.9839   19.1872 H         1 SN3         0.0313
     51 H7         17.9806  -16.2932   20.4168 H         1 SN3         0.0313
     52 H8         19.3247  -16.9298   18.4252 H         1 SN3         0.0620
     53 H9         21.1954  -17.4970   19.6998 H         1 SN3         0.2099
     54 H10        18.3896  -11.5655   21.5770 H         1 SN3         0.0802
     55 H11        18.9309  -12.7845   18.8356 H         1 SN3         0.0316
     56 H12        19.8518  -11.5168   19.7139 H         1 SN3         0.0316
     57 H13        16.8434  -10.1338   20.6297 H         1 SN3         0.1853
     58 H14        14.5334  -11.5387   19.3313 H         1 SN3         0.0542
     59 H15        15.3101  -10.1747   18.4578 H         1 SN3         0.0542
     60 H16        13.5519   -9.1016   19.6228 H         1 SN3         0.0431
     61 H17        14.9482   -8.8660   20.7280 H         1 SN3         0.0431
     62 H18        12.2883   -8.9171   22.2417 H         1 SN3         0.0841
     63 H19        13.7565   -9.3258   23.1926 H         1 SN3         0.0841
     64 H20        11.7180  -12.6274   22.4103 H         1 SN3         0.0766
     65 H21        13.2376  -12.6044   23.3677 H         1 SN3         0.0766
     66 H22        13.7552  -12.4031   20.6922 H         1 SN3         0.0277
     67 H23         9.9900  -11.4121   25.5788 H         1 SN3         0.2615
     68 H24        10.8297  -12.5556   24.4971 H         1 SN3         0.2615
     69 H25        11.5873   -8.4703   24.2273 H         1 SN3         0.2615
     70 H26        10.3880   -9.0942   25.3914 H         1 SN3         0.2615
     71 H27        18.1003  -15.9798   22.7763 H         1 SN3         0.0815
     72 H28        16.9896  -14.4509   25.1954 H         1 SN3         0.0516
     73 H29        16.7153  -16.8050   25.5890 H         1 SN3         0.0312
     74 H30        18.6069  -18.3972   25.6278 H         1 SN3         0.0233
     75 H31        19.6938  -17.1321   24.9609 H         1 SN3         0.0233
     76 H32        18.3284  -17.7547   23.9737 H         1 SN3         0.0233
     77 H33        17.4899  -15.2679   27.3868 H         1 SN3         0.0233
     78 H34        19.1934  -15.6778   26.9913 H         1 SN3         0.0233
     79 H35        18.0911  -16.9426   27.6330 H         1 SN3         0.0233
     80 H36        15.3144  -15.5583   23.8043 H         1 SN3         0.1884
     81 H37        14.1096  -17.9630   21.5166 H         1 SN3         0.0864
     82 H38        12.2204  -15.0869   22.2030 H         1 SN3         0.0526
     83 H39        12.4090  -16.5112   21.1249 H         1 SN3         0.0526
     84 H40        13.7546  -15.3346   21.3022 H         1 SN3         0.0526
     85 H41        15.2860  -19.4463   23.2243 H         1 SN3         0.0635
     86 H42        13.4922  -19.4104   23.3117 H         1 SN3         0.0635
     87 H43        20.5785  -14.0101   16.8927 H         1 SN3         0.2099
@<TRIPOS>BOND
     1    1    2 1  
     2    1    6 1  
     3    1   44 1  
     4    2    3 1  
     5    3    4 1  
     6    3   10 1  
     7    4    5 1  
     8    4    8 1  
     9    5    6 1  
    10    6    7 1  
    11    8    9 1  
    12    8   24 am 
    13    9   10 1  
    14    9   11 1  
    15   11   12 am 
    16   11   23 2  
    17   12   13 1  
    18   13   14 1  
    19   14   15 1  
    20   15   16 1  
    21   15   19 2  
    22   16   17 1  
    23   17   18 1  
    24   17   20 ar 
    25   18   19 1  
    26   20   21 ar 
    27   20   22 ar 
    28   24   25 2  
    29   24   26 1  
    30   26   27 1  
    31   26   32 1  
    32   27   28 1  
    33   27   31 1  
    34   28   29 1  
    35   28   30 1  
    36   32   33 am 
    37   33   34 1  
    38   33   43 2  
    39   34   35 1  
    40   34   37 1  
    41   35   36 1  
    42   37   38 1  
    43   38   39 1  
    44   39   40 ar 
    45   39   41 ar 
    46   39   42 ar 
    47    1   45 1  
    48    2   46 1  
    49    2   47 1  
    50    3   48 1  
    51    4   49 1  
    52    5   50 1  
    53    5   51 1  
    54    6   52 1  
    55    7   53 1  
    56    9   54 1  
    57   10   55 1  
    58   10   56 1  
    59   12   57 1  
    60   13   58 1  
    61   13   59 1  
    62   14   60 1  
    63   14   61 1  
    64   16   62 1  
    65   16   63 1  
    66   18   64 1  
    67   18   65 1  
    68   19   66 1  
    69   21   67 1  
    70   21   68 1  
    71   22   69 1  
    72   22   70 1  
    73   26   71 1  
    74   27   72 1  
    75   28   73 1  
    76   29   74 1  
    77   29   75 1  
    78   29   76 1  
    79   30   77 1  
    80   30   78 1  
    81   30   79 1  
    82   32   80 1  
    83   34   81 1  
    84   36   82 1  
    85   36   83 1  
    86   36   84 1  
    87   37   85 1  
    88   37   86 1  
    89   44   87 1  
@<TRIPOS>SUBSTRUCTURE
     1 SN3         1

