### 
### Created by X-TOOL on Mon Sep 10 21:12:56 2018
### 

@<TRIPOS>MOLECULE
2gdo_ligand
   53    58     1     0     0
SMALL
GAST_HUCK


@<TRIPOS>ATOM
      1 C1          4.9190   -1.4740   46.0170 C.ar      1 12C         0.0531
      2 C2          5.7240   -2.3230   45.2280 C.ar      1 12C        -0.0386
      3 C3          7.0500   -2.0020   44.9310 C.ar      1 12C         0.0335
      4 CL          7.9820   -3.0800   43.9710 Cl        1 12C        -0.0814
      5 C4          7.6190   -0.8190   45.4080 C.ar      1 12C        -0.0532
      6 C5          6.8460    0.0470   46.2000 C.ar      1 12C        -0.0285
      7 C6          5.5110   -0.2840   46.4980 C.ar      1 12C         0.0954
      8 N1          4.7610    0.5870   47.3010 N.am      1 12C        -0.2297
      9 C7          3.4510    0.3510   47.6640 C.2       1 12C         0.2068
     10 O1          2.8410    1.1550   48.3750 O.2       1 12C        -0.4103
     11 C8          2.8010   -0.9050   47.1480 C.2       1 12C         0.1107
     12 C9          1.4280   -1.2210   47.4900 C.2       1 12C         0.1168
     13 C10         3.5020   -1.7810   46.3620 C.2       1 12C         0.0852
     14 N2          2.8960   -2.9400   45.8680 N.pl3     1 12C        -0.2955
     15 C11         2.8120   -3.5020   44.5280 C.3       1 12C         0.0859
     16 N3          0.6910   -2.2720   47.1330 N.pl3     1 12C        -0.2586
     17 C12        -0.5410   -2.0940   47.7090 C.ar      1 12C         0.0743
     18 C13        -0.5810   -0.9050   48.4350 C.ar      1 12C         0.0168
     19 N4          0.6740   -0.3690   48.2810 N.2       1 12C        -0.3319
     20 C14        -1.6910   -2.9130   47.6500 C.ar      1 12C        -0.0432
     21 C15        -2.8470   -2.5020   48.3340 C.ar      1 12C        -0.0775
     22 C16        -2.8590   -1.3000   49.0600 C.ar      1 12C        -0.0795
     23 C17        -1.7210   -0.4710   49.1290 C.ar      1 12C        -0.0665
     24 C18         1.4170   -3.1860   43.9150 C.3       1 12C        -0.0071
     25 N5          0.7180   -4.4950   43.5420 N.4       1 12C         0.2370
     26 C19         1.5400   -5.2440   42.5060 C.3       1 12C        -0.0315
     27 C20         2.9130   -5.5700   43.1130 C.3       1 12C        -0.0071
     28 C21         0.5150   -5.3690   44.7760 C.3       1 12C        -0.0315
     29 C22         1.8830   -5.6980   45.3820 C.3       1 12C        -0.0071
     30 C23         3.0100   -5.0400   44.5640 C.3       1 12C        -0.0025
     31 H1          5.3034   -3.2453   44.8438 H         1 12C         0.0653
     32 H2          8.6470   -0.5713   45.1696 H         1 12C         0.0641
     33 H3          7.2764    0.9665   46.5800 H         1 12C         0.0535
     34 H4          5.1991    1.4243   47.6282 H         1 12C         0.2365
     35 H5          2.4193   -3.5019   46.5877 H         1 12C         0.1907
     36 H6          3.5960   -3.0522   43.9012 H         1 12C         0.0625
     37 H7          0.9876   -3.0615   46.5418 H         1 12C         0.2257
     38 H8         -1.6813   -3.8400   47.0881 H         1 12C         0.0534
     39 H9         -3.7381   -3.1184   48.3011 H         1 12C         0.0523
     40 H10        -3.7633   -1.0031   49.5788 H         1 12C         0.0513
     41 H11        -1.7262    0.4562   49.6905 H         1 12C         0.0525
     42 H12         1.5434   -2.5678   43.0140 H         1 12C         0.0838
     43 H13         0.8075   -2.6412   44.6510 H         1 12C         0.0838
     44 H14        -0.1840   -4.2786   43.1476 H         1 12C         0.2034
     45 H15         1.6696   -4.6169   41.6116 H         1 12C         0.0814
     46 H16         1.0265   -6.1764   42.2288 H         1 12C         0.0814
     47 H17         3.6982   -5.0990   42.5034 H         1 12C         0.0320
     48 H18         3.0563   -6.6606   43.1167 H         1 12C         0.0320
     49 H19         0.0048   -6.3003   44.4890 H         1 12C         0.0814
     50 H20        -0.0957   -4.8290   45.5145 H         1 12C         0.0814
     51 H21         2.0257   -6.7887   45.3820 H         1 12C         0.0320
     52 H22         1.9203   -5.3233   46.4155 H         1 12C         0.0320
     53 H23         3.9892   -5.2857   45.0009 H         1 12C         0.0330
@<TRIPOS>BOND
     1    1    2 ar 
     2    1    7 ar 
     3    1   13 1  
     4    2    3 ar 
     5    3    4 1  
     6    3    5 ar 
     7    5    6 ar 
     8    6    7 ar 
     9    7    8 1  
    10    8    9 am 
    11    9   10 2  
    12    9   11 1  
    13   11   12 1  
    14   11   13 2  
    15   12   16 1  
    16   12   19 2  
    17   13   14 1  
    18   14   15 1  
    19   15   24 1  
    20   15   30 1  
    21   16   17 1  
    22   17   18 ar 
    23   17   20 ar 
    24   18   19 1  
    25   18   23 ar 
    26   20   21 ar 
    27   21   22 ar 
    28   22   23 ar 
    29   24   25 1  
    30   25   26 1  
    31   25   28 1  
    32   26   27 1  
    33   27   30 1  
    34   28   29 1  
    35   29   30 1  
    36    2   31 1  
    37    5   32 1  
    38    6   33 1  
    39    8   34 1  
    40   14   35 1  
    41   15   36 1  
    42   16   37 1  
    43   20   38 1  
    44   21   39 1  
    45   22   40 1  
    46   23   41 1  
    47   24   42 1  
    48   24   43 1  
    49   25   44 1  
    50   26   45 1  
    51   26   46 1  
    52   27   47 1  
    53   27   48 1  
    54   28   49 1  
    55   28   50 1  
    56   29   51 1  
    57   29   52 1  
    58   30   53 1  
@<TRIPOS>SUBSTRUCTURE
     1 12C         1

