### 
### Created by X-TOOL on Mon Sep 10 21:12:56 2018
### 

@<TRIPOS>MOLECULE
2gfd_ligand
   44    45     1     0     0
SMALL
GAST_HUCK


@<TRIPOS>ATOM
      1 C7       -118.6280  -41.6200   54.6740 C.3       1 RDA         0.0640
      2 O4       -118.5140  -40.2690   54.2170 O.3       1 RDA        -0.2852
      3 C6       -119.6170  -39.9090   53.5060 C.2       1 RDA         0.2442
      4 O3       -120.0490  -40.6550   52.6290 O.2       1 RDA        -0.3727
      5 C5       -120.3100  -38.5730   53.7910 C.ar      1 RDA         0.0814
      6 C4       -120.7200  -37.8030   52.7060 C.ar      1 RDA         0.0967
      7 O2       -120.4820  -38.2280   51.4370 O.3       1 RDA        -0.3314
      8 C3       -121.3760  -36.5940   52.9100 C.ar      1 RDA        -0.0048
      9 C2       -121.6180  -36.1670   54.2110 C.ar      1 RDA         0.0927
     10 O1       -122.2270  -34.9700   54.4230 O.3       1 RDA        -0.3331
     11 C1       -121.2090  -36.9500   55.2870 C.ar      1 RDA         0.0633
     12 CL       -121.6060  -36.4140   56.8840 Cl        1 RDA        -0.0937
     13 C8       -120.5420  -38.1610   55.1020 C.ar      1 RDA        -0.0208
     14 C9       -120.0600  -38.9960   56.2930 C.3       1 RDA        -0.0016
     15 C10      -118.6730  -38.5490   56.7640 C.3       1 RDA         0.0560
     16 C11      -117.9960  -39.6180   57.6260 C.2       1 RDA         0.2167
     17 O5       -116.8920  -40.0690   57.3230 O.2       1 RDA        -0.3787
     18 N1       -118.6940  -40.0290   58.6810 N.am      1 RDA        -0.2138
     19 C12      -118.7380  -39.3410   59.8200 C.2       1 RDA         0.1354
     20 C18      -119.5180  -38.1920   59.9110 C.2       1 RDA         0.0122
     21 C17      -119.6320  -37.5170   61.1220 C.2       1 RDA         0.1684
     22 O8       -120.3040  -36.4900   61.1880 O.2       1 RDA        -0.3753
     23 C15      -118.9710  -37.9890   62.2520 C.2       1 RDA         0.1580
     24 O7       -119.1550  -37.3410   63.4350 O.3       1 RDA        -0.3001
     25 C16      -118.5020  -37.7820   64.6300 C.3       1 RDA         0.0660
     26 C14      -118.1810  -39.1320   62.1590 C.2       1 RDA         0.0292
     27 C13      -118.0640  -39.8060   60.9460 C.2       1 RDA         0.1776
     28 O6       -117.3610  -40.8120   60.8740 O.2       1 RDA        -0.3645
     29 H        -119.5064  -41.7133   55.3126 H         1 RDA         0.0574
     30 H        -118.7285  -42.2851   53.8163 H         1 RDA         0.0574
     31 H        -117.7357  -41.8873   55.2400 H         1 RDA         0.0574
     32 H        -120.8270  -37.5835   50.8149 H         1 RDA         0.2508
     33 H        -121.6962  -35.9892   52.0616 H         1 RDA         0.0423
     34 H        -121.6947  -34.2691   54.0397 H         1 RDA         0.2502
     35 H        -120.0007  -40.0393   55.9829 H         1 RDA         0.0464
     36 H        -120.7636  -38.8648   57.1151 H         1 RDA         0.0464
     37 H        -118.7884  -37.6464   57.3640 H         1 RDA         0.0535
     38 H        -118.0524  -38.3724   55.8855 H         1 RDA         0.0535
     39 H        -119.2148  -40.9035   58.6150 H         1 RDA         0.2405
     40 H        -120.0414  -37.8197   59.0303 H         1 RDA         0.0333
     41 H        -118.8059  -38.8049   64.8522 H         1 RDA         0.0592
     42 H        -117.4220  -37.7453   64.4871 H         1 RDA         0.0592
     43 H        -118.7826  -37.1304   65.4575 H         1 RDA         0.0592
     44 H        -117.6526  -39.5003   63.0384 H         1 RDA         0.0471
@<TRIPOS>BOND
     1    1    2 1  
     2    2    3 1  
     3    3    4 2  
     4    3    5 1  
     5    5    6 ar 
     6    5   13 ar 
     7    6    7 1  
     8    6    8 ar 
     9    8    9 ar 
    10    9   10 1  
    11    9   11 ar 
    12   11   12 1  
    13   11   13 ar 
    14   13   14 1  
    15   14   15 1  
    16   15   16 1  
    17   16   17 2  
    18   16   18 am 
    19   18   19 1  
    20   19   20 2  
    21   19   27 1  
    22   20   21 1  
    23   21   22 2  
    24   21   23 1  
    25   23   24 1  
    26   23   26 2  
    27   24   25 1  
    28   26   27 1  
    29   27   28 2  
    30    1   29 1  
    31    1   30 1  
    32    1   31 1  
    33    7   32 1  
    34    8   33 1  
    35   10   34 1  
    36   14   35 1  
    37   14   36 1  
    38   15   37 1  
    39   15   38 1  
    40   18   39 1  
    41   20   40 1  
    42   25   41 1  
    43   25   42 1  
    44   25   43 1  
    45   26   44 1  
@<TRIPOS>SUBSTRUCTURE
     1 RDA         1

