### 
### Created by X-TOOL on Mon Sep 10 21:12:55 2018
### 

@<TRIPOS>MOLECULE
2gfj_ligand
   33    35     1     0     0
SMALL
GAST_HUCK


@<TRIPOS>ATOM
      1 O23        12.4780   31.0510   35.1110 O.co2     1 VI         -0.5571
      2 C18        12.0640   29.8830   34.8820 C.2       1 VI          0.0994
      3 O22        11.9440   29.0270   35.7790 O.co2     1 VI         -0.5571
      4 C4         11.7850   29.4230   33.5030 C.2       1 VI          0.1535
      5 N5         10.9860   28.4660   33.0280 N.pl3     1 VI         -0.1442
      6 C6         10.0670   27.8010   33.7410 C.ar      1 VI          0.1161
      7 C11         9.0650   28.5850   34.3690 C.ar      1 VI         -0.0240
      8 C10         8.0160   28.0850   35.1210 C.ar      1 VI         -0.0650
      9 C9          7.8970   26.7000   35.2070 C.ar      1 VI         -0.0680
     10 C8          8.8330   25.8650   34.5680 C.ar      1 VI         -0.0650
     11 C7          9.9080   26.4030   33.8350 C.ar      1 VI         -0.0240
     12 N1         10.9780   28.3080   31.6470 N.2       1 VI         -0.1873
     13 C3         12.4890   29.8980   32.2890 C.2       1 VI          0.0512
     14 C19        13.4750   31.0020   32.2290 C.2       1 VI          0.0495
     15 O21        13.0210   32.1840   31.9380 O.co2     1 VI         -0.5681
     16 O20        14.6540   30.8140   32.5000 O.co2     1 VI         -0.5681
     17 C2         11.8950   29.1460   31.1380 C.2       1 VI          0.0598
     18 C12        12.1690   29.2540   29.6870 C.ar      1 VI         -0.0107
     19 C17        11.2880   28.5760   28.8260 C.ar      1 VI         -0.0544
     20 C16        11.4740   28.6660   27.4410 C.ar      1 VI         -0.0618
     21 C15        12.5130   29.4400   26.9410 C.ar      1 VI         -0.0623
     22 C14        13.3880   30.1140   27.8060 C.ar      1 VI         -0.0618
     23 C13        13.2090   30.0240   29.1850 C.ar      1 VI         -0.0544
     24 H1          9.1258   29.6608   34.2505 H         1 VI          0.0593
     25 H2          7.3162   28.7440   35.6221 H         1 VI          0.0602
     26 H3          7.0795   26.2628   35.7688 H         1 VI          0.0564
     27 H4          8.7242   24.7890   34.6416 H         1 VI          0.0602
     28 H5         10.6132   25.7428   33.3431 H         1 VI          0.0593
     29 H6         10.4718   27.9887   29.2309 H         1 VI          0.0618
     30 H7         10.8127   28.1361   26.7650 H         1 VI          0.0616
     31 H8         12.6496   29.5244   25.8690 H         1 VI          0.0613
     32 H9         14.2026   30.7042   27.4020 H         1 VI          0.0616
     33 H10        13.8754   30.5501   29.8590 H         1 VI          0.0618
@<TRIPOS>BOND
     1    1    2 ar 
     2    2    3 ar 
     3    2    4 1  
     4    4    5 1  
     5    4   13 2  
     6    5    6 1  
     7    5   12 1  
     8    6    7 ar 
     9    6   11 ar 
    10    7    8 ar 
    11    8    9 ar 
    12    9   10 ar 
    13   10   11 ar 
    14   12   17 2  
    15   13   14 1  
    16   13   17 1  
    17   14   15 ar 
    18   14   16 ar 
    19   17   18 1  
    20   18   19 ar 
    21   18   23 ar 
    22   19   20 ar 
    23   20   21 ar 
    24   21   22 ar 
    25   22   23 ar 
    26    7   24 1  
    27    8   25 1  
    28    9   26 1  
    29   10   27 1  
    30   11   28 1  
    31   19   29 1  
    32   20   30 1  
    33   21   31 1  
    34   22   32 1  
    35   23   33 1  
@<TRIPOS>SUBSTRUCTURE
     1 VI          1

