### 
### Created by X-TOOL on Mon Sep 10 21:12:55 2018
### 

@<TRIPOS>MOLECULE
2gfk_ligand
   33    35     1     0     0
SMALL
GAST_HUCK


@<TRIPOS>ATOM
      1 C17        11.2400   28.2760   28.7780 C.ar      1 VII        -0.0527
      2 C16        11.4360   28.2790   27.4010 C.ar      1 VII        -0.0627
      3 C15        12.4160   29.0900   26.8580 C.ar      1 VII        -0.0633
      4 C14        13.2170   29.8900   27.6780 C.ar      1 VII        -0.0627
      5 C13        13.0310   29.8870   29.0550 C.ar      1 VII        -0.0527
      6 C12        12.0460   29.0760   29.6060 C.ar      1 VII         0.0160
      7 C10        11.7550   29.0400   31.0550 C.2       1 VII         0.1429
      8 O11        10.7840   28.2380   31.5790 O.3       1 VII        -0.2441
      9 C9         12.3190   29.7960   32.2030 C.2       1 VII         0.0366
     10 C18        13.3380   30.8710   32.1430 C.2       1 VII         0.0491
     11 O22        14.5280   30.6640   32.4130 O.co2     1 VII        -0.5671
     12 O23        12.9020   32.0130   31.8010 O.co2     1 VII        -0.5671
     13 C8         11.5530   29.3710   33.3940 C.2       1 VII         0.0366
     14 C19        11.7760   29.8550   34.7750 C.2       1 VII         0.0491
     15 O20        11.5900   29.0900   35.7560 O.co2     1 VII        -0.5671
     16 O21        12.1760   31.0290   34.8890 O.co2     1 VII        -0.5671
     17 C7         10.6220   28.3330   32.9250 C.2       1 VII         0.1429
     18 C1          9.5780   27.5350   33.6010 C.ar      1 VII         0.0160
     19 C6          8.7430   28.1630   34.5270 C.ar      1 VII        -0.0527
     20 C5          7.7250   27.4190   35.1230 C.ar      1 VII        -0.0627
     21 C4          7.5430   26.0920   34.7420 C.ar      1 VII        -0.0633
     22 C3          8.3650   25.4720   33.7980 C.ar      1 VII        -0.0627
     23 C2          9.3860   26.2100   33.1970 C.ar      1 VII        -0.0527
     24 H1         10.4646   27.6559   29.2131 H         1 VII         0.0613
     25 H2         10.8269   27.6521   26.7599 H         1 VII         0.0613
     26 H3         12.5646   29.1054   25.7843 H         1 VII         0.0605
     27 H4         13.9859   30.5148   27.2382 H         1 VII         0.0613
     28 H5         13.6474   30.5104   29.6925 H         1 VII         0.0613
     29 H6          8.8831   29.2082   34.7778 H         1 VII         0.0613
     30 H7          7.0838   27.8678   35.8730 H         1 VII         0.0613
     31 H8          6.7381   25.5223   35.1921 H         1 VII         0.0605
     32 H9          8.2120   24.4314   33.5356 H         1 VII         0.0613
     33 H10        10.0158   25.7662   32.4344 H         1 VII         0.0613
@<TRIPOS>BOND
     1    1    2 ar 
     2    1    6 ar 
     3    2    3 ar 
     4    3    4 ar 
     5    4    5 ar 
     6    5    6 ar 
     7    6    7 1  
     8    7    8 1  
     9    7    9 2  
    10    8   17 1  
    11    9   10 1  
    12    9   13 1  
    13   10   11 ar 
    14   10   12 ar 
    15   13   14 1  
    16   13   17 2  
    17   14   15 ar 
    18   14   16 ar 
    19   17   18 1  
    20   18   19 ar 
    21   18   23 ar 
    22   19   20 ar 
    23   20   21 ar 
    24   21   22 ar 
    25   22   23 ar 
    26    1   24 1  
    27    2   25 1  
    28    3   26 1  
    29    4   27 1  
    30    5   28 1  
    31   19   29 1  
    32   20   30 1  
    33   21   31 1  
    34   22   32 1  
    35   23   33 1  
@<TRIPOS>SUBSTRUCTURE
     1 VII         1

