### 
### Created by X-TOOL on Mon Sep 10 21:12:54 2018
### 

@<TRIPOS>MOLECULE
2gfs_ligand
   45    47     1     0     0
SMALL
GAST_HUCK


@<TRIPOS>ATOM
      1 N1         19.8940    9.3090   30.8900 N.pl3     1 PQB        -0.2994
      2 C2         20.5990   10.4490   31.1270 C.2       1 PQB         0.1943
      3 C3         21.9790   10.4980   31.2180 C.2       1 PQB         0.0655
      4 C4         22.2960   11.8420   31.4630 C.2       1 PQB        -0.0050
      5 N5         21.1400   12.5810   31.5100 N.2       1 PQB        -0.2217
      6 N6         20.1010   11.6670   31.2890 N.pl3     1 PQB        -0.1386
      7 C7         18.8050   12.0180   31.2720 C.ar      1 PQB         0.1080
      8 C8         17.8810   11.5120   32.1930 C.ar      1 PQB        -0.0282
      9 C9         16.5340   11.8780   32.1970 C.ar      1 PQB        -0.0327
     10 C10        16.0590   12.7870   31.2580 C.ar      1 PQB         0.1245
     11 F11        14.7570   13.1470   31.2450 F         1 PQB        -0.1896
     12 C12        16.9490   13.3080   30.3290 C.ar      1 PQB        -0.0327
     13 C13        18.2920   12.9330   30.3450 C.ar      1 PQB        -0.0282
     14 C14        22.8390    9.2830   31.0760 C.2       1 PQB         0.1241
     15 O15        22.3420    8.1870   30.8720 O.2       1 PQB        -0.3957
     16 C16        24.3390    9.3690   31.1760 C.ar      1 PQB         0.0156
     17 C17        25.0490   10.3510   30.4840 C.ar      1 PQB        -0.0556
     18 C18        26.4390   10.4060   30.5830 C.ar      1 PQB        -0.0650
     19 C19        27.1160    9.4720   31.3630 C.ar      1 PQB        -0.0288
     20 C20        26.4120    8.4810   32.0430 C.ar      1 PQB         0.0964
     21 O21        27.0850    7.5590   32.8100 O.3       1 PQB        -0.3144
     22 C22        26.5580    7.1420   34.0750 C.3       1 PQB         0.0985
     23 C23        27.6440    6.4440   34.8830 C.3       1 PQB         0.1057
     24 O25        28.4770    7.4260   35.5090 O.3       1 PQB        -0.3868
     25 C26        27.0000    5.5450   35.9310 C.3       1 PQB         0.0727
     26 O27        26.6540    4.2920   35.3260 O.3       1 PQB        -0.3924
     27 C28        25.0220    8.4310   31.9450 C.ar      1 PQB        -0.0160
     28 H1         20.3876    8.4117   30.7799 H         1 PQB         0.1833
     29 H2         18.8669    9.3436   30.8208 H         1 PQB         0.1833
     30 H3         23.3020   12.2376   31.5953 H         1 PQB         0.0649
     31 H4         18.2270   10.8037   32.9371 H         1 PQB         0.0571
     32 H5         15.8588   11.4540   32.9314 H         1 PQB         0.0586
     33 H6         16.5969   14.0127   29.5844 H         1 PQB         0.0586
     34 H7         18.9636   13.3660   29.6125 H         1 PQB         0.0571
     35 H8         24.5203   11.0708   29.8697 H         1 PQB         0.0574
     36 H9         26.9912   11.1742   30.0539 H         1 PQB         0.0601
     37 H10        28.1963    9.5164   31.4414 H         1 PQB         0.0578
     38 H11        25.7217    6.4467   33.9106 H         1 PQB         0.0640
     39 H12        26.1997    8.0221   34.6291 H         1 PQB         0.0640
     40 H13        28.2582    5.8279   34.2098 H         1 PQB         0.0643
     41 H14        29.1543    6.9903   36.0129 H         1 PQB         0.2100
     42 H15        26.0926    6.0277   36.3229 H         1 PQB         0.0584
     43 H16        27.7087    5.3731   36.7545 H         1 PQB         0.0584
     44 H17        26.2519    3.7280   35.9762 H         1 PQB         0.2095
     45 H18        24.4712    7.6587   32.4697 H         1 PQB         0.0590
@<TRIPOS>BOND
     1    1    2 1  
     2    2    3 2  
     3    2    6 1  
     4    3    4 1  
     5    3   14 1  
     6    4    5 2  
     7    5    6 1  
     8    6    7 1  
     9    7    8 ar 
    10    7   13 ar 
    11    8    9 ar 
    12    9   10 ar 
    13   10   11 1  
    14   10   12 ar 
    15   12   13 ar 
    16   14   15 2  
    17   14   16 1  
    18   16   17 ar 
    19   16   27 ar 
    20   17   18 ar 
    21   18   19 ar 
    22   19   20 ar 
    23   20   21 1  
    24   20   27 ar 
    25   21   22 1  
    26   22   23 1  
    27   23   24 1  
    28   23   25 1  
    29   25   26 1  
    30    1   28 1  
    31    1   29 1  
    32    4   30 1  
    33    8   31 1  
    34    9   32 1  
    35   12   33 1  
    36   13   34 1  
    37   17   35 1  
    38   18   36 1  
    39   19   37 1  
    40   22   38 1  
    41   22   39 1  
    42   23   40 1  
    43   24   41 1  
    44   25   42 1  
    45   25   43 1  
    46   26   44 1  
    47   27   45 1  
@<TRIPOS>SUBSTRUCTURE
     1 PQB         1

