### 
### Created by X-TOOL on Mon Sep 10 21:12:53 2018
### 

@<TRIPOS>MOLECULE
2gg0_ligand
   48    48     1     0     0
SMALL
GAST_HUCK


@<TRIPOS>ATOM
      1 F29        17.9570    1.0670   14.5680 F         1 U11        -0.2274
      2 C9         17.3680   -0.0520   15.0030 C.3       1 U11         0.3684
      3 F30        17.8250   -0.3020   16.2160 F         1 U11        -0.2274
      4 F31        17.7040   -1.0660   14.2040 F         1 U11        -0.2274
      5 C5         15.8930    0.2680   15.0750 C.ar      1 U11         0.0385
      6 C2         15.0860    0.1570   13.9510 C.ar      1 U11        -0.0370
      7 C4         13.7290    0.5010   14.0140 C.ar      1 U11        -0.0226
      8 C6         15.3490    0.7200   16.2690 C.ar      1 U11        -0.0370
      9 C3         13.9980    1.0450   16.3330 C.ar      1 U11        -0.0226
     10 C7         13.1680    0.9600   15.2090 C.ar      1 U11         0.0410
     11 C11        11.7080    1.3130   15.2860 C.3       1 U11         0.0677
     12 N24        11.2610    2.2340   14.2430 N.4       1 U11         0.2418
     13 C23        10.8500    0.0480   15.4090 C.3       1 U11         0.2010
     14 O27         9.4540    0.3710   15.3780 O.3       1 U11        -0.3640
     15 C25        11.1520   -0.5240   16.7680 C.2       1 U11         0.2159
     16 O31        10.6750    0.0200   17.7670 O.2       1 U11        -0.3936
     17 N32        11.9500   -1.5850   16.7860 N.am      1 U11        -0.2634
     18 C33        12.3690   -2.1890   18.0300 C.3       1 U11         0.1282
     19 C37        11.2750   -3.1070   18.5300 C.3       1 U11        -0.0244
     20 C36        13.5940   -3.0050   17.7800 C.2       1 U11         0.2035
     21 O41        13.7950   -3.5910   16.7350 O.2       1 U11        -0.3944
     22 N42        14.4790   -3.0930   18.7750 N.am      1 U11        -0.2651
     23 C43        15.7100   -3.8630   18.7810 C.3       1 U11         0.1314
     24 C47        15.2470   -5.2310   19.2350 C.2       1 U11         0.2561
     25 O60        14.1250   -5.4080   19.7050 O.2       1 U11        -0.3681
     26 O61        16.1250   -6.3820   19.1110 O.3       1 U11        -0.2786
     27 C62        16.0620   -7.4270   20.0890 C.3       1 U11         0.0658
     28 H1         15.5085   -0.1982   13.0180 H         1 U11         0.0836
     29 H2         13.1096    0.4104   13.1290 H         1 U11         0.0654
     30 H3         15.9746    0.8194   17.1486 H         1 U11         0.0836
     31 H4         13.5774    1.3723   17.2769 H         1 U11         0.0654
     32 H5         11.5786    1.8598   16.2317 H         1 U11         0.1145
     33 H6         11.8692    3.0375   14.2211 H         1 U11         0.2020
     34 H7         10.3181    2.5316   14.4390 H         1 U11         0.2020
     35 H8         11.2874    1.7682   13.3495 H         1 U11         0.2020
     36 H9         11.0952   -0.6668   14.6096 H         1 U11         0.0931
     37 H10         8.9437   -0.4266   15.4555 H         1 U11         0.2138
     38 H11        12.2675   -1.9740   15.9212 H         1 U11         0.1883
     39 H12        12.5785   -1.4086   18.7764 H         1 U11         0.0797
     40 H13        11.5890   -3.5696   19.4773 H         1 U11         0.0277
     41 H14        11.0857   -3.8924   17.7835 H         1 U11         0.0277
     42 H15        10.3550   -2.5264   18.6928 H         1 U11         0.0277
     43 H16        14.2725   -2.5737   19.6042 H         1 U11         0.1882
     44 H17        16.4400   -3.4378   19.4854 H         1 U11         0.0780
     45 H18        16.1540   -3.9084   17.7756 H         1 U11         0.0780
     46 H19        16.7920   -8.2101   19.8364 H         1 U11         0.0577
     47 H20        15.0503   -7.8587   20.0998 H         1 U11         0.0577
     48 H21        16.2954   -7.0147   21.0817 H         1 U11         0.0577
@<TRIPOS>BOND
     1    1    2 1  
     2    2    3 1  
     3    2    4 1  
     4    2    5 1  
     5    5    6 ar 
     6    5    8 ar 
     7    6    7 ar 
     8    7   10 ar 
     9    8    9 ar 
    10    9   10 ar 
    11   10   11 1  
    12   11   12 1  
    13   11   13 1  
    14   13   14 1  
    15   13   15 1  
    16   15   16 2  
    17   15   17 am 
    18   17   18 1  
    19   18   19 1  
    20   18   20 1  
    21   20   21 2  
    22   20   22 am 
    23   22   23 1  
    24   23   24 1  
    25   24   25 2  
    26   24   26 1  
    27   26   27 1  
    28    6   28 1  
    29    7   29 1  
    30    8   30 1  
    31    9   31 1  
    32   11   32 1  
    33   12   33 1  
    34   12   34 1  
    35   12   35 1  
    36   13   36 1  
    37   14   37 1  
    38   17   38 1  
    39   18   39 1  
    40   19   40 1  
    41   19   41 1  
    42   19   42 1  
    43   22   43 1  
    44   23   44 1  
    45   23   45 1  
    46   27   46 1  
    47   27   47 1  
    48   27   48 1  
@<TRIPOS>SUBSTRUCTURE
     1 U11         1

