### 
### Created by X-TOOL on Mon Sep 10 21:12:53 2018
### 

@<TRIPOS>MOLECULE
2gg2_ligand
   28    29     1     0     0
SMALL
GAST_HUCK


@<TRIPOS>ATOM
      1 F3         -6.4070   -2.8570    7.1340 F         1 U12        -0.2200
      2 C10        -7.2510   -2.4110    8.0440 C.3       1 U12         0.3769
      3 F1         -7.6470   -3.4240    8.7940 F         1 U12        -0.2200
      4 F2         -8.3010   -1.8940    7.4320 F         1 U12        -0.2200
      5 C8         -6.6140   -1.3590    8.9080 C.ar      1 U12         0.0489
      6 C5         -7.4200   -0.6510    9.7950 C.ar      1 U12        -0.0321
      7 C9         -6.8760    0.3330   10.6130 C.ar      1 U12        -0.0312
      8 C6         -5.5190    0.6120   10.5460 C.ar      1 U12        -0.0135
      9 C7         -5.2480   -1.0780    8.8420 C.ar      1 U12        -0.0112
     10 C4         -4.7060   -0.0930    9.6660 C.ar      1 U12         0.0818
     11 N6         -3.3880    0.2340    9.6560 N.2       1 U12        -0.2072
     12 N3         -2.4860   -0.4600    9.1550 N.2       1 U12        -0.2089
     13 C1         -1.2090    0.0330    9.2390 C.2       1 U12         0.1431
     14 C3         -0.6970    0.9030   10.1800 C.2       1 U12         0.1024
     15 N5         -1.3500    1.4440   11.2480 N.pl3     1 U12        -0.3351
     16 N4          0.6070    1.1750    9.9220 N.2       1 U12        -0.2338
     17 N1          1.0380    0.4640    8.7890 N.pl3     1 U12        -0.2062
     18 C2         -0.0690   -0.2110    8.3390 C.2       1 U12         0.1953
     19 N2         -0.1390   -1.0300    7.2500 N.pl3     1 U12        -0.2962
     20 H1         -8.4806   -0.8686    9.8485 H         1 U12         0.0847
     21 H2         -7.5104    0.8803   11.3008 H         1 U12         0.0697
     22 H3         -5.0921    1.3804   11.1803 H         1 U12         0.0865
     23 H4         -4.6123   -1.6230    8.1536 H         1 U12         0.0860
     24 H5         -0.8546    2.0856   11.8835 H         1 U12         0.1700
     25 H6         -2.3386    1.2110   11.4192 H         1 U12         0.1700
     26 H7          1.9843    0.4520    8.3824 H         1 U12         0.2463
     27 H8         -1.0292   -1.4868    7.0056 H         1 U12         0.1868
     28 H9          0.6984   -1.1914    6.6723 H         1 U12         0.1868
@<TRIPOS>BOND
     1    1    2 1  
     2    2    3 1  
     3    2    4 1  
     4    2    5 1  
     5    5    6 ar 
     6    5    9 ar 
     7    6    7 ar 
     8    7    8 ar 
     9    8   10 ar 
    10    9   10 ar 
    11   10   11 1  
    12   11   12 2  
    13   12   13 1  
    14   13   14 1  
    15   13   18 2  
    16   14   15 1  
    17   14   16 2  
    18   16   17 1  
    19   17   18 1  
    20   18   19 1  
    21    6   20 1  
    22    7   21 1  
    23    8   22 1  
    24    9   23 1  
    25   15   24 1  
    26   15   25 1  
    27   17   26 1  
    28   19   27 1  
    29   19   28 1  
@<TRIPOS>SUBSTRUCTURE
     1 U12         1

