### 
### Created by X-TOOL on Mon Sep 10 21:12:53 2018
### 

@<TRIPOS>MOLECULE
2gg3_ligand
   25    26     1     0     0
SMALL
GAST_HUCK


@<TRIPOS>ATOM
      1 F7         -8.4270   -1.7810    7.6520 F         1 U13        -0.1830
      2 C3         -7.1880   -1.4290    8.0680 C.ar      1 U13         0.1328
      3 C6         -6.0540   -2.0670    7.5690 C.ar      1 U13        -0.0266
      4 C2         -4.7900   -1.6780    8.0160 C.ar      1 U13        -0.0426
      5 C5         -4.6830   -0.6810    8.9910 C.ar      1 U13         0.0494
      6 C4         -5.8130   -0.0250    9.4630 C.ar      1 U13        -0.0426
      7 C1         -7.0660   -0.4170    9.0120 C.ar      1 U13        -0.0266
      8 N9         -3.4480   -0.2000    9.4460 N.2       1 U13        -0.2177
      9 N13        -2.4850   -0.4760    8.7240 N.2       1 U13        -0.2121
     10 C14        -1.2090   -0.0390    8.9890 C.2       1 U13         0.1412
     11 C19        -0.6660    0.8020   10.0640 C.2       1 U13         0.1017
     12 N16        -1.3420    1.3480   11.1300 N.pl3     1 U13        -0.3353
     13 N20         0.6700    0.9860    9.8930 N.2       1 U13        -0.2341
     14 N17         1.0850    0.3020    8.7360 N.pl3     1 U13        -0.2066
     15 C15        -0.0100   -0.2930    8.1920 C.2       1 U13         0.1944
     16 N18         0.0010   -1.0490    7.0650 N.pl3     1 U13        -0.2966
     17 H1         -6.1529   -2.8610    6.8377 H         1 U13         0.0606
     18 H2         -3.8993   -2.1446    7.6110 H         1 U13         0.0619
     19 H3         -5.7172    0.7853   10.1767 H         1 U13         0.0619
     20 H4         -7.9543    0.0693    9.3986 H         1 U13         0.0606
     21 H5         -0.8378    1.9241   11.8191 H         1 U13         0.1700
     22 H6         -2.3525    1.1808   11.2393 H         1 U13         0.1700
     23 H7          2.0458    0.2595    8.3671 H         1 U13         0.2461
     24 H8         -0.8737   -1.4665    6.7164 H         1 U13         0.1866
     25 H9          0.8840   -1.2053    6.5583 H         1 U13         0.1866
@<TRIPOS>BOND
     1    1    2 1  
     2    2    3 ar 
     3    2    7 ar 
     4    3    4 ar 
     5    4    5 ar 
     6    5    6 ar 
     7    5    8 1  
     8    6    7 ar 
     9    8    9 2  
    10    9   10 1  
    11   10   11 1  
    12   10   15 2  
    13   11   12 1  
    14   11   13 2  
    15   13   14 1  
    16   14   15 1  
    17   15   16 1  
    18    3   17 1  
    19    4   18 1  
    20    6   19 1  
    21    7   20 1  
    22   12   21 1  
    23   12   22 1  
    24   14   23 1  
    25   16   24 1  
    26   16   25 1  
@<TRIPOS>SUBSTRUCTURE
     1 U13         1

