### 
### Created by X-TOOL on Mon Sep 10 21:12:54 2018
### 

@<TRIPOS>MOLECULE
2gg5_ligand
   28    29     1     0     0
SMALL
GAST_HUCK


@<TRIPOS>ATOM
      1 F3         16.3300    0.6290   14.1890 F         1 U19        -0.2355
      2 C7         16.8770    1.0150   15.3270 C.3       1 U19         0.3630
      3 F1         18.0400    1.6160   15.0960 F         1 U19        -0.2355
      4 F2         16.0970    1.9650   15.8210 F         1 U19        -0.2355
      5 C3         17.0230   -0.0690   16.3960 C.ar      1 U19         0.0553
      6 C6         18.2730   -0.5620   16.7800 C.ar      1 U19        -0.0359
      7 C2         18.3820   -1.5370   17.7690 C.ar      1 U19        -0.0361
      8 C1         15.8850   -0.5830   17.0300 C.ar      1 U19         0.0811
      9 C4         15.9800   -1.5690   18.0280 C.ar      1 U19        -0.0146
     10 C5         17.2420   -2.0430   18.3850 C.ar      1 U19        -0.0360
     11 N1         14.6570   -0.1130   16.6610 N.2       1 U19        -0.1888
     12 N2         13.6660   -0.5680   17.2390 N.2       1 U19        -0.1867
     13 C8         12.3930   -0.1830   16.9580 C.2       1 U19         0.1622
     14 C10        11.8940    0.7920   15.9920 C.2       1 U19         0.1117
     15 N5         12.6790    1.5150   15.1470 N.pl3     1 U19        -0.3334
     16 N6         10.5550    0.8580   16.0620 N.2       1 U19        -0.2277
     17 N3         10.0810   -0.0350   17.0470 N.pl3     1 U19        -0.1995
     18 C9         11.1660   -0.6580   17.5920 C.2       1 U19         0.2082
     19 N4         11.1760   -1.6070   18.5710 N.pl3     1 U19        -0.2905
     20 H1         19.1686   -0.1811   16.3025 H         1 U19         0.0823
     21 H2         19.3599   -1.9032   18.0600 H         1 U19         0.0684
     22 H3         15.0889   -1.9535   18.5109 H         1 U19         0.0699
     23 H4         17.3351   -2.8093   19.1460 H         1 U19         0.0829
     24 H5         12.2505    2.1851   14.4926 H         1 U19         0.1706
     25 H6         13.7015    1.3920   15.1620 H         1 U19         0.1706
     26 H7          9.0962   -0.1884   17.3069 H         1 U19         0.2484
     27 H8         12.0700   -2.0012   18.8970 H         1 U19         0.1905
     28 H9         10.2896   -1.9297   18.9845 H         1 U19         0.1905
@<TRIPOS>BOND
     1    1    2 1  
     2    2    3 1  
     3    2    4 1  
     4    2    5 1  
     5    5    6 ar 
     6    5    8 ar 
     7    6    7 ar 
     8    7   10 ar 
     9    8    9 ar 
    10    8   11 1  
    11    9   10 ar 
    12   11   12 2  
    13   12   13 1  
    14   13   14 1  
    15   13   18 2  
    16   14   15 1  
    17   14   16 2  
    18   16   17 1  
    19   17   18 1  
    20   18   19 1  
    21    6   20 1  
    22    7   21 1  
    23    9   22 1  
    24   10   23 1  
    25   15   24 1  
    26   15   25 1  
    27   17   26 1  
    28   19   27 1  
    29   19   28 1  
@<TRIPOS>SUBSTRUCTURE
     1 U19         1

