### 
### Created by X-TOOL on Mon Sep 10 21:12:53 2018
### 

@<TRIPOS>MOLECULE
2gg7_ligand
   27    28     1     0     0
SMALL
GAST_HUCK


@<TRIPOS>ATOM
      1 O2         -6.2780   -3.0690    6.8550 O.co2     1 U14        -0.5606
      2 C4         -7.0660   -2.4340    7.5870 C.2       1 U14         0.0628
      3 O1         -8.3110   -2.5900    7.5440 O.co2     1 U14        -0.5606
      4 C9         -6.4940   -1.4300    8.5350 C.ar      1 U14         0.0110
      5 C6         -7.3770   -0.6730    9.2980 C.ar      1 U14        -0.0484
      6 C10        -6.9030    0.2760   10.1910 C.ar      1 U14        -0.0576
      7 C7         -5.5350    0.4550   10.3110 C.ar      1 U14        -0.0390
      8 C8         -5.1070   -1.2490    8.6430 C.ar      1 U14        -0.0272
      9 C5         -4.6440   -0.3060    9.5580 C.ar      1 U14         0.0562
     10 N6         -3.2980    0.0090    9.7360 N.2       1 U14        -0.2140
     11 N5         -2.3990   -0.5220    8.9790 N.2       1 U14        -0.2095
     12 C2         -1.1270   -0.0610    9.1740 C.2       1 U14         0.1430
     13 C3         -0.0670   -0.2660    8.3120 C.2       1 U14         0.1954
     14 N4         -0.0660   -1.0480    7.2000 N.pl3     1 U14        -0.2962
     15 N2          1.0240    0.3870    8.7540 N.pl3     1 U14        -0.2062
     16 C1         -0.6550    0.8130   10.1400 C.2       1 U14         0.1024
     17 N3          0.6210    1.0770    9.9000 N.2       1 U14        -0.2338
     18 N1         -1.2960    1.3410   11.2180 N.pl3     1 U14        -0.3351
     19 H1         -8.4450   -0.8263    9.1936 H         1 U14         0.0644
     20 H2         -7.5909    0.8672   10.7846 H         1 U14         0.0623
     21 H3         -5.1521    1.1982   11.0010 H         1 U14         0.0646
     22 H4         -4.4183   -1.8239    8.0346 H         1 U14         0.0661
     23 H5          0.7864   -1.1280    6.6274 H         1 U14         0.1868
     24 H6         -0.9177   -1.5605    6.9301 H         1 U14         0.1868
     25 H7          1.9641    0.3795    8.3332 H         1 U14         0.2463
     26 H8         -0.7977    1.9847   11.8491 H         1 U14         0.1700
     27 H9         -2.2794    1.0969   11.4029 H         1 U14         0.1700
@<TRIPOS>BOND
     1    1    2 ar 
     2    2    3 ar 
     3    2    4 1  
     4    4    5 ar 
     5    4    8 ar 
     6    5    6 ar 
     7    6    7 ar 
     8    7    9 ar 
     9    8    9 ar 
    10    9   10 1  
    11   10   11 2  
    12   11   12 1  
    13   12   13 2  
    14   12   16 1  
    15   13   14 1  
    16   13   15 1  
    17   15   17 1  
    18   16   17 2  
    19   16   18 1  
    20    5   19 1  
    21    6   20 1  
    22    7   21 1  
    23    8   22 1  
    24   14   23 1  
    25   14   24 1  
    26   15   25 1  
    27   18   26 1  
    28   18   27 1  
@<TRIPOS>SUBSTRUCTURE
     1 U14         1

