### 
### Created by X-TOOL on Mon Sep 10 21:12:53 2018
### 

@<TRIPOS>MOLECULE
2gg8_ligand
   60    60     1     0     0
SMALL
GAST_HUCK


@<TRIPOS>ATOM
      1 O42        -5.1170   -6.4560    6.1520 O.2       1 U15        -0.3678
      2 C41        -4.3440   -5.6440    5.6570 C.2       1 U15         0.2593
      3 O43        -3.2140   -6.3070    5.0140 O.3       1 U15        -0.2784
      4 C44        -3.3390   -7.7360    4.9190 C.3       1 U15         0.0658
      5 C37        -4.5550   -4.1400    5.7200 C.3       1 U15         0.1424
      6 C39        -5.4910   -3.7020    6.8390 C.3       1 U15        -0.0087
      7 C48        -6.5400   -2.6540    6.4330 C.3       1 U15        -0.0424
      8 C53        -6.0620   -1.2400    6.7200 C.3       1 U15        -0.0624
      9 C51        -7.8660   -2.8200    7.1580 C.3       1 U15        -0.0624
     10 N36        -3.2950   -3.4130    5.8690 N.am      1 U15        -0.2624
     11 C27        -2.5900   -3.2890    6.9930 C.2       1 U15         0.2037
     12 O35        -2.8700   -3.7810    8.0800 O.2       1 U15        -0.3944
     13 C24        -1.3100   -2.5010    6.9140 C.3       1 U15         0.1282
     14 C28        -0.1770   -3.4410    6.4710 C.3       1 U15        -0.0244
     15 N23        -1.0270   -1.9100    8.2230 N.am      1 U15        -0.2635
     16 C20        -0.2910   -0.8300    8.2560 C.2       1 U15         0.2148
     17 O22         0.1560   -0.2580    7.2640 O.2       1 U15        -0.3937
     18 C14         0.0280   -0.2030    9.5970 C.3       1 U15         0.1951
     19 O19         1.4540    0.1220    9.4950 O.3       1 U15        -0.3648
     20 C7         -0.7240    1.1260    9.5910 C.3       1 U15         0.0502
     21 N15        -0.3570    2.1110   10.6230 N.4       1 U15         0.2357
     22 C3         -2.1910    0.8480    9.7060 C.ar      1 U15         0.0025
     23 C6         -2.7510    0.3990   10.9100 C.ar      1 U15        -0.0613
     24 C2         -4.1210    0.1110   11.0150 C.ar      1 U15        -0.0669
     25 C5         -4.9740    0.2640    9.9290 C.ar      1 U15        -0.0528
     26 C9         -6.4200   -0.0360   10.0530 C.3       1 U15        -0.0343
     27 C4         -4.4410    0.7000    8.7120 C.ar      1 U15        -0.0669
     28 C1         -3.0670    0.9870    8.6190 C.ar      1 U15        -0.0613
     29 H1         -2.4481   -8.1499    4.4241 H         1 U15         0.0577
     30 H2         -4.2346   -7.9875    4.3320 H         1 U15         0.0577
     31 H3         -3.4299   -8.1640    5.9282 H         1 U15         0.0577
     32 H4         -5.0107   -3.8394    4.7650 H         1 U15         0.0816
     33 H5         -4.8798   -3.2775    7.6491 H         1 U15         0.0316
     34 H6         -6.0221   -4.5918    7.2080 H         1 U15         0.0316
     35 H7         -6.7151   -2.7592    5.3521 H         1 U15         0.0298
     36 H8         -6.8381   -0.5219    6.4165 H         1 U15         0.0232
     37 H9         -5.1391   -1.0431    6.1547 H         1 U15         0.0232
     38 H10        -5.8629   -1.1316    7.7964 H         1 U15         0.0232
     39 H11        -8.2563   -3.8331    6.9810 H         1 U15         0.0232
     40 H12        -8.5857   -2.0787    6.7805 H         1 U15         0.0232
     41 H13        -7.7154   -2.6685    8.2370 H         1 U15         0.0232
     42 H14        -2.9286   -2.9678    5.0520 H         1 U15         0.1885
     43 H15        -1.4197   -1.6953    6.1732 H         1 U15         0.0797
     44 H16         0.7650   -2.8763    6.4094 H         1 U15         0.0277
     45 H17        -0.4161   -3.8639    5.4841 H         1 U15         0.0277
     46 H18        -0.0691   -4.2554    7.2025 H         1 U15         0.0277
     47 H19        -1.3843   -2.3183    9.0630 H         1 U15         0.1883
     48 H20        -0.2182   -0.8402   10.4592 H         1 U15         0.0919
     49 H21         1.9490   -0.6743    9.3415 H         1 U15         0.2138
     50 H22        -0.5312    1.5971    8.6159 H         1 U15         0.1055
     51 H23        -0.9208    2.9392   10.5126 H         1 U15         0.2012
     52 H24         0.6169    2.3522   10.5261 H         1 U15         0.2012
     53 H25        -0.5160    1.7157   11.5365 H         1 U15         0.2012
     54 H26        -2.1135    0.2716   11.7774 H         1 U15         0.0542
     55 H27        -4.5206   -0.2371   11.9606 H         1 U15         0.0540
     56 H28        -6.9165    0.1476    9.0888 H         1 U15         0.0378
     57 H29        -6.8641    0.6116   10.8233 H         1 U15         0.0378
     58 H30        -6.5527   -1.0899   10.3389 H         1 U15         0.0378
     59 H31        -5.0824    0.8161    7.8459 H         1 U15         0.0540
     60 H32        -2.6695    1.3290    7.6703 H         1 U15         0.0542
@<TRIPOS>BOND
     1    1    2 2  
     2    2    3 1  
     3    2    5 1  
     4    3    4 1  
     5    5    6 1  
     6    5   10 1  
     7    6    7 1  
     8    7    8 1  
     9    7    9 1  
    10   10   11 am 
    11   11   12 2  
    12   11   13 1  
    13   13   14 1  
    14   13   15 1  
    15   15   16 am 
    16   16   17 2  
    17   16   18 1  
    18   18   19 1  
    19   18   20 1  
    20   20   21 1  
    21   20   22 1  
    22   22   23 ar 
    23   22   28 ar 
    24   23   24 ar 
    25   24   25 ar 
    26   25   26 1  
    27   25   27 ar 
    28   27   28 ar 
    29    4   29 1  
    30    4   30 1  
    31    4   31 1  
    32    5   32 1  
    33    6   33 1  
    34    6   34 1  
    35    7   35 1  
    36    8   36 1  
    37    8   37 1  
    38    8   38 1  
    39    9   39 1  
    40    9   40 1  
    41    9   41 1  
    42   10   42 1  
    43   13   43 1  
    44   14   44 1  
    45   14   45 1  
    46   14   46 1  
    47   15   47 1  
    48   18   48 1  
    49   19   49 1  
    50   20   50 1  
    51   21   51 1  
    52   21   52 1  
    53   21   53 1  
    54   23   54 1  
    55   24   55 1  
    56   26   56 1  
    57   26   57 1  
    58   26   58 1  
    59   27   59 1  
    60   28   60 1  
@<TRIPOS>SUBSTRUCTURE
     1 U15         1

