### 
### Created by X-TOOL on Mon Sep 10 21:12:53 2018
### 

@<TRIPOS>MOLECULE
2gg9_ligand
   66    66     1     0     0
SMALL
GAST_HUCK


@<TRIPOS>ATOM
      1 O31        -0.0060    0.0110    6.9890 O.2       1 U16        -0.3937
      2 C25        -0.4730   -0.5270    7.9850 C.2       1 U16         0.2148
      3 C23        -0.1860    0.0890    9.3230 C.3       1 U16         0.1951
      4 C11        -1.0730    1.3530    9.4450 C.3       1 U16         0.0502
      5 C7         -2.5090    0.9430    9.5660 C.ar      1 U16         0.0025
      6 C3         -2.9930    0.4230   10.7620 C.ar      1 U16        -0.0613
      7 C6         -4.3170    0.0270   10.8610 C.ar      1 U16        -0.0664
      8 C5         -5.1570    0.1200    9.7620 C.ar      1 U16        -0.0472
      9 C9         -6.5700   -0.2780    9.8410 C.3       1 U16        -0.0162
     10 C14        -7.4110    0.9820    9.8930 C.3       1 U16        -0.0537
     11 C15        -6.8710   -1.0930   11.0650 C.3       1 U16        -0.0537
     12 C2         -4.7070    0.6200    8.5550 C.ar      1 U16        -0.0664
     13 C4         -3.3750    1.0120    8.4560 C.ar      1 U16        -0.0613
     14 N24        -0.5350    2.2320   10.5000 N.4       1 U16         0.2357
     15 O27         1.2180    0.4400    9.3290 O.3       1 U16        -0.3648
     16 N32        -1.2480   -1.6000    7.9580 N.am      1 U16        -0.2635
     17 C33        -1.6310   -2.2510    6.7100 C.3       1 U16         0.1282
     18 C37        -0.5400   -3.2000    6.2370 C.3       1 U16        -0.0244
     19 C36        -2.8930   -3.0310    6.8870 C.2       1 U16         0.2037
     20 O41        -3.1450   -3.6000    7.9260 O.2       1 U16        -0.3944
     21 N42        -3.7050   -3.0980    5.8420 N.am      1 U16        -0.2624
     22 C43        -4.9110   -3.8740    5.8500 C.3       1 U16         0.1424
     23 C45        -6.0690   -3.4850    6.7520 C.3       1 U16        -0.0087
     24 C49        -6.9650   -2.3860    6.1820 C.3       1 U16        -0.0424
     25 C52        -8.4440   -2.7550    6.2780 C.3       1 U16        -0.0624
     26 C53        -6.6260   -1.9710    4.7520 C.3       1 U16        -0.0624
     27 C47        -4.6380   -5.2650    5.3830 C.2       1 U16         0.2593
     28 O60        -3.5320   -5.5510    4.9300 O.2       1 U16        -0.3678
     29 O61        -5.6630   -6.2860    5.4620 O.3       1 U16        -0.2784
     30 C62        -5.6450   -7.3930    4.5610 C.3       1 U16         0.0658
     31 H1         -0.4087   -0.6138   10.1394 H         1 U16         0.0919
     32 H2         -0.9902    1.9149    8.5030 H         1 U16         0.1055
     33 H3         -2.3338    0.3275   11.6172 H         1 U16         0.0542
     34 H4         -4.6973   -0.3568   11.8008 H         1 U16         0.0540
     35 H5         -6.8283   -0.8647    8.9471 H         1 U16         0.0443
     36 H6         -8.4752    0.7103    9.9526 H         1 U16         0.0253
     37 H7         -7.2351    1.5780    8.9854 H         1 U16         0.0253
     38 H8         -7.1331    1.5721   10.7788 H         1 U16         0.0253
     39 H9         -6.2705   -2.0145   11.0487 H         1 U16         0.0253
     40 H10        -7.9399   -1.3522   11.0793 H         1 U16         0.0253
     41 H11        -6.6231   -0.5097   11.9640 H         1 U16         0.0253
     42 H12        -5.3752    0.7049    7.7057 H         1 U16         0.0540
     43 H13        -2.9968    1.3770    7.5079 H         1 U16         0.0542
     44 H14        -1.1125    3.0544   10.5790 H         1 U16         0.2012
     45 H15         0.4063    2.5040   10.2631 H         1 U16         0.2012
     46 H16        -0.5311    1.7385   11.3789 H         1 U16         0.2012
     47 H17         1.7410   -0.3495    9.2533 H         1 U16         0.2138
     48 H18        -1.5820   -1.9768    8.8220 H         1 U16         0.1883
     49 H19        -1.7907   -1.4772    5.9447 H         1 U16         0.0797
     50 H20        -0.8519   -3.6775    5.2964 H         1 U16         0.0277
     51 H21        -0.3692   -3.9725    7.0013 H         1 U16         0.0277
     52 H22         0.3899   -2.6362    6.0713 H         1 U16         0.0277
     53 H23        -3.4676   -2.5875    5.0155 H         1 U16         0.1885
     54 H24        -5.3581   -3.4907    4.9209 H         1 U16         0.0816
     55 H25        -5.6574   -3.1326    7.7093 H         1 U16         0.0316
     56 H26        -6.6867   -4.3785    6.9251 H         1 U16         0.0316
     57 H27        -6.8080   -1.4996    6.8142 H         1 U16         0.0298
     58 H28        -9.0530   -1.9406    5.8586 H         1 U16         0.0232
     59 H29        -8.7155   -2.9101    7.3326 H         1 U16         0.0232
     60 H30        -8.6287   -3.6799    5.7119 H         1 U16         0.0232
     61 H31        -5.5600   -1.7067    4.6899 H         1 U16         0.0232
     62 H32        -7.2365   -1.1012    4.4681 H         1 U16         0.0232
     63 H33        -6.8371   -2.8062    4.0680 H         1 U16         0.0232
     64 H34        -6.4970   -8.0547    4.7761 H         1 U16         0.0577
     65 H35        -4.7059   -7.9521    4.6857 H         1 U16         0.0577
     66 H36        -5.7183   -7.0253    3.5269 H         1 U16         0.0577
@<TRIPOS>BOND
     1    1    2 2  
     2    2    3 1  
     3    2   16 am 
     4    3    4 1  
     5    3   15 1  
     6    4    5 1  
     7    4   14 1  
     8    5    6 ar 
     9    5   13 ar 
    10    6    7 ar 
    11    7    8 ar 
    12    8    9 1  
    13    8   12 ar 
    14    9   10 1  
    15    9   11 1  
    16   12   13 ar 
    17   16   17 1  
    18   17   18 1  
    19   17   19 1  
    20   19   20 2  
    21   19   21 am 
    22   21   22 1  
    23   22   23 1  
    24   22   27 1  
    25   23   24 1  
    26   24   25 1  
    27   24   26 1  
    28   27   28 2  
    29   27   29 1  
    30   29   30 1  
    31    3   31 1  
    32    4   32 1  
    33    6   33 1  
    34    7   34 1  
    35    9   35 1  
    36   10   36 1  
    37   10   37 1  
    38   10   38 1  
    39   11   39 1  
    40   11   40 1  
    41   11   41 1  
    42   12   42 1  
    43   13   43 1  
    44   14   44 1  
    45   14   45 1  
    46   14   46 1  
    47   15   47 1  
    48   16   48 1  
    49   17   49 1  
    50   18   50 1  
    51   18   51 1  
    52   18   52 1  
    53   21   53 1  
    54   22   54 1  
    55   23   55 1  
    56   23   56 1  
    57   24   57 1  
    58   25   58 1  
    59   25   59 1  
    60   25   60 1  
    61   26   61 1  
    62   26   62 1  
    63   26   63 1  
    64   30   64 1  
    65   30   65 1  
    66   30   66 1  
@<TRIPOS>SUBSTRUCTURE
     1 U16         1

