### 
### Created by X-TOOL on Mon Sep 10 21:12:54 2018
### 

@<TRIPOS>MOLECULE
2ggb_ligand
   56    55     1     0     0
SMALL
GAST_HUCK


@<TRIPOS>ATOM
      1 O2         11.7200    0.1630   18.2710 O.2       1 U17        -0.3938
      2 C10        11.8330   -0.5760   17.3440 C.2       1 U17         0.2129
      3 C9         11.3310    0.0510   16.0890 C.3       1 U17         0.1872
      4 C7         12.1140    1.3370   15.8870 C.3       1 U17         0.0306
      5 C3         13.6030    1.1350   16.1440 C.3       1 U17         0.0566
      6 C6         14.6520    0.8930   15.4580 C.1       1 U17        -0.0967
      7 C2         15.8260    0.8810   15.1350 C.1       1 U17        -0.1054
      8 C5         17.0790    1.0250   15.0260 C.3       1 U17        -0.0026
      9 N1         11.5590    2.2330   14.8480 N.4       1 U17         0.2250
     10 O1          9.9660    0.3670   16.3480 O.3       1 U17        -0.3665
     11 N2         12.3270   -1.8050   17.4010 N.am      1 U17        -0.2612
     12 C11        12.6730   -2.5020   18.6490 C.3       1 U17         0.1539
     13 C13        11.5530   -3.4290   19.2040 C.3       1 U17         0.0843
     14 O6         11.9070   -4.6400   19.9070 O.3       1 U17        -0.3903
     15 C12        13.9840   -3.1920   18.3740 C.2       1 U17         0.2063
     16 O3         13.9350   -3.8170   17.3340 O.2       1 U17        -0.3943
     17 N3         15.0520   -3.0880   19.1930 N.am      1 U17        -0.2623
     18 C14        16.2600   -3.9270   19.2180 C.3       1 U17         0.1424
     19 C15        17.4030   -3.0110   19.6870 C.3       1 U17        -0.0087
     20 C17        18.7160   -2.9570   18.8890 C.3       1 U17        -0.0424
     21 C18        18.9710   -1.4930   18.5410 C.3       1 U17        -0.0624
     22 C19        19.9340   -3.5930   19.5860 C.3       1 U17        -0.0624
     23 C16        16.1670   -5.1550   20.1320 C.2       1 U17         0.2593
     24 O4         15.7340   -5.0330   21.2750 O.2       1 U17        -0.3678
     25 O5         16.5750   -6.5220   19.7510 O.3       1 U17        -0.2784
     26 C20        16.4580   -7.6700   20.6100 C.3       1 U17         0.0658
     27 H1         11.4344   -0.6187   15.2225 H         1 U17         0.0896
     28 H2         11.8425    1.9118   16.7847 H         1 U17         0.0912
     29 H3         13.6017    0.3032   16.8637 H         1 U17         0.0456
     30 H4         13.8759    2.0668   16.6610 H         1 U17         0.0456
     31 H5         17.4330    0.4913   14.1317 H         1 U17         0.0362
     32 H6         17.5743    0.6142   15.9181 H         1 U17         0.0362
     33 H7         17.3185    2.0946   14.9334 H         1 U17         0.0362
     34 H8         10.5521    2.1952   14.8747 H         1 U17         0.2000
     35 H9         11.8824    1.9362   13.9406 H         1 U17         0.2000
     36 H10        11.8644    3.1779   15.0211 H         1 U17         0.2000
     37 H11         9.4747   -0.4362   16.4746 H         1 U17         0.2135
     38 H12        12.4740   -2.2899   16.5389 H         1 U17         0.1884
     39 H13        12.8493   -1.7405   19.4230 H         1 U17         0.0823
     40 H14        10.9329   -3.7283   18.3462 H         1 U17         0.0606
     41 H15        10.9517   -2.8224   19.8972 H         1 U17         0.0606
     42 H16        11.1157   -5.0896   20.1792 H         1 U17         0.2097
     43 H17        15.0177   -2.3492   19.8660 H         1 U17         0.1885
     44 H18        16.4646   -4.2802   18.1965 H         1 U17         0.0816
     45 H19        17.6639   -3.3250   20.7084 H         1 U17         0.0316
     46 H20        17.0017   -1.9871   19.7093 H         1 U17         0.0316
     47 H21        18.5597   -3.5134   17.9531 H         1 U17         0.0298
     48 H22        19.9057   -1.4100   17.9670 H         1 U17         0.0232
     49 H23        19.0560   -0.9054   19.4670 H         1 U17         0.0232
     50 H24        18.1352   -1.1084   17.9381 H         1 U17         0.0232
     51 H25        19.7141   -4.6449   19.8210 H         1 U17         0.0232
     52 H26        20.1506   -3.0471   20.5161 H         1 U17         0.0232
     53 H27        20.8068   -3.5412   18.9186 H         1 U17         0.0232
     54 H28        16.8321   -8.5609   20.0843 H         1 U17         0.0577
     55 H29        15.4022   -7.8199   20.8800 H         1 U17         0.0577
     56 H30        17.0503   -7.5071   21.5225 H         1 U17         0.0577
@<TRIPOS>BOND
     1    1    2 2  
     2    2    3 1  
     3    2   11 am 
     4    3    4 1  
     5    3   10 1  
     6    4    5 1  
     7    4    9 1  
     8    5    6 1  
     9    6    7 3  
    10    7    8 1  
    11   11   12 1  
    12   12   13 1  
    13   12   15 1  
    14   13   14 1  
    15   15   16 2  
    16   15   17 am 
    17   17   18 1  
    18   18   19 1  
    19   18   23 1  
    20   19   20 1  
    21   20   21 1  
    22   20   22 1  
    23   23   24 2  
    24   23   25 1  
    25   25   26 1  
    26    3   27 1  
    27    4   28 1  
    28    5   29 1  
    29    5   30 1  
    30    8   31 1  
    31    8   32 1  
    32    8   33 1  
    33    9   34 1  
    34    9   35 1  
    35    9   36 1  
    36   10   37 1  
    37   11   38 1  
    38   12   39 1  
    39   13   40 1  
    40   13   41 1  
    41   14   42 1  
    42   17   43 1  
    43   18   44 1  
    44   19   45 1  
    45   19   46 1  
    46   20   47 1  
    47   21   48 1  
    48   21   49 1  
    49   21   50 1  
    50   22   51 1  
    51   22   52 1  
    52   22   53 1  
    53   26   54 1  
    54   26   55 1  
    55   26   56 1  
@<TRIPOS>SUBSTRUCTURE
     1 U17         1

