### 
### Created by X-TOOL on Mon Sep 10 21:12:54 2018
### 

@<TRIPOS>MOLECULE
2ggu_ligand
   66    68     1     0     0
SMALL
GAST_HUCK


@<TRIPOS>ATOM
      1 C1A        23.4760   -7.2680    4.5870 C.3       1 MLR         0.1854
      2 C2A        23.1650   -8.6380    3.9260 C.3       1 MLR         0.1339
      3 C3A        23.7880   -9.7760    4.7400 C.3       1 MLR         0.1144
      4 C4A        25.3390   -9.5310    4.7250 C.3       1 MLR         0.1184
      5 C5A        25.6400   -8.1210    5.4410 C.3       1 MLR         0.1134
      6 C6A        27.1320   -7.7310    5.4880 C.3       1 MLR         0.0730
      7 O1X        22.8650   -6.0030    3.7810 O.3       1 MLR        -0.3649
      8 O2A        21.7310   -8.7390    3.8510 O.3       1 MLR        -0.3841
      9 O3A        23.4690  -11.0270    4.0920 O.3       1 MLR        -0.3864
     10 O4A        25.9640  -10.5560    5.4690 O.3       1 MLR        -0.3401
     11 O5A        24.9400   -7.0770    4.7150 O.3       1 MLR        -0.3407
     12 O6A        27.8630   -7.5290    4.1990 O.3       1 MLR        -0.3924
     13 C1B        27.1170  -11.2950    4.7190 C.3       1 MLR         0.1884
     14 C2B        26.9470  -12.8310    4.9250 C.3       1 MLR         0.1341
     15 C3B        27.0300  -13.1650    6.4550 C.3       1 MLR         0.1144
     16 C4B        28.4080  -12.7270    6.9900 C.3       1 MLR         0.1184
     17 C5B        28.5840  -11.1570    6.7800 C.3       1 MLR         0.1134
     18 C6B        29.9680  -10.6760    7.2900 C.3       1 MLR         0.0730
     19 O2B        25.6810  -13.2150    4.3830 O.3       1 MLR        -0.3841
     20 O3B        26.8740  -14.5970    6.6360 O.3       1 MLR        -0.3864
     21 O4B        28.4960  -13.0450    8.4210 O.3       1 MLR        -0.3401
     22 O5B        28.4630  -10.8620    5.3160 O.3       1 MLR        -0.3405
     23 O6B        30.2060   -9.2720    7.1300 O.3       1 MLR        -0.3924
     24 C1C        29.0870  -14.2090    8.9550 C.3       1 MLR         0.1884
     25 C2C        28.1550  -14.7710   10.1100 C.3       1 MLR         0.1341
     26 C3C        28.0600  -13.6920   11.2700 C.3       1 MLR         0.1141
     27 C4C        29.5020  -13.4630   11.8140 C.3       1 MLR         0.1119
     28 C5C        30.4230  -12.9240   10.6630 C.3       1 MLR         0.1130
     29 C6C        31.8530  -12.7060   11.1400 C.3       1 MLR         0.0730
     30 O2C        26.8770  -15.0360    9.5640 O.3       1 MLR        -0.3841
     31 O3C        27.2350  -14.1960   12.3110 O.3       1 MLR        -0.3864
     32 O4C        29.4730  -12.4970   12.8690 O.3       1 MLR        -0.3865
     33 O5C        30.4420  -13.9080    9.5290 O.3       1 MLR        -0.3405
     34 O6C        32.6270  -12.2230   10.0540 O.3       1 MLR        -0.3924
     35 H1         23.0327   -7.2759    5.5937 H         1 MLR         0.0935
     36 H2         23.5851   -8.6638    2.9097 H         1 MLR         0.0671
     37 H3         23.4071   -9.7762    5.7719 H         1 MLR         0.0648
     38 H4         25.7158   -9.5241    3.6916 H         1 MLR         0.0651
     39 H5         25.2614   -8.1715    6.4726 H         1 MLR         0.0647
     40 H6         27.6574   -8.5265    6.0367 H         1 MLR         0.0584
     41 H7         27.2027   -6.7888    6.0512 H         1 MLR         0.0584
     42 H8         23.0486   -5.2042    4.2614 H         1 MLR         0.2126
     43 H9         21.3900   -8.0152    3.3387 H         1 MLR         0.2101
     44 H10        23.8995  -11.7388    4.5508 H         1 MLR         0.2100
     45 H11        28.7653   -7.2944    4.3813 H         1 MLR         0.2095
     46 H12        27.0852  -11.0520    3.6467 H         1 MLR         0.0938
     47 H13        27.7483  -13.3671    4.3954 H         1 MLR         0.0671
     48 H14        26.2343  -12.6330    6.9971 H         1 MLR         0.0648
     49 H15        29.2007  -13.2610    6.4456 H         1 MLR         0.0651
     50 H16        27.7936  -10.6259    7.3306 H         1 MLR         0.0647
     51 H17        30.7465  -11.2215    6.7365 H         1 MLR         0.0584
     52 H18        30.0422  -10.9170    8.3607 H         1 MLR         0.0584
     53 H19        24.9890  -12.7466    4.8350 H         1 MLR         0.2101
     54 H20        26.9369  -14.8069    7.5603 H         1 MLR         0.2100
     55 H21        31.0691   -9.0582    7.4642 H         1 MLR         0.2095
     56 H22        29.1885  -14.9626    8.1602 H         1 MLR         0.0938
     57 H23        28.5811  -15.7017   10.5128 H         1 MLR         0.0671
     58 H24        27.6435  -12.7501   10.8836 H         1 MLR         0.0648
     59 H25        29.9044  -14.4134   12.1946 H         1 MLR         0.0647
     60 H26        30.0168  -11.9660   10.3063 H         1 MLR         0.0647
     61 H27        32.2724  -13.6575   11.4989 H         1 MLR         0.0584
     62 H28        31.8623  -11.9697   11.9572 H         1 MLR         0.0584
     63 H29        26.3053  -15.3684   10.2460 H         1 MLR         0.2101
     64 H30        26.3562  -14.3351   11.9779 H         1 MLR         0.2100
     65 H31        30.3543  -12.3614   13.1970 H         1 MLR         0.2100
     66 H32        32.6152  -12.8606    9.3499 H         1 MLR         0.2095
@<TRIPOS>BOND
     1    1    2 1  
     2    1    7 1  
     3    1   11 1  
     4    2    3 1  
     5    2    8 1  
     6    3    4 1  
     7    3    9 1  
     8    4    5 1  
     9    4   10 1  
    10    5    6 1  
    11    5   11 1  
    12    6   12 1  
    13   10   13 1  
    14   13   14 1  
    15   13   22 1  
    16   14   15 1  
    17   14   19 1  
    18   15   16 1  
    19   15   20 1  
    20   16   17 1  
    21   16   21 1  
    22   17   18 1  
    23   17   22 1  
    24   18   23 1  
    25   21   24 1  
    26   24   25 1  
    27   24   33 1  
    28   25   26 1  
    29   25   30 1  
    30   26   27 1  
    31   26   31 1  
    32   27   28 1  
    33   27   32 1  
    34   28   29 1  
    35   28   33 1  
    36   29   34 1  
    37    1   35 1  
    38    2   36 1  
    39    3   37 1  
    40    4   38 1  
    41    5   39 1  
    42    6   40 1  
    43    6   41 1  
    44    7   42 1  
    45    8   43 1  
    46    9   44 1  
    47   12   45 1  
    48   13   46 1  
    49   14   47 1  
    50   15   48 1  
    51   16   49 1  
    52   17   50 1  
    53   18   51 1  
    54   18   52 1  
    55   19   53 1  
    56   20   54 1  
    57   23   55 1  
    58   24   56 1  
    59   25   57 1  
    60   26   58 1  
    61   27   59 1  
    62   28   60 1  
    63   29   61 1  
    64   29   62 1  
    65   30   63 1  
    66   31   64 1  
    67   32   65 1  
    68   34   66 1  
@<TRIPOS>SUBSTRUCTURE
     1 MLR         1

