### 
### Created by X-TOOL on Mon Sep 10 21:12:54 2018
### 

@<TRIPOS>MOLECULE
2ggx_ligand
   57    59     1     0     0
SMALL
GAST_HUCK


@<TRIPOS>ATOM
      1 C1A        36.9130   53.9980    1.4270 C.3       1 NPJ         0.1884
      2 C2A        38.1000   54.6440    0.6670 C.3       1 NPJ         0.1341
      3 C3A        39.2360   53.5790    0.5300 C.3       1 NPJ         0.1141
      4 C4A        39.6890   53.1750    1.9480 C.3       1 NPJ         0.1119
      5 C5A        38.4590   52.5670    2.6910 C.3       1 NPJ         0.1130
      6 C6A        38.8710   52.1710    4.1100 C.3       1 NPJ         0.0730
      7 O1A        36.4610   52.8670    0.6530 O.3       1 NPJ        -0.3401
      8 O2A        37.6500   55.0420   -0.6330 O.3       1 NPJ        -0.3841
      9 O3A        40.3550   54.1430   -0.1670 O.3       1 NPJ        -0.3864
     10 O4A        40.7430   52.1890    1.8420 O.3       1 NPJ        -0.3865
     11 O5A        37.3720   53.5690    2.7720 O.3       1 NPJ        -0.3405
     12 O6A        37.7220   51.6630    4.8010 O.3       1 NPJ        -0.3924
     13 C1B        32.5130   51.6670   -0.5720 C.3       1 NPJ         0.2111
     14 C2B        32.8660   53.1590   -0.6730 C.3       1 NPJ         0.1388
     15 C3B        34.3920   53.3130   -0.6680 C.3       1 NPJ         0.1148
     16 C4B        34.9400   52.7000    0.6420 C.3       1 NPJ         0.1184
     17 C5B        34.5240   51.2090    0.6770 C.3       1 NPJ         0.1137
     18 C6B        35.0510   50.5760    1.9660 C.3       1 NPJ         0.0730
     19 O1B        32.9920   50.9400   -1.7130 O.3       1 NPJ        -0.2805
     20 O2B        32.3270   53.7030   -1.8830 O.3       1 NPJ        -0.3837
     21 O3B        34.7360   54.7050   -0.7490 O.3       1 NPJ        -0.3864
     22 O5B        33.0700   51.0930    0.6540 O.3       1 NPJ        -0.3366
     23 O6B        34.6790   49.1950    2.0080 O.3       1 NPJ        -0.3924
     24 C1C        32.1040   47.2350   -3.6410 C.ar      1 NPJ         0.1882
     25 C2C        31.7580   47.4590   -2.2620 C.ar      1 NPJ        -0.0271
     26 C3C        32.0580   48.6660   -1.6590 C.ar      1 NPJ        -0.0239
     27 C4C        32.7080   49.6960   -2.3900 C.ar      1 NPJ         0.1016
     28 C5C        33.0620   49.5020   -3.7510 C.ar      1 NPJ        -0.0239
     29 C6C        32.7680   48.2900   -4.3770 C.ar      1 NPJ        -0.0271
     30 N1C        31.8020   46.0430   -4.2280 N.2       1 NPJ         0.3062
     31 O2C        32.0850   45.8300   -5.3970 O.2       1 NPJ         0.1732
     32 O3C        31.2400   45.1670   -3.5870 O.2       1 NPJ         0.1732
     33 H1         36.0941   54.7245    1.5349 H         1 NPJ         0.0938
     34 H2         38.4716   55.5201    1.2186 H         1 NPJ         0.0671
     35 H3         38.8621   52.6994   -0.0144 H         1 NPJ         0.0648
     36 H4         40.0584   54.0560    2.4932 H         1 NPJ         0.0647
     37 H5         38.1030   51.6799    2.1466 H         1 NPJ         0.0647
     38 H6         39.2618   53.0517    4.6407 H         1 NPJ         0.0584
     39 H7         39.6488   51.3944    4.0658 H         1 NPJ         0.0584
     40 H8         38.3763   55.4168   -1.1173 H         1 NPJ         0.2101
     41 H9         40.0867   54.3956   -1.0426 H         1 NPJ         0.2100
     42 H10        41.0078   51.9153    2.7123 H         1 NPJ         0.2100
     43 H11        37.0519   52.3355    4.8360 H         1 NPJ         0.2095
     44 H12        31.4176   51.5733   -0.5360 H         1 NPJ         0.0996
     45 H13        32.4408   53.6955    0.1880 H         1 NPJ         0.0675
     46 H14        34.8209   52.7817   -1.5304 H         1 NPJ         0.0648
     47 H15        34.5109   53.2197    1.5113 H         1 NPJ         0.0651
     48 H16        34.9485   50.6882   -0.1940 H         1 NPJ         0.0647
     49 H17        34.6202   51.0979    2.8332 H         1 NPJ         0.0584
     50 H18        36.1473   50.6610    1.9943 H         1 NPJ         0.0584
     51 H19        32.5503   54.6245   -1.9416 H         1 NPJ         0.2101
     52 H20        35.6814   54.7978   -0.7342 H         1 NPJ         0.2100
     53 H21        33.7321   49.1224    1.9837 H         1 NPJ         0.2095
     54 H22        31.2613   46.6798   -1.6953 H         1 NPJ         0.0666
     55 H23        31.7951   48.8279   -0.6199 H         1 NPJ         0.0561
     56 H24        33.5588   50.2924   -4.3019 H         1 NPJ         0.0561
     57 H25        33.0372   48.1383   -5.4160 H         1 NPJ         0.0666
@<TRIPOS>BOND
     1    1    2 1  
     2    7    1 1  
     3    1   11 1  
     4    2    3 1  
     5    2    8 1  
     6    3    4 1  
     7    3    9 1  
     8    5    4 1  
     9    4   10 1  
    10    5    6 1  
    11   11    5 1  
    12    6   12 1  
    13   16    7 1  
    14   13   14 1  
    15   19   13 1  
    16   13   22 1  
    17   14   15 1  
    18   14   20 1  
    19   15   16 1  
    20   15   21 1  
    21   17   16 1  
    22   17   18 1  
    23   22   17 1  
    24   18   23 1  
    25   27   19 1  
    26   25   24 ar 
    27   24   29 ar 
    28   24   30 1  
    29   26   25 ar 
    30   26   27 ar 
    31   27   28 ar 
    32   28   29 ar 
    33   30   31 2  
    34   30   32 2  
    35    1   33 1  
    36    2   34 1  
    37    3   35 1  
    38    4   36 1  
    39    5   37 1  
    40    6   38 1  
    41    6   39 1  
    42    8   40 1  
    43    9   41 1  
    44   10   42 1  
    45   12   43 1  
    46   13   44 1  
    47   14   45 1  
    48   15   46 1  
    49   16   47 1  
    50   17   48 1  
    51   18   49 1  
    52   18   50 1  
    53   20   51 1  
    54   21   52 1  
    55   23   53 1  
    56   25   54 1  
    57   26   55 1  
    58   28   56 1  
    59   29   57 1  
@<TRIPOS>SUBSTRUCTURE
     1 NPJ         1

