### 
### Created by X-TOOL on Mon Sep 10 21:12:55 2018
### 

@<TRIPOS>MOLECULE
2gh6_ligand
   39    39     1     0     0
SMALL
GAST_HUCK


@<TRIPOS>ATOM
      1 C4        -12.5170   13.4370   45.7870 C.ar      1 CF3        -0.0413
      2 C2        -13.7240   13.7190   46.4410 C.ar      1 CF3        -0.0755
      3 C1        -14.2230   15.0270   46.4180 C.ar      1 CF3        -0.0772
      4 C3        -13.5100   16.0310   45.7400 C.ar      1 CF3        -0.0755
      5 C5        -12.3040   15.7400   45.0860 C.ar      1 CF3        -0.0413
      6 C14       -11.7830   14.4340   45.1020 C.ar      1 CF3         0.0662
      7 N1        -10.6030   14.1650   44.4560 N.am      1 CF3        -0.2339
      8 C12        -9.6230   13.3520   44.9270 C.2       1 CF3         0.2036
      9 O1         -9.6860   12.7510   45.9990 O.2       1 CF3        -0.3849
     10 C10        -8.3460   13.1550   44.0610 C.3       1 CF3         0.0432
     11 C8         -8.3740   11.7850   43.3510 C.3       1 CF3        -0.0356
     12 C6         -7.0860   10.9750   43.4520 C.3       1 CF3        -0.0508
     13 C7         -6.8920   10.2530   42.1110 C.3       1 CF3        -0.0509
     14 C9         -6.2070    8.8860   42.2440 C.3       1 CF3        -0.0373
     15 C11        -6.0660    8.3650   40.8190 C.3       1 CF3         0.0313
     16 C13        -4.9840    7.2870   40.5680 C.2       1 CF3         0.2297
     17 O2         -4.0070    7.1300   41.2920 O.2       1 CF3        -0.3232
     18 C15        -5.1270    6.4860   39.2780 C.3       1 CF3         0.4574
     19 F3         -6.3670    6.1790   38.9160 F         1 CF3        -0.1720
     20 F1         -4.6170    7.3310   38.3960 F         1 CF3        -0.1720
     21 F2         -4.3660    5.4280   39.1950 F         1 CF3        -0.1720
     22 H1        -12.1337   12.4232   45.8066 H         1 CF3         0.0502
     23 H2        -14.2644   12.9344   46.9581 H         1 CF3         0.0577
     24 H3        -15.1539   15.2641   46.9202 H         1 CF3         0.0487
     25 H4        -13.8974   17.0433   45.7224 H         1 CF3         0.0577
     26 H5        -11.7702   16.5266   44.5650 H         1 CF3         0.0502
     27 H6        -10.4530   14.6018   43.5690 H         1 CF3         0.2257
     28 H7         -7.4587   13.2077   44.7090 H         1 CF3         0.0508
     29 H8         -8.2959   13.9524   43.3050 H         1 CF3         0.0508
     30 H9         -8.5843   11.9582   42.2853 H         1 CF3         0.0290
     31 H10        -9.1862   11.1892   43.7930 H         1 CF3         0.0290
     32 H11        -7.1668   10.2401   44.2665 H         1 CF3         0.0267
     33 H12        -6.2349   11.6445   43.6452 H         1 CF3         0.0267
     34 H13        -6.2753   10.8893   41.4592 H         1 CF3         0.0267
     35 H14        -7.8795   10.1039   41.6500 H         1 CF3         0.0267
     36 H15        -6.8251    8.2024   42.8445 H         1 CF3         0.0289
     37 H16        -5.2183    8.9948   42.7138 H         1 CF3         0.0289
     38 H17        -5.8339    9.2245   40.1730 H         1 CF3         0.0489
     39 H18        -7.0355    7.9365   40.5250 H         1 CF3         0.0489
@<TRIPOS>BOND
     1    1    2 ar 
     2    1    6 ar 
     3    2    3 ar 
     4    3    4 ar 
     5    4    5 ar 
     6    5    6 ar 
     7    6    7 1  
     8    7    8 am 
     9    8    9 2  
    10    8   10 1  
    11   10   11 1  
    12   11   12 1  
    13   12   13 1  
    14   13   14 1  
    15   14   15 1  
    16   15   16 1  
    17   16   17 2  
    18   16   18 1  
    19   18   19 1  
    20   18   20 1  
    21   18   21 1  
    22    1   22 1  
    23    2   23 1  
    24    3   24 1  
    25    4   25 1  
    26    5   26 1  
    27    7   27 1  
    28   10   28 1  
    29   10   29 1  
    30   11   30 1  
    31   11   31 1  
    32   12   32 1  
    33   12   33 1  
    34   13   34 1  
    35   13   35 1  
    36   14   36 1  
    37   14   37 1  
    38   15   38 1  
    39   15   39 1  
@<TRIPOS>SUBSTRUCTURE
     1 CF3         1

