### 
### Created by X-TOOL on Mon Sep 10 21:12:53 2018
### 

@<TRIPOS>MOLECULE
2gh7_ligand
   31    32     1     0     0
SMALL
GAST_HUCK


@<TRIPOS>ATOM
      1 C11        32.7730   18.1450   14.0450 C.2       1 BTN         0.0348
      2 O11        33.7030   17.4480   13.5110 O.co2     1 BTN        -0.5690
      3 O12        32.7260   19.4420   13.8670 O.co2     1 BTN        -0.5690
      4 C10        31.7670   17.4900   14.9420 C.3       1 BTN         0.0002
      5 C9         31.3330   16.1390   14.5830 C.3       1 BTN        -0.0414
      6 C8         30.5220   16.1550   13.2690 C.3       1 BTN        -0.0505
      7 C7         30.1950   14.7530   12.7960 C.3       1 BTN        -0.0389
      8 C2         29.1750   14.6230   11.7500 C.3       1 BTN         0.0302
      9 S1         27.6110   15.2170   11.7390 S.3       1 BTN        -0.1527
     10 C6         27.1720   14.6510   10.1750 C.3       1 BTN         0.0190
     11 C5         27.8700   13.2950   10.0980 C.3       1 BTN         0.0750
     12 N1         26.9820   12.2340   10.5670 N.am      1 BTN        -0.2671
     13 C3         27.5330   11.6360   11.6670 C.2       1 BTN         0.2580
     14 O3         26.9870   10.6840   12.2560 O.2       1 BTN        -0.4008
     15 N2         28.7110   12.1630   11.9770 N.am      1 BTN        -0.2668
     16 C4         29.0700   13.2600   11.0340 C.3       1 BTN         0.0775
     17 H1         30.8732   18.1309   14.9612 H         1 BTN         0.0430
     18 H2         32.2045   17.4405   15.9500 H         1 BTN         0.0430
     19 H3         30.7039   15.7358   15.3902 H         1 BTN         0.0283
     20 H4         32.2178   15.4985   14.4529 H         1 BTN         0.0283
     21 H5         31.1110   16.6650   12.4925 H         1 BTN         0.0267
     22 H6         29.5830   16.7030   13.4361 H         1 BTN         0.0267
     23 H7         29.8492   14.1806   13.6693 H         1 BTN         0.0277
     24 H8         31.1241   14.3080   12.4103 H         1 BTN         0.0277
     25 H9         29.6425   15.2664   10.9901 H         1 BTN         0.0435
     26 H10        27.5378   15.3300    9.3907 H         1 BTN         0.0399
     27 H11        26.0812   14.5408   10.0852 H         1 BTN         0.0399
     28 H12        28.1846   13.1032    9.0616 H         1 BTN         0.0584
     29 H13        26.1084   11.9841   10.1494 H         1 BTN         0.1849
     30 H14        29.2818   11.8638   12.7416 H         1 BTN         0.1849
     31 H15        30.0055   13.0390   10.4991 H         1 BTN         0.0587
@<TRIPOS>BOND
     1    1    2 ar 
     2    1    3 ar 
     3    1    4 1  
     4    4    5 1  
     5    5    6 1  
     6    6    7 1  
     7    7    8 1  
     8    8    9 1  
     9    8   16 1  
    10    9   10 1  
    11   10   11 1  
    12   11   12 1  
    13   11   16 1  
    14   12   13 am 
    15   13   14 2  
    16   13   15 am 
    17   15   16 1  
    18    4   17 1  
    19    4   18 1  
    20    5   19 1  
    21    5   20 1  
    22    6   21 1  
    23    6   22 1  
    24    7   23 1  
    25    7   24 1  
    26    8   25 1  
    27   10   26 1  
    28   10   27 1  
    29   11   28 1  
    30   12   29 1  
    31   15   30 1  
    32   16   31 1  
@<TRIPOS>SUBSTRUCTURE
     1 BTN         1

