### 
### Created by X-TOOL on Mon Sep 10 21:12:56 2018
### 

@<TRIPOS>MOLECULE
2ghg_ligand
   64    69     1     0     0
SMALL
GAST_HUCK


@<TRIPOS>ATOM
      1 C1         -1.5120    8.8540  -19.4980 C.2       1 A53         0.0359
      2 C2         -0.5240    7.9510  -19.4040 C.2       1 A53        -0.0885
      3 C3          0.6660    8.4330  -20.1190 C.2       1 A53        -0.0987
      4 C4          0.4120    9.6370  -20.6520 C.2       1 A53         0.0024
      5 N5         -0.9730    9.9680  -20.2880 N.pl3     1 A53        -0.2933
      6 C6         -2.8710    8.7330  -18.9380 C.3       1 A53         0.0270
      7 C7         -4.0650    9.6030  -19.2120 C.3       1 A53         0.0948
      8 C8         -4.2370   10.8150  -20.0870 C.2       1 A53         0.2154
      9 N9         -5.4970   11.2360  -19.9790 N.am      1 A53        -0.2327
     10 C10        -6.2450   10.4450  -19.0990 C.ar      1 A53         0.0762
     11 C11        -5.3760    9.3890  -18.5870 C.ar      1 A53         0.0067
     12 O12        -3.3670   11.3160  -20.7840 O.2       1 A53        -0.3874
     13 C13        -7.6270   10.4360  -18.6100 C.ar      1 A53        -0.0430
     14 C14        -8.1090    9.4740  -17.6950 C.ar      1 A53        -0.0709
     15 C15        -7.2810    8.4480  -17.1950 C.ar      1 A53        -0.0338
     16 C16        -5.9370    8.4230  -17.6440 C.ar      1 A53        -0.0600
     17 C17        -7.8010    7.4050  -16.2130 C.ar      1 A53        -0.0109
     18 C18        -9.1680    7.2990  -15.8500 C.ar      1 A53         0.0033
     19 N19        -9.6210    6.3530  -14.9690 N.ar      1 A53        -0.3093
     20 C20        -8.7520    5.4710  -14.4030 C.ar      1 A53         0.0368
     21 C21        -7.3730    5.4890  -14.6950 C.ar      1 A53         0.1165
     22 C22        -6.9190    6.4760  -15.6100 C.ar      1 A53        -0.0108
     23 O23        -6.5510    4.5370  -14.0640 O.3       1 A53        -0.3054
     24 C24        -5.8870    3.5940  -14.9070 C.3       1 A53         0.1156
     25 C25        -6.6830    2.2860  -14.9220 C.3       1 A53         0.0083
     26 C26        -5.7890    1.0860  -15.2840 C.3       1 A53         0.0094
     27 N27        -7.7910    2.4220  -15.8700 N.4       1 A53         0.2236
     28 C28        -5.6500    0.1630  -14.0850 C.2       1 A53        -0.0409
     29 C29        -6.7010   -0.4440  -13.3830 C.2       1 A53         0.0166
     30 N30        -6.2030   -1.2000  -12.3760 N.pl3     1 A53        -0.2891
     31 C31        -4.8170   -1.1340  -12.3590 C.ar      1 A53         0.0603
     32 C32        -4.4260   -0.2710  -13.4460 C.ar      1 A53        -0.0214
     33 C33        -3.8460   -1.7180  -11.5450 C.ar      1 A53        -0.0443
     34 C34        -2.4660   -1.4600  -11.7800 C.ar      1 A53        -0.0768
     35 C35        -2.0750   -0.6060  -12.8510 C.ar      1 A53        -0.0792
     36 C36        -3.0700   -0.0110  -13.6790 C.ar      1 A53        -0.0747
     37 H1         -0.5937    7.0012  -18.8759 H         1 A53         0.0174
     38 H2          1.6091    7.8951  -20.2031 H         1 A53         0.0244
     39 H3          1.0963   10.2484  -21.2384 H         1 A53         0.0707
     40 H4         -1.4767   10.8297  -20.5423 H         1 A53         0.2312
     41 H5         -2.7294    8.7896  -17.8486 H         1 A53         0.0484
     42 H6         -3.1964    7.7189  -19.2133 H         1 A53         0.0484
     43 H7         -4.2980    8.9369  -20.0558 H         1 A53         0.0705
     44 H8         -5.8654   12.0256  -20.4698 H         1 A53         0.2274
     45 H9         -8.3082   11.2004  -18.9659 H         1 A53         0.0496
     46 H10        -9.1415    9.5258  -17.3689 H         1 A53         0.0547
     47 H11        -5.2871    7.6420  -17.2661 H         1 A53         0.0536
     48 H12        -9.8796    7.9913  -16.2853 H         1 A53         0.0716
     49 H13        -9.1321    4.7324  -13.7066 H         1 A53         0.0728
     50 H14        -5.8638    6.5194  -15.8544 H         1 A53         0.0638
     51 H15        -4.8745    3.4043  -14.5212 H         1 A53         0.0675
     52 H16        -5.8207    3.9963  -15.9286 H         1 A53         0.0675
     53 H17        -7.0969    2.1147  -13.9174 H         1 A53         0.0892
     54 H18        -4.7943    1.4491  -15.5817 H         1 A53         0.0405
     55 H19        -6.2425    0.5325  -16.1194 H         1 A53         0.0405
     56 H20        -8.3596    3.2130  -15.6110 H         1 A53         0.1999
     57 H21        -8.3523    1.5849  -15.8532 H         1 A53         0.1999
     58 H22        -7.4238    2.5618  -16.7983 H         1 A53         0.1999
     59 H23        -7.7588   -0.3253  -13.6130 H         1 A53         0.0795
     60 H24        -6.7730   -1.7473  -11.7153 H         1 A53         0.2216
     61 H25        -4.1432   -2.3699  -10.7315 H         1 A53         0.0541
     62 H26        -1.7135   -1.9129  -11.1447 H         1 A53         0.0530
     63 H27        -1.0249   -0.4097  -13.0352 H         1 A53         0.0510
     64 H28        -2.7767    0.6444  -14.4911 H         1 A53         0.0540
@<TRIPOS>BOND
     1    1    2 2  
     2    1    5 1  
     3    1    6 1  
     4    2    3 1  
     5    3    4 2  
     6    4    5 1  
     7    6    7 1  
     8    7    8 1  
     9    7   11 1  
    10    8    9 am 
    11    8   12 2  
    12    9   10 1  
    13   10   11 ar 
    14   10   13 ar 
    15   11   16 ar 
    16   13   14 ar 
    17   14   15 ar 
    18   15   16 ar 
    19   15   17 1  
    20   17   18 ar 
    21   17   22 ar 
    22   18   19 ar 
    23   19   20 ar 
    24   20   21 ar 
    25   21   22 ar 
    26   21   23 1  
    27   23   24 1  
    28   24   25 1  
    29   25   26 1  
    30   25   27 1  
    31   26   28 1  
    32   28   29 2  
    33   28   32 1  
    34   29   30 1  
    35   30   31 1  
    36   31   32 ar 
    37   31   33 ar 
    38   32   36 ar 
    39   33   34 ar 
    40   34   35 ar 
    41   35   36 ar 
    42    2   37 1  
    43    3   38 1  
    44    4   39 1  
    45    5   40 1  
    46    6   41 1  
    47    6   42 1  
    48    7   43 1  
    49    9   44 1  
    50   13   45 1  
    51   14   46 1  
    52   16   47 1  
    53   18   48 1  
    54   20   49 1  
    55   22   50 1  
    56   24   51 1  
    57   24   52 1  
    58   25   53 1  
    59   26   54 1  
    60   26   55 1  
    61   27   56 1  
    62   27   57 1  
    63   27   58 1  
    64   29   59 1  
    65   30   60 1  
    66   33   61 1  
    67   34   62 1  
    68   35   63 1  
    69   36   64 1  
@<TRIPOS>SUBSTRUCTURE
     1 A53         1

