### 
### Created by X-TOOL on Mon Sep 10 21:12:54 2018
### 

@<TRIPOS>MOLECULE
2giu_ligand
   39    41     1     0     0
SMALL
GAST_HUCK


@<TRIPOS>ATOM
      1 C1         22.9210    9.0370  115.3330 C.3       1 FBR        -0.0235
      2 C2         22.4450    8.0850  116.4500 C.3       1 FBR        -0.0554
      3 C3         20.9070    8.1950  116.5030 C.3       1 FBR         0.0238
      4 C4         20.3470    7.7940  115.1540 C.2       1 FBR         0.1791
      5 O5         19.2410    7.3180  115.1040 O.2       1 FBR        -0.3487
      6 C6         21.1430    8.0220  113.9260 C.2       1 FBR         0.1206
      7 BR7        20.4090    7.1960  112.5220 Br        1 FBR         0.0280
      8 C8         22.3490    8.6250  113.9990 C.2       1 FBR        -0.0175
      9 C9         23.4070    8.7370  112.9720 C.ar      1 FBR        -0.0196
     10 C10        23.3580    8.6780  111.5750 C.ar      1 FBR        -0.0628
     11 C11        24.5470    8.8530  110.8570 C.ar      1 FBR        -0.0342
     12 C12        25.7740    9.0260  111.5250 C.ar      1 FBR         0.0868
     13 O13        26.9270    9.1090  110.8390 O.3       1 FBR        -0.3311
     14 C14        25.8120    9.0600  112.9240 C.ar      1 FBR        -0.0269
     15 C15        24.6150    8.9510  113.6350 C.ar      1 FBR        -0.0452
     16 C16        24.4460    9.0220  115.1340 C.3       1 FBR        -0.0380
     17 C17        22.4130   10.4820  115.5210 C.3       1 FBR        -0.0712
     18 C18        23.1370   11.2900  116.6040 C.3       1 FBR        -0.0609
     19 C19        22.2290   12.2960  117.3190 C.3       1 FBR        -0.0567
     20 C20        23.0160   12.8190  118.5400 C.3       1 FBR        -0.0653
     21 H1         22.8797    8.3856  117.4147 H         1 FBR         0.0189
     22 H2         22.7431    7.0516  116.2195 H         1 FBR         0.0189
     23 H3         20.6172    9.2313  116.7313 H         1 FBR         0.0481
     24 H4         20.5141    7.5244  117.2814 H         1 FBR         0.0481
     25 H5         22.4206    8.5008  111.0602 H         1 FBR         0.0611
     26 H6         24.5225    8.8553  109.7733 H         1 FBR         0.0507
     27 H7         26.8892    9.8510  110.2469 H         1 FBR         0.2503
     28 H8         26.7553    9.1692  113.4469 H         1 FBR         0.0492
     29 H9         24.8958    8.1440  115.6207 H         1 FBR         0.0338
     30 H10        24.9024    9.9383  115.5365 H         1 FBR         0.0338
     31 H11        21.3463   10.4365  115.7857 H         1 FBR         0.0165
     32 H12        22.5311   11.0120  114.5644 H         1 FBR         0.0165
     33 H13        23.9653   11.8403  116.1338 H         1 FBR         0.0257
     34 H14        23.5391   10.5902  117.3514 H         1 FBR         0.0257
     35 H15        21.3029   11.8024  117.6487 H         1 FBR         0.0262
     36 H16        21.9807   13.1282  116.6440 H         1 FBR         0.0262
     37 H17        22.4010   13.5483  119.0876 H         1 FBR         0.0230
     38 H18        23.9427   13.3036  118.1988 H         1 FBR         0.0230
     39 H19        23.2649   11.9778  119.2036 H         1 FBR         0.0230
@<TRIPOS>BOND
     1    1    2 1  
     2    1    8 1  
     3    1   16 1  
     4    1   17 1  
     5    2    3 1  
     6    3    4 1  
     7    4    5 2  
     8    4    6 1  
     9    6    7 1  
    10    6    8 2  
    11    8    9 1  
    12    9   10 ar 
    13    9   15 ar 
    14   10   11 ar 
    15   11   12 ar 
    16   12   13 1  
    17   12   14 ar 
    18   14   15 ar 
    19   15   16 1  
    20   17   18 1  
    21   18   19 1  
    22   19   20 1  
    23    2   21 1  
    24    2   22 1  
    25    3   23 1  
    26    3   24 1  
    27   10   25 1  
    28   11   26 1  
    29   13   27 1  
    30   14   28 1  
    31   16   29 1  
    32   16   30 1  
    33   17   31 1  
    34   17   32 1  
    35   18   33 1  
    36   18   34 1  
    37   19   35 1  
    38   19   36 1  
    39   20   37 1  
    40   20   38 1  
    41   20   39 1  
@<TRIPOS>SUBSTRUCTURE
     1 FBR         1

