### 
### Created by X-TOOL on Mon Sep 10 21:12:55 2018
### 

@<TRIPOS>MOLECULE
2gj4_ligand
   35    38     1     0     0
SMALL
GAST_HUCK


@<TRIPOS>ATOM
      1 O1         14.6580  111.3140   28.9950 O.3       1 2TH        -0.3781
      2 C1         13.5350  110.7970   29.6810 C.3       1 2TH         0.1111
      3 C2         13.8790  110.1760   31.0060 C.ar      1 2TH        -0.0103
      4 C3         13.0310  109.0830   31.2370 C.ar      1 2TH        -0.0361
      5 C4         13.1320  108.3250   32.4060 C.ar      1 2TH        -0.0667
      6 C5         14.1030  108.6840   33.3520 C.ar      1 2TH        -0.0755
      7 C6         14.9530  109.7860   33.1230 C.ar      1 2TH        -0.0754
      8 C7         14.8400  110.5460   31.9460 C.ar      1 2TH        -0.0643
      9 C8         12.0960  108.9020   30.0730 C.3       1 2TH         0.0056
     10 C9         12.9350  109.5710   28.9540 C.3       1 2TH         0.0840
     11 N1         12.1550  109.8610   27.7330 N.am      1 2TH        -0.2788
     12 C10        12.6070  109.5790   26.4460 C.2       1 2TH         0.2136
     13 O2         13.7230  109.0730   26.2810 O.2       1 2TH        -0.3933
     14 C11        11.7400  109.8510   25.2950 C.2       1 2TH         0.1182
     15 C12        10.5320  110.5690   25.1160 C.2       1 2TH        -0.0608
     16 C13        10.1890  110.4310   23.7640 C.2       1 2TH        -0.0301
     17 C14        11.1050  109.6740   23.1410 C.2       1 2TH         0.1284
     18 S1         10.8140  109.4220   21.5150 S.3       1 2TH        -0.0096
     19 C15         9.3790  110.3860   21.6430 C.2       1 2TH         0.0806
     20 C16         9.1470  110.8750   22.9270 C.2       1 2TH        -0.0723
     21 CL1         8.4310  110.6170   20.2140 Cl        1 2TH        -0.0703
     22 N2         12.0380  109.3150   24.0480 N.pl3     1 2TH        -0.2631
     23 H1         15.2773  110.6128   28.8300 H         1 2TH         0.2129
     24 H2         12.7910  111.5984   29.8002 H         1 2TH         0.0767
     25 H3         12.4756  107.4796   32.5778 H         1 2TH         0.0537
     26 H4         14.2011  108.1101   34.2664 H         1 2TH         0.0541
     27 H5         15.7009  110.0495   33.8621 H         1 2TH         0.0541
     28 H6         15.4850  111.3999   31.7731 H         1 2TH         0.0538
     29 H7         11.1392  109.4207   30.2324 H         1 2TH         0.0436
     30 H8         11.9063  107.8392   29.8621 H         1 2TH         0.0436
     31 H9         13.7525  108.8977   28.6566 H         1 2TH         0.0623
     32 H10        11.2540  110.2824   27.8362 H         1 2TH         0.1843
     33 H11         9.9800  111.1186   25.8770 H         1 2TH         0.0351
     34 H12         8.3044  111.4943   23.2311 H         1 2TH         0.0377
     35 H13        12.8575  108.7253   23.8440 H         1 2TH         0.2313
@<TRIPOS>BOND
     1    1    2 1  
     2    2    3 1  
     3    2   10 1  
     4    3    4 ar 
     5    3    8 ar 
     6    4    5 ar 
     7    4    9 1  
     8    5    6 ar 
     9    6    7 ar 
    10    7    8 ar 
    11    9   10 1  
    12   10   11 1  
    13   11   12 am 
    14   12   13 2  
    15   12   14 1  
    16   14   15 2  
    17   14   22 1  
    18   15   16 1  
    19   16   17 2  
    20   16   20 1  
    21   17   18 1  
    22   17   22 1  
    23   18   19 1  
    24   19   20 2  
    25   19   21 1  
    26    1   23 1  
    27    2   24 1  
    28    5   25 1  
    29    6   26 1  
    30    7   27 1  
    31    8   28 1  
    32    9   29 1  
    33    9   30 1  
    34   10   31 1  
    35   11   32 1  
    36   15   33 1  
    37   20   34 1  
    38   22   35 1  
@<TRIPOS>SUBSTRUCTURE
     1 2TH         1

