### 
### Created by X-TOOL on Mon Sep 10 21:12:56 2018
### 

@<TRIPOS>MOLECULE
2gj5_ligand
   76    78     1     0     0
SMALL
GAST_HUCK


@<TRIPOS>ATOM
      1 O          -0.3760    0.1720   24.5870 O.3       1 VD3        -0.3914
      2 C1          0.7100    1.3280   21.4030 C.3       1 VD3        -0.0155
      3 C2          0.4350    1.6960   22.8140 C.3       1 VD3        -0.0148
      4 C3         -0.8320    1.0150   23.5110 C.3       1 VD3         0.0598
      5 C4         -1.6350    0.1660   22.4900 C.3       1 VD3        -0.0120
      6 C5         -1.8270    0.8320   21.0410 C.3       1 VD3        -0.0040
      7 C7         -3.0170    0.7230   20.3760 C.3       1 VD3        -0.0380
      8 C8         -4.4060    1.3320   20.3160 C.3       1 VD3        -0.0475
      9 C9         -4.6770    2.6370   19.8890 C.3       1 VD3        -0.0375
     10 C10        -4.6590    2.1750   18.3350 C.3       1 VD3        -0.0499
     11 C6         -0.5570    1.5740   20.5560 C.2       1 VD3        -0.0703
     12 C11        -4.3550    3.2200   17.3230 C.3       1 VD3        -0.0523
     13 C12        -4.6900    4.7220   17.6710 C.3       1 VD3        -0.0471
     14 C13        -4.3770    5.1520   19.1110 C.3       1 VD3        -0.0259
     15 C14        -3.7620    3.9740   19.9600 C.3       1 VD3        -0.0325
     16 C15        -3.5680    4.7120   21.3800 C.3       1 VD3        -0.0492
     17 C16        -3.2280    6.2690   21.0100 C.3       1 VD3        -0.0492
     18 C17        -3.2090    6.2670   19.4350 C.3       1 VD3        -0.0328
     19 C18        -5.8170    5.6360   19.6230 C.3       1 VD3        -0.0590
     20 C19        -0.5150    2.3310   19.5340 C.2       1 VD3        -0.1287
     21 C20        -3.5620    7.7220   18.7240 C.3       1 VD3        -0.0405
     22 C21        -2.8980    7.7440   17.3660 C.3       1 VD3        -0.0621
     23 C22        -3.0400    9.0810   19.3210 C.3       1 VD3        -0.0502
     24 C23        -4.1810   10.2680   18.9580 C.3       1 VD3        -0.0526
     25 C24        -3.2030   11.4000   18.5670 C.3       1 VD3        -0.0507
     26 C25        -3.4180   12.8640   19.0180 C.3       1 VD3        -0.0467
     27 C26        -2.1790   12.8600   19.7030 C.3       1 VD3        -0.0627
     28 C27        -3.0820   14.1050   18.3630 C.3       1 VD3        -0.0627
     29 H1         -1.1240   -0.2366   25.0065 H         1 VD3         0.2098
     30 H2          0.9883    0.2652   21.3478 H         1 VD3         0.0461
     31 H3          1.5356    1.9438   21.0167 H         1 VD3         0.0461
     32 H4          0.2868    2.7854   22.8494 H         1 VD3         0.0317
     33 H5          1.3226    1.4273   23.4055 H         1 VD3         0.0317
     34 H6         -1.4864    1.8012   23.9156 H         1 VD3         0.0597
     35 H7         -2.6332   -0.0195   22.9133 H         1 VD3         0.0319
     36 H8         -1.1096   -0.7912   22.3567 H         1 VD3         0.0319
     37 H9         -1.4899   -0.0868   20.5389 H         1 VD3         0.0496
     38 H10        -3.2602   -0.3347   20.5549 H         1 VD3         0.0294
     39 H11        -2.6871    0.8523   19.3347 H         1 VD3         0.0294
     40 H12        -4.8033    1.2662   21.3396 H         1 VD3         0.0270
     41 H13        -4.9894    0.6758   19.6533 H         1 VD3         0.0270
     42 H14        -5.6709    2.9271   20.2606 H         1 VD3         0.0304
     43 H15        -5.6519    1.7643   18.0996 H         1 VD3         0.0268
     44 H16        -3.9014    1.3841   18.2329 H         1 VD3         0.0268
     45 H17        -4.9168    2.9642   16.4125 H         1 VD3         0.0266
     46 H18        -3.2761    3.1673   17.1152 H         1 VD3         0.0266
     47 H19        -5.7647    4.8788   17.4965 H         1 VD3         0.0271
     48 H20        -4.1106    5.3647   16.9919 H         1 VD3         0.0271
     49 H21        -2.7722    3.6982   19.5672 H         1 VD3         0.0309
     50 H22        -2.7373    4.2583   21.9404 H         1 VD3         0.0268
     51 H23        -4.4901    4.6496   21.9765 H         1 VD3         0.0268
     52 H24        -2.2500    6.5667   21.4161 H         1 VD3         0.0268
     53 H25        -4.0059    6.9450   21.3945 H         1 VD3         0.0268
     54 H26        -2.2281    5.9318   19.0668 H         1 VD3         0.0309
     55 H27        -6.5672    4.8664   19.3887 H         1 VD3         0.0235
     56 H28        -6.0876    6.5766   19.1210 H         1 VD3         0.0235
     57 H29        -5.7844    5.7970   20.7106 H         1 VD3         0.0235
     58 H30         0.4179    2.8191   19.2559 H         1 VD3         0.0075
     59 H31        -1.4120    2.4907   18.9375 H         1 VD3         0.0075
     60 H32        -4.6568    7.7804   18.6351 H         1 VD3         0.0301
     61 H33        -3.1145    8.7003   16.8675 H         1 VD3         0.0233
     62 H34        -3.2859    6.9158   16.7547 H         1 VD3         0.0233
     63 H35        -1.8105    7.6319   17.4877 H         1 VD3         0.0233
     64 H36        -2.0712    9.3415   18.8699 H         1 VD3         0.0268
     65 H37        -2.9248    8.9922   20.4113 H         1 VD3         0.0268
     66 H38        -4.7971   10.5333   19.8298 H         1 VD3         0.0265
     67 H39        -4.8342    9.9756   18.1226 H         1 VD3         0.0265
     68 H40        -3.1770   11.4177   17.4675 H         1 VD3         0.0268
     69 H41        -2.2170   11.1013   18.9524 H         1 VD3         0.0268
     70 H42        -4.3580   12.9636   19.5806 H         1 VD3         0.0295
     71 H43        -2.0175   13.8407   20.1744 H         1 VD3         0.0232
     72 H44        -1.3663   12.6578   18.9898 H         1 VD3         0.0232
     73 H45        -2.1905   12.0786   20.4771 H         1 VD3         0.0232
     74 H46        -3.9088   14.4070   17.7033 H         1 VD3         0.0232
     75 H47        -2.1679   13.9690   17.7664 H         1 VD3         0.0232
     76 H48        -2.9132   14.8851   19.1199 H         1 VD3         0.0232
@<TRIPOS>BOND
     1    4    1 1  
     2    3    2 1  
     3    2   11 1  
     4    3    4 1  
     5    4    5 1  
     6    5    6 1  
     7    6    7 1  
     8    6   11 1  
     9    7    8 1  
    10    8    9 1  
    11    9   10 1  
    12    9   15 1  
    13   10   12 1  
    14   11   20 2  
    15   12   13 1  
    16   13   14 1  
    17   14   15 1  
    18   14   18 1  
    19   14   19 1  
    20   15   16 1  
    21   16   17 1  
    22   17   18 1  
    23   18   21 1  
    24   21   22 1  
    25   21   23 1  
    26   23   24 1  
    27   24   25 1  
    28   25   26 1  
    29   26   27 1  
    30   26   28 1  
    31    1   29 1  
    32    2   30 1  
    33    2   31 1  
    34    3   32 1  
    35    3   33 1  
    36    4   34 1  
    37    5   35 1  
    38    5   36 1  
    39    6   37 1  
    40    7   38 1  
    41    7   39 1  
    42    8   40 1  
    43    8   41 1  
    44    9   42 1  
    45   10   43 1  
    46   10   44 1  
    47   12   45 1  
    48   12   46 1  
    49   13   47 1  
    50   13   48 1  
    51   15   49 1  
    52   16   50 1  
    53   16   51 1  
    54   17   52 1  
    55   17   53 1  
    56   18   54 1  
    57   19   55 1  
    58   19   56 1  
    59   19   57 1  
    60   20   58 1  
    61   20   59 1  
    62   21   60 1  
    63   22   61 1  
    64   22   62 1  
    65   22   63 1  
    66   23   64 1  
    67   23   65 1  
    68   24   66 1  
    69   24   67 1  
    70   25   68 1  
    71   25   69 1  
    72   26   70 1  
    73   27   71 1  
    74   27   72 1  
    75   27   73 1  
    76   28   74 1  
    77   28   75 1  
    78   28   76 1  
@<TRIPOS>SUBSTRUCTURE
     1 VD3         1

