### 
### Created by X-TOOL on Mon Sep 10 21:12:55 2018
### 

@<TRIPOS>MOLECULE
2gkl_ligand
   15    15     1     0     0
SMALL
GAST_HUCK


@<TRIPOS>ATOM
      1 O42        19.3660   49.2270   66.3240 O.co2     1 PD2        -0.5574
      2 C41        18.2170   49.0580   66.8030 C.2       1 PD2         0.0728
      3 O41        17.2940   49.8860   66.6170 O.co2     1 PD2        -0.5574
      4 C4         17.9230   47.8450   67.6490 C.ar      1 PD2         0.0333
      5 C5         16.6120   47.4010   67.7940 C.ar      1 PD2        -0.0173
      6 C6         16.3330   46.2900   68.5930 C.ar      1 PD2         0.0184
      7 C3         18.9400   47.1580   68.3170 C.ar      1 PD2        -0.0054
      8 C2         18.6080   46.0370   69.0900 C.ar      1 PD2         0.0862
      9 N1         17.3200   45.6470   69.2100 N.ar      1 PD2        -0.2790
     10 C21        19.6640   45.2600   69.8330 C.2       1 PD2         0.0817
     11 O21        20.8630   45.6440   69.7830 O.co2     1 PD2        -0.5572
     12 O22        19.3010   44.2530   70.4800 O.co2     1 PD2        -0.5572
     13 H1         15.8061   47.9183   67.2860 H         1 PD2         0.0763
     14 H2         15.3100   45.9512   68.7104 H         1 PD2         0.0842
     15 H3         19.9699   47.4870   68.2386 H         1 PD2         0.0779
@<TRIPOS>BOND
     1    1    2 ar 
     2    2    3 ar 
     3    2    4 1  
     4    4    5 ar 
     5    4    7 ar 
     6    5    6 ar 
     7    6    9 ar 
     8    7    8 ar 
     9    8    9 ar 
    10    8   10 1  
    11   10   11 ar 
    12   10   12 ar 
    13    5   13 1  
    14    6   14 1  
    15    7   15 1  
@<TRIPOS>SUBSTRUCTURE
     1 PD2         1

