### 
### Created by X-TOOL on Mon Sep 10 21:12:53 2018
### 

@<TRIPOS>MOLECULE
2gl0_ligand
   32    34     1     0     0
SMALL
GAST_HUCK


@<TRIPOS>ATOM
      1 O5         18.6640   18.0410   12.2420 O.3       1 ADN        -0.3924
      2 C5         18.0650   19.2950   11.9860 C.3       1 ADN         0.0730
      3 C4         17.1780   18.8790   10.8360 C.3       1 ADN         0.1135
      4 O4         15.9370   18.4640   11.3880 O.3       1 ADN        -0.3368
      5 C3         16.8200   20.0210    9.9220 C.3       1 ADN         0.1146
      6 O3         17.6380   19.8210    8.8030 O.3       1 ADN        -0.3864
      7 C2         15.3300   19.8540    9.6280 C.3       1 ADN         0.1385
      8 O2         15.0560   18.7430    8.8310 O.3       1 ADN        -0.3836
      9 C1         14.8340   19.1950   10.8240 C.3       1 ADN         0.2010
     10 N9         14.3520   20.2020   11.7710 N.pl3     1 ADN        -0.1919
     11 C8         15.0600   21.1970   12.3440 C.2       1 ADN         0.1123
     12 N7         14.2660   21.9180   13.1750 N.2       1 ADN        -0.2958
     13 C5         13.0370   21.3850   13.1270 C.ar      1 ADN         0.1045
     14 C6         11.7380   21.6960   13.7580 C.ar      1 ADN         0.1298
     15 N6         11.5950   22.7330   14.6620 N.pl3     1 ADN        -0.3152
     16 N1         10.7150   20.8500   13.3990 N.ar      1 ADN        -0.2698
     17 C2         10.8640   19.8180   12.5150 C.ar      1 ADN         0.0533
     18 N3         11.9900   19.4770   11.9120 N.ar      1 ADN        -0.2714
     19 C4         13.0870   20.2290   12.2010 C.ar      1 ADN         0.1613
     20 H1         19.2747   18.1247   12.9650 H         1 ADN         0.2095
     21 H2         18.8024   20.0551   11.6886 H         1 ADN         0.0584
     22 H3         17.4859   19.6626   12.8459 H         1 ADN         0.0584
     23 H4         17.6591   18.0695   10.2674 H         1 ADN         0.0647
     24 H5         17.0148   21.0028   10.3781 H         1 ADN         0.0648
     25 H6         17.4427   18.9755    8.4164 H         1 ADN         0.2100
     26 H7         14.8391   20.7885    9.3188 H         1 ADN         0.0676
     27 H8         15.5076   18.8318    7.9999 H         1 ADN         0.2101
     28 H9         14.0150   18.5065   10.5686 H         1 ADN         0.0996
     29 H10        16.1162   21.3932   12.1654 H         1 ADN         0.1349
     30 H11        10.6755   22.9245   15.0848 H         1 ADN         0.1820
     31 H12        12.4080   23.3137   14.9124 H         1 ADN         0.1820
     32 H13         9.9829   19.2284   12.2889 H         1 ADN         0.0996
@<TRIPOS>BOND
     1    1    2 1  
     2    2    3 1  
     3    3    4 1  
     4    3    5 1  
     5    4    9 1  
     6    5    6 1  
     7    5    7 1  
     8    7    8 1  
     9    7    9 1  
    10    9   10 1  
    11   10   11 1  
    12   10   19 1  
    13   11   12 2  
    14   12   13 1  
    15   13   14 ar 
    16   13   19 ar 
    17   14   15 1  
    18   14   16 ar 
    19   16   17 ar 
    20   17   18 ar 
    21   18   19 ar 
    22    1   20 1  
    23    2   21 1  
    24    2   22 1  
    25    3   23 1  
    26    5   24 1  
    27    6   25 1  
    28    7   26 1  
    29    8   27 1  
    30    9   28 1  
    31   11   29 1  
    32   15   30 1  
    33   15   31 1  
    34   17   32 1  
@<TRIPOS>SUBSTRUCTURE
     1 ADN         1

