### 
### Created by X-TOOL on Mon Sep 10 21:12:55 2018
### 

@<TRIPOS>MOLECULE
2glm_ligand
   51    54     1     0     0
SMALL
GAST_HUCK


@<TRIPOS>ATOM
      1 C1        -88.3550   62.6110  193.3390 C.3       1 SCB         0.0366
      2 O1        -88.8490   63.7380  194.0550 O.3       1 SCB        -0.3803
      3 C2        -87.9920   64.0750  195.1610 C.3       1 SCB         0.0751
      4 C3        -88.7820   63.9070  196.4560 C.3       1 SCB         0.0922
      5 N1        -88.9920   65.1890  197.1420 N.am      1 SCB        -0.1684
      6 C4        -88.0240   66.1120  197.2430 C.2       1 SCB         0.2585
      7 O2        -86.9160   65.9490  196.7610 O.2       1 SCB        -0.3707
      8 C5        -88.3860   67.2620  197.9270 C.2       1 SCB         0.1243
      9 C6        -87.5820   68.3760  198.1730 C.2       1 SCB         0.0007
     10 C7        -86.1840   68.3570  198.0910 C.2       1 SCB         0.1155
     11 C8        -85.4510   67.6550  197.2290 C.2       1 SCB        -0.0488
     12 C9        -84.1640   67.9120  197.4590 C.2       1 SCB        -0.0474
     13 C10       -84.0990   68.7900  198.4550 C.2       1 SCB         0.1241
     14 O3        -85.3580   69.0880  198.8830 O.3       1 SCB        -0.2554
     15 C11       -82.9880   69.3370  199.0730 C.ar      1 SCB         0.0147
     16 C12       -83.1980   70.2470  200.0970 C.ar      1 SCB        -0.0514
     17 C13       -82.1220   70.8010  200.7660 C.ar      1 SCB        -0.0465
     18 C14       -80.8370   70.4330  200.4050 C.ar      1 SCB         0.0521
     19 CL1       -79.4710   71.1180  201.2120 Cl        1 SCB        -0.0688
     20 C15       -80.6220   69.5190  199.3840 C.ar      1 SCB         0.0220
     21 C16       -81.7010   68.9550  198.7150 C.ar      1 SCB        -0.0396
     22 C17       -79.1740   69.1610  199.0590 C.2       1 SCB         0.0627
     23 O4        -78.9430   68.2910  198.2050 O.co2     1 SCB        -0.5607
     24 O5        -78.2920   69.7510  199.7100 O.co2     1 SCB        -0.5607
     25 S1        -90.0010   67.0520  198.3990 S.3       1 SCB         0.0418
     26 C18       -90.1560   65.5210  197.7140 C.2       1 SCB         0.2180
     27 N2        -91.2340   64.7440  197.7350 N.2       1 SCB        -0.3076
     28 C19       -92.4780   65.1990  197.8960 C.ar      1 SCB        -0.0113
     29 C20       -92.7380   66.5420  198.0870 C.ar      1 SCB        -0.0607
     30 C21       -94.0440   66.9840  198.2490 C.ar      1 SCB        -0.0714
     31 C22       -95.0970   66.0890  198.2170 C.ar      1 SCB        -0.0714
     32 C23       -94.8420   64.7440  198.0280 C.ar      1 SCB        -0.0714
     33 C24       -93.5390   64.3050  197.8740 C.ar      1 SCB        -0.0607
     34 H1        -89.0324   62.3820  192.5031 H         1 SCB         0.0524
     35 H2        -88.2988   61.7439  194.0135 H         1 SCB         0.0524
     36 H3        -87.3522   62.8363  192.9471 H         1 SCB         0.0524
     37 H4        -87.6551   65.1177  195.0648 H         1 SCB         0.0587
     38 H5        -87.1184   63.4067  195.1703 H         1 SCB         0.0587
     39 H6        -88.2278   63.2326  197.1253 H         1 SCB         0.0640
     40 H7        -89.7616   63.4658  196.2199 H         1 SCB         0.0640
     41 H8        -88.0687   69.3118  198.4437 H         1 SCB         0.0612
     42 H9        -85.8385   66.9834  196.4643 H         1 SCB         0.0415
     43 H10       -83.3176   67.4804  196.9268 H         1 SCB         0.0418
     44 H11       -84.2084   70.5252  200.3742 H         1 SCB         0.0623
     45 H12       -82.2829   71.5160  201.5648 H         1 SCB         0.0622
     46 H13       -81.5414   68.2286  197.9264 H         1 SCB         0.0639
     47 H14       -91.9200   67.2529  198.1105 H         1 SCB         0.0536
     48 H15       -94.2396   68.0392  198.4018 H         1 SCB         0.0592
     49 H16       -96.1154   66.4396  198.3393 H         1 SCB         0.0536
     50 H17       -95.6611   64.0345  198.0005 H         1 SCB         0.0592
     51 H18       -93.3442   63.2478  197.7342 H         1 SCB         0.0536
@<TRIPOS>BOND
     1    1    2 1  
     2    2    3 1  
     3    3    4 1  
     4    4    5 1  
     5    5    6 am 
     6    5   26 1  
     7    6    7 2  
     8    6    8 1  
     9    8    9 2  
    10    8   25 1  
    11    9   10 1  
    12   10   11 2  
    13   10   14 1  
    14   11   12 1  
    15   12   13 2  
    16   13   14 1  
    17   13   15 1  
    18   15   16 ar 
    19   15   21 ar 
    20   16   17 ar 
    21   17   18 ar 
    22   18   19 1  
    23   18   20 ar 
    24   20   21 ar 
    25   20   22 1  
    26   22   23 ar 
    27   22   24 ar 
    28   25   26 1  
    29   26   27 2  
    30   27   28 1  
    31   28   29 ar 
    32   28   33 ar 
    33   29   30 ar 
    34   30   31 ar 
    35   31   32 ar 
    36   32   33 ar 
    37    1   34 1  
    38    1   35 1  
    39    1   36 1  
    40    3   37 1  
    41    3   38 1  
    42    4   39 1  
    43    4   40 1  
    44    9   41 1  
    45   11   42 1  
    46   12   43 1  
    47   16   44 1  
    48   17   45 1  
    49   21   46 1  
    50   29   47 1  
    51   30   48 1  
    52   31   49 1  
    53   32   50 1  
    54   33   51 1  
@<TRIPOS>SUBSTRUCTURE
     1 SCB         1

