### 
### Created by X-TOOL on Mon Sep 10 21:12:55 2018
### 

@<TRIPOS>MOLECULE
2glp_ligand
   30    31     1     0     0
SMALL
GAST_HUCK


@<TRIPOS>ATOM
      1 CAE       -72.6410   33.3490  129.1280 C.ar      1 BDE        -0.0219
      2 CAF       -72.5740   31.9620  129.0540 C.ar      1 BDE        -0.0285
      3 CAA       -71.3490   31.3380  129.2700 C.ar      1 BDE         0.0154
      4 NAB       -70.2720   32.0590  129.5360 N.ar      1 BDE        -0.2904
      5 CAC       -70.3000   33.3800  129.6130 C.ar      1 BDE         0.0318
      6 CAD       -71.4910   34.0750  129.4200 C.ar      1 BDE         0.0859
      7 CAG       -71.5530   35.5690  129.7500 C.2       1 BDE         0.2554
      8 OAU       -70.5160   36.1890  129.9840 O.2       1 BDE        -0.3675
      9 NAH       -72.7450   36.1620  129.7320 N.am      1 BDE        -0.1723
     10 NAI       -73.8090   35.6430  129.3890 N.2       1 BDE        -0.1995
     11 CAJ       -74.8920   36.3790  129.5570 C.2       1 BDE         0.0212
     12 CAK       -76.0400   36.3070  128.7770 C.ar      1 BDE         0.0104
     13 CAL       -77.1630   36.9960  129.2280 C.ar      1 BDE        -0.0585
     14 CAM       -78.3770   36.8780  128.5590 C.ar      1 BDE         0.0319
     15 BRAT      -79.9410   37.6630  129.2840 Br        1 BDE        -0.0662
     16 CAN       -78.4650   36.0970  127.4120 C.ar      1 BDE         0.0994
     17 OAS       -79.6440   35.9880  126.7420 O.3       1 BDE        -0.3315
     18 CAO       -77.3390   35.4260  126.9470 C.ar      1 BDE         0.0709
     19 BRAR      -77.3610   34.7420  125.1810 Br        1 BDE        -0.0658
     20 CAP       -76.1350   35.5020  127.6430 C.ar      1 BDE         0.1028
     21 OAQ       -75.0630   34.7920  127.2020 O.3       1 BDE        -0.3291
     22 H1        -73.5819   33.8603  128.9595 H         1 BDE         0.0788
     23 H2        -73.4596   31.3776  128.8322 H         1 BDE         0.0722
     24 H3        -71.2769   30.2575  129.2201 H         1 BDE         0.0857
     25 H4        -69.3882   33.9254  129.8281 H         1 BDE         0.0878
     26 H5        -72.7803   37.1178  130.0241 H         1 BDE         0.2493
     27 H6        -74.8853   37.1007  130.3725 H         1 BDE         0.0688
     28 H7        -77.0908   37.6281  130.1057 H         1 BDE         0.0603
     29 H8        -80.3019   35.6182  127.3191 H         1 BDE         0.2512
     30 H9        -74.3233   34.9472  127.7775 H         1 BDE         0.2521
@<TRIPOS>BOND
     1    1    2 ar 
     2    1    6 ar 
     3    2    3 ar 
     4    3    4 ar 
     5    4    5 ar 
     6    5    6 ar 
     7    6    7 1  
     8    7    8 2  
     9    7    9 am 
    10    9   10 1  
    11   10   11 2  
    12   11   12 1  
    13   12   13 ar 
    14   12   20 ar 
    15   13   14 ar 
    16   14   15 1  
    17   14   16 ar 
    18   16   17 1  
    19   16   18 ar 
    20   18   19 1  
    21   18   20 ar 
    22   20   21 1  
    23    1   22 1  
    24    2   23 1  
    25    3   24 1  
    26    5   25 1  
    27    9   26 1  
    28   11   27 1  
    29   13   28 1  
    30   17   29 1  
    31   21   30 1  
@<TRIPOS>SUBSTRUCTURE
     1 BDE         1

