### 
### Created by X-TOOL on Mon Sep 10 21:12:55 2018
### 

@<TRIPOS>MOLECULE
2gm1_ligand
   67    71     1     0     0
SMALL
GAST_HUCK


@<TRIPOS>ATOM
      1 C1          6.3970   40.8070   28.9060 C.3       1 2AZ        -0.0450
      2 C9          7.8920   39.7690   30.7090 C.3       1 2AZ         0.1299
      3 C11         7.9790   38.3350   30.0640 C.2       1 2AZ         0.1811
      4 C14         8.0670   35.7620   29.1930 C.2       1 2AZ         0.1620
      5 C15         7.7720   34.4930   28.9000 C.2       1 2AZ         0.0337
      6 C16         6.4170   34.1960   29.3330 C.2       1 2AZ        -0.0673
      7 C21         9.2360   36.6080   28.9650 C.2       1 2AZ         0.2543
      8 C27        10.2090   41.0440   28.1940 C.ar      1 2AZ        -0.0577
      9 C31         9.6720   41.4030   25.8460 C.ar      1 2AZ        -0.0687
     10 C33         9.5000   40.0260   25.6590 C.ar      1 2AZ        -0.0685
     11 C35         9.6610   39.1650   26.7530 C.ar      1 2AZ        -0.0577
     12 C4          6.5230   40.3570   30.3090 C.3       1 2AZ         0.0001
     13 C6          6.3720   41.8060   30.0220 C.3       1 2AZ        -0.0450
     14 N12         6.8820   37.5070   30.1670 N.2       1 2AZ        -0.1891
     15 N13         6.9060   36.3170   29.8070 N.pl3     1 2AZ        -0.1962
     16 C18         5.8640   35.2940   29.8830 C.2       1 2AZ         0.0390
     17 CL2         8.7610   33.4300   28.0650 Cl        1 2AZ        -0.1028
     18 N22         9.1260   37.8830   29.4190 N.am      1 2AZ        -0.1770
     19 C23        10.2680   38.7380   29.1660 C.3       1 2AZ         0.0986
     20 C26        10.0190   39.6640   28.0210 C.ar      1 2AZ        -0.0132
     21 C29        10.0350   41.9060   27.1090 C.ar      1 2AZ        -0.0685
     22 O37        10.2380   36.1850   28.3980 O.2       1 2AZ        -0.3883
     23 N38         8.1570   39.7310   32.2190 N.am      1 2AZ        -0.2505
     24 C39         7.2140   38.9430   33.0780 C.3       1 2AZ         0.0414
     25 C42         7.7600   37.9830   34.2010 C.3       1 2AZ         0.0079
     26 C45         9.1530   37.4080   33.9630 C.3       1 2AZ        -0.0335
     27 N48         9.3340   36.0730   34.4940 N.4       1 2AZ         0.2186
     28 C51         9.1350   40.4410   32.9320 C.2       1 2AZ         0.2051
     29 O52         9.1880   40.3440   34.1530 O.2       1 2AZ        -0.3874
     30 C53        10.1120   41.3110   32.2470 C.ar      1 2AZ         0.0431
     31 C54        11.3610   40.7850   31.8630 C.ar      1 2AZ        -0.0485
     32 C56        12.2940   41.6210   31.2110 C.ar      1 2AZ        -0.0547
     33 C58        12.0100   42.9890   30.9640 C.ar      1 2AZ        -0.0414
     34 C59        10.7530   43.5090   31.3460 C.ar      1 2AZ        -0.0547
     35 C61         9.8130   42.6830   31.9900 C.ar      1 2AZ        -0.0485
     36 C63        13.0520   43.8680   30.3400 C.3       1 2AZ        -0.0289
     37 H1          5.4791   40.5918   28.3392 H         1 2AZ         0.0271
     38 H2          7.2646   40.7566   28.2317 H         1 2AZ         0.0271
     39 H3          8.6743   40.4003   30.2623 H         1 2AZ         0.0826
     40 H4          5.9231   33.2311   29.2285 H         1 2AZ         0.0289
     41 H5         10.4891   41.4383   29.1641 H         1 2AZ         0.0557
     42 H6          9.5251   42.0836   25.0152 H         1 2AZ         0.0559
     43 H7          9.2459   39.6315   24.6818 H         1 2AZ         0.0599
     44 H8          9.5079   38.0999   26.6217 H         1 2AZ         0.0557
     45 H9          5.7106   39.8108   30.8106 H         1 2AZ         0.0354
     46 H10         5.4360   42.3242   30.2775 H         1 2AZ         0.0271
     47 H11         7.2215   42.4890   30.1700 H         1 2AZ         0.0271
     48 H12         4.8609   35.3973   30.2941 H         1 2AZ         0.0826
     49 H13        11.1400   38.1092   28.9333 H         1 2AZ         0.0776
     50 H14        10.4751   39.3330   30.0677 H         1 2AZ         0.0776
     51 H15        10.1809   42.9720   27.2410 H         1 2AZ         0.0599
     52 H16         6.6143   38.3209   32.3973 H         1 2AZ         0.0526
     53 H17         6.5610   39.6728   33.5789 H         1 2AZ         0.0526
     54 H18         7.0588   37.1407   34.2954 H         1 2AZ         0.0337
     55 H19         7.7845   38.5473   35.1449 H         1 2AZ         0.0337
     56 H20         9.8885   38.0730   34.4392 H         1 2AZ         0.0814
     57 H21         9.3346   37.3772   32.8785 H         1 2AZ         0.0814
     58 H22        10.2722   35.7590   34.3010 H         1 2AZ         0.1994
     59 H23         8.6742   35.4465   34.0602 H         1 2AZ         0.1994
     60 H24         9.1817   36.0842   35.4904 H         1 2AZ         0.1994
     61 H25        11.6038   39.7482   32.0660 H         1 2AZ         0.0652
     62 H26        13.2453   41.2097   30.8932 H         1 2AZ         0.0570
     63 H27        10.5122   44.5462   31.1426 H         1 2AZ         0.0570
     64 H28         8.8556   43.0913   32.2929 H         1 2AZ         0.0652
     65 H29        13.9501   43.2723   30.1197 H         1 2AZ         0.0401
     66 H30        13.3118   44.6794   31.0358 H         1 2AZ         0.0401
     67 H31        12.6587   44.2972   29.4067 H         1 2AZ         0.0401
@<TRIPOS>BOND
     1   12    1 1  
     2   13    1 1  
     3    3    2 1  
     4    2   12 1  
     5    2   23 1  
     6    3   14 2  
     7   18    3 am 
     8    4    5 2  
     9    7    4 1  
    10    4   15 1  
    11    5    6 1  
    12    5   17 1  
    13   16    6 2  
    14   18    7 am 
    15    7   22 2  
    16   20    8 ar 
    17    8   21 ar 
    18   10    9 ar 
    19   21    9 ar 
    20   11   10 ar 
    21   20   11 ar 
    22   12   13 1  
    23   14   15 1  
    24   15   16 1  
    25   19   18 1  
    26   19   20 1  
    27   23   24 1  
    28   23   28 am 
    29   24   25 1  
    30   25   26 1  
    31   26   27 1  
    32   28   29 2  
    33   28   30 1  
    34   30   31 ar 
    35   30   35 ar 
    36   31   32 ar 
    37   32   33 ar 
    38   33   34 ar 
    39   33   36 1  
    40   34   35 ar 
    41    1   37 1  
    42    1   38 1  
    43    2   39 1  
    44    6   40 1  
    45    8   41 1  
    46    9   42 1  
    47   10   43 1  
    48   11   44 1  
    49   12   45 1  
    50   13   46 1  
    51   13   47 1  
    52   16   48 1  
    53   19   49 1  
    54   19   50 1  
    55   21   51 1  
    56   24   52 1  
    57   24   53 1  
    58   25   54 1  
    59   25   55 1  
    60   26   56 1  
    61   26   57 1  
    62   27   58 1  
    63   27   59 1  
    64   27   60 1  
    65   31   61 1  
    66   32   62 1  
    67   34   63 1  
    68   35   64 1  
    69   36   65 1  
    70   36   66 1  
    71   36   67 1  
@<TRIPOS>SUBSTRUCTURE
     1 2AZ         1

