### 
### Created by X-TOOL on Mon Sep 10 21:12:55 2018
### 

@<TRIPOS>MOLECULE
2gm9_ligand
   35    38     1     0     0
SMALL
GAST_HUCK


@<TRIPOS>ATOM
      1 CL          8.4090  109.4230   20.0190 Cl        1 3TH        -0.0703
      2 C2          9.3650  109.2080   21.4500 C.2       1 3TH         0.0806
      3 C3          9.0730  109.6900   22.7380 C.2       1 3TH        -0.0723
      4 C4         10.0940  109.2700   23.5910 C.2       1 3TH        -0.0301
      5 C5         10.3880  109.4250   24.9590 C.2       1 3TH        -0.0608
      6 C6         11.6020  108.7310   25.1520 C.2       1 3TH         0.1184
      7 N7         11.9340  108.2100   23.9010 N.pl3     1 3TH        -0.2631
      8 C9         11.0330  108.5370   22.9750 C.2       1 3TH         0.1284
      9 S10        10.8210  108.2610   21.3320 S.3       1 3TH        -0.0096
     10 C11        12.4830  108.4900   26.3220 C.2       1 3TH         0.2154
     11 O12        13.6500  108.0820   26.1080 O.2       1 3TH        -0.3932
     12 N13        12.0030  108.6990   27.6230 N.am      1 3TH        -0.2646
     13 C14        12.8180  108.4690   28.8370 C.3       1 3TH         0.1429
     14 C15        12.0530  107.9280   30.0480 C.3       1 3TH         0.0179
     15 C16        12.9410  107.8980   31.2730 C.ar      1 3TH        -0.0166
     16 C17        12.8360  106.8850   32.2470 C.ar      1 3TH        -0.0733
     17 C18        13.6900  106.8680   33.3500 C.ar      1 3TH        -0.0840
     18 C19        14.6550  107.8770   33.5210 C.ar      1 3TH        -0.0825
     19 C20        14.7740  108.9100   32.5790 C.ar      1 3TH        -0.0475
     20 C21        13.9190  108.9140   31.4610 C.ar      1 3TH         0.0691
     21 N22        14.0530  109.9110   30.4900 N.am      1 3TH        -0.2349
     22 C23        13.5610  109.7660   29.2100 C.2       1 3TH         0.2291
     23 O24        13.7340  110.6710   28.4100 O.2       1 3TH        -0.3830
     24 H1          8.2052  110.2847   23.0195 H         1 3TH         0.0377
     25 H2          9.8058  109.9630   25.7056 H         1 3TH         0.0351
     26 H3         12.7730  107.6420   23.7157 H         1 3TH         0.2313
     27 H4         11.0626  109.0196   27.7363 H         1 3TH         0.1869
     28 H5         13.5719  107.7118   28.5759 H         1 3TH         0.0824
     29 H6         11.7056  106.9075   29.8290 H         1 3TH         0.0445
     30 H7         11.1864  108.5758   30.2463 H         1 3TH         0.0445
     31 H8         12.0844  106.1115   32.1381 H         1 3TH         0.0513
     32 H9         13.6093  106.0713   34.0807 H         1 3TH         0.0470
     33 H10        15.3098  107.8564   34.3846 H         1 3TH         0.0520
     34 H11        15.5126  109.6925   32.7102 H         1 3TH         0.0480
     35 H12        14.5226  110.7599   30.7325 H         1 3TH         0.2235
@<TRIPOS>BOND
     1    1    2 1  
     2    2    3 2  
     3    2    9 1  
     4    3    4 1  
     5    4    5 1  
     6    4    8 2  
     7    5    6 2  
     8    6    7 1  
     9    6   10 1  
    10    7    8 1  
    11    8    9 1  
    12   10   11 2  
    13   10   12 am 
    14   12   13 1  
    15   13   14 1  
    16   13   22 1  
    17   14   15 1  
    18   15   16 ar 
    19   15   20 ar 
    20   16   17 ar 
    21   17   18 ar 
    22   18   19 ar 
    23   19   20 ar 
    24   20   21 1  
    25   21   22 am 
    26   22   23 2  
    27    3   24 1  
    28    5   25 1  
    29    7   26 1  
    30   12   27 1  
    31   13   28 1  
    32   14   29 1  
    33   14   30 1  
    34   16   31 1  
    35   17   32 1  
    36   18   33 1  
    37   19   34 1  
    38   21   35 1  
@<TRIPOS>SUBSTRUCTURE
     1 3TH         1

