### 
### Created by X-TOOL on Mon Sep 10 21:12:56 2018
### 

@<TRIPOS>MOLECULE
2gmv_ligand
   68    72     1     0     0
SMALL
GAST_HUCK


@<TRIPOS>ATOM
      1 O2         21.8840   -3.3890   46.2810 O.2       1 UN8        -0.1484
      2 S1         23.1200   -4.0540   46.2720 S.o2      1 UN8         0.0826
      3 O1         23.9360   -4.3240   47.3720 O.2       1 UN8        -0.1484
      4 C1         24.2070   -3.2650   45.1030 C.2       1 UN8         0.1528
      5 C2         24.1620   -2.0160   44.4040 C.2       1 UN8         0.0631
      6 N5         25.4010   -1.7600   43.8020 N.pl3     1 UN8        -0.2532
      7 C4         25.7780   -0.6540   42.9610 C.3       1 UN8         0.0475
      8 C3         26.2430   -2.8120   44.2270 C.2       1 UN8         0.0989
      9 N7         25.5720   -3.6530   45.0360 N.2       1 UN8        -0.3031
     10 N4         22.8180   -5.6470   45.7660 N.am      1 UN8        -0.1937
     11 C8         22.3270   -6.1050   44.5150 C.ar      1 UN8         0.0557
     12 C9         22.6110   -7.3960   43.9870 C.ar      1 UN8        -0.0512
     13 C30        22.1800   -7.8080   42.7220 C.ar      1 UN8        -0.0732
     14 C7         21.5770   -5.2840   43.6490 C.ar      1 UN8        -0.0512
     15 C6         21.1330   -5.7060   42.3990 C.ar      1 UN8        -0.0732
     16 C5         21.4070   -6.9880   41.8890 C.ar      1 UN8        -0.0435
     17 C16        20.9950   -7.3780   40.4980 C.3       1 UN8         0.0437
     18 C14        21.9070   -6.6990   39.4940 C.2       1 UN8         0.1124
     19 N15        23.1300   -7.2250   39.0510 N.2       1 UN8        -0.3410
     20 C55        23.6890   -6.2850   38.1850 C.2       1 UN8         0.0958
     21 C56        24.9180   -6.3550   37.3990 C.2       1 UN8         0.1998
     22 O57        25.7200   -7.2940   37.4390 O.2       1 UN8        -0.4092
     23 C54        22.7800   -5.1810   38.1460 C.2       1 UN8         0.1961
     24 N13        21.6810   -5.4560   38.9730 N.pl3     1 UN8        -0.2279
     25 N53        23.0770   -4.0620   37.3740 N.am      1 UN8        -0.1724
     26 C59        22.1160   -2.9860   37.1320 C.3       1 UN8         0.0619
     27 C10        21.4340   -3.1380   35.7690 C.3       1 UN8        -0.0269
     28 C11        20.5680   -1.9700   35.3480 C.3       1 UN8        -0.0536
     29 C12        20.0280   -2.2460   33.9640 C.3       1 UN8        -0.0652
     30 C52        24.2670   -4.1270   36.5830 C.2       1 UN8         0.3271
     31 O58        24.5610   -3.1490   35.8580 O.2       1 UN8        -0.3848
     32 N51        25.2190   -5.1950   36.6850 N.am      1 UN8        -0.1625
     33 C17        26.2050   -5.1460   35.6180 C.3       1 UN8         0.0930
     34 C18        27.5480   -4.6870   36.0910 C.ar      1 UN8         0.0176
     35 C19        28.7090   -5.4250   35.8220 C.ar      1 UN8         0.1354
     36 F24        28.6140   -6.5740   35.1180 F         1 UN8        -0.1890
     37 C20        29.9700   -4.9720   36.2510 C.ar      1 UN8        -0.0348
     38 C21        30.0770   -3.7890   36.9740 C.ar      1 UN8        -0.0706
     39 C22        28.9290   -3.0470   37.2560 C.ar      1 UN8        -0.0725
     40 C23        27.6840   -3.4900   36.8120 C.ar      1 UN8        -0.0597
     41 H1         23.2932   -1.3618   44.3485 H         1 UN8         0.0881
     42 H2         26.8301   -0.7646   42.6596 H         1 UN8         0.0589
     43 H3         25.6525    0.2877   43.5154 H         1 UN8         0.0589
     44 H4         25.1396   -0.6401   42.0653 H         1 UN8         0.0589
     45 H5         27.2874   -2.9263   43.9405 H         1 UN8         0.1215
     46 H6         23.0124   -6.3589   46.4408 H         1 UN8         0.2134
     47 H7         23.1856   -8.0890   44.5909 H         1 UN8         0.0467
     48 H8         22.4537   -8.7972   42.3733 H         1 UN8         0.0519
     49 H9         21.3348   -4.2777   43.9712 H         1 UN8         0.0467
     50 H10        20.5526   -5.0188   41.7941 H         1 UN8         0.0519
     51 H11        19.9558   -7.0636   40.3212 H         1 UN8         0.0607
     52 H12        21.0723   -8.4694   40.3846 H         1 UN8         0.0607
     53 H13        20.8702   -4.8463   39.1511 H         1 UN8         0.2381
     54 H14        22.6443   -2.0216   37.1616 H         1 UN8         0.0595
     55 H15        21.3487   -3.0082   37.9199 H         1 UN8         0.0595
     56 H16        20.8002   -4.0364   35.8038 H         1 UN8         0.0290
     57 H17        22.2180   -3.2716   35.0091 H         1 UN8         0.0290
     58 H18        21.1689   -1.0487   35.3346 H         1 UN8         0.0263
     59 H19        19.7335   -1.8533   36.0551 H         1 UN8         0.0263
     60 H20        19.3955   -1.4053   33.6428 H         1 UN8         0.0230
     61 H21        19.4300   -3.1691   33.9811 H         1 UN8         0.0230
     62 H22        20.8653   -2.3645   33.2606 H         1 UN8         0.0230
     63 H23        25.8494   -4.4519   34.8423 H         1 UN8         0.0732
     64 H24        26.3089   -6.1535   35.1888 H         1 UN8         0.0732
     65 H25        30.8595   -5.5460   36.0176 H         1 UN8         0.0585
     66 H26        31.0463   -3.4451   37.3166 H         1 UN8         0.0549
     67 H27        29.0056   -2.1251   37.8210 H         1 UN8         0.0565
     68 H28        26.8022   -2.8977   37.0280 H         1 UN8         0.0546
@<TRIPOS>BOND
     1    1    2 2  
     2    2    3 2  
     3    2    4 1  
     4    2   10 am 
     5    4    5 2  
     6    4    9 1  
     7    5    6 1  
     8    6    7 1  
     9    6    8 1  
    10    8    9 2  
    11   10   11 1  
    12   11   12 ar 
    13   11   14 ar 
    14   12   13 ar 
    15   13   16 ar 
    16   14   15 ar 
    17   15   16 ar 
    18   16   17 1  
    19   17   18 1  
    20   18   19 2  
    21   18   24 1  
    22   19   20 1  
    23   20   21 1  
    24   20   23 2  
    25   21   22 2  
    26   21   32 am 
    27   23   24 1  
    28   23   25 1  
    29   25   26 1  
    30   25   30 am 
    31   26   27 1  
    32   27   28 1  
    33   28   29 1  
    34   30   31 2  
    35   30   32 am 
    36   32   33 1  
    37   33   34 1  
    38   34   35 ar 
    39   34   40 ar 
    40   35   36 1  
    41   35   37 ar 
    42   37   38 ar 
    43   38   39 ar 
    44   39   40 ar 
    45    5   41 1  
    46    7   42 1  
    47    7   43 1  
    48    7   44 1  
    49    8   45 1  
    50   10   46 1  
    51   12   47 1  
    52   13   48 1  
    53   14   49 1  
    54   15   50 1  
    55   17   51 1  
    56   17   52 1  
    57   24   53 1  
    58   26   54 1  
    59   26   55 1  
    60   27   56 1  
    61   27   57 1  
    62   28   58 1  
    63   28   59 1  
    64   29   60 1  
    65   29   61 1  
    66   29   62 1  
    67   33   63 1  
    68   33   64 1  
    69   37   65 1  
    70   38   66 1  
    71   39   67 1  
    72   40   68 1  
@<TRIPOS>SUBSTRUCTURE
     1 UN8         1

