### 
### Created by X-TOOL on Mon Sep 10 21:12:55 2018
### 

@<TRIPOS>MOLECULE
2gmx_ligand
   46    47     1     0     0
SMALL
GAST_HUCK


@<TRIPOS>ATOM
      1 C1         27.6200   93.1450   24.9470 C.ar      1 877        -0.0381
      2 C2         26.2810   92.9500   25.4440 C.ar      1 877         0.0862
      3 C3         25.7530   91.6140   25.5350 C.ar      1 877         0.0005
      4 C4         26.5600   90.5100   25.1230 C.ar      1 877        -0.0345
      5 C5         27.8820   90.6800   24.6290 C.ar      1 877         0.0834
      6 C6         28.4280   92.0310   24.5380 C.ar      1 877         0.0251
      7 C9         24.3470   91.3570   26.0570 C.3       1 877         0.0751
      8 C10        24.3480   91.2490   27.5840 C.2       1 877         0.2203
      9 N13        24.2730   92.4600   28.1940 N.am      1 877        -0.2171
     10 C14        24.2430   92.8150   29.5190 C.ar      1 877         0.1220
     11 O15        24.4100   90.1570   28.1160 O.2       1 877        -0.3786
     12 N16        24.6920   94.0870   29.7310 N.ar      1 877        -0.2631
     13 C17        24.7220   94.6190   31.0080 C.ar      1 877         0.1740
     14 C18        24.2910   93.8600   32.1330 C.ar      1 877         0.1506
     15 C19        23.8180   92.5230   31.9230 C.ar      1 877         0.0685
     16 C20        23.7970   91.9970   30.6050 C.ar      1 877         0.0003
     17 O22        28.6300   89.5620   24.2360 O.3       1 877        -0.3279
     18 C23        29.3240   88.9340   25.3090 C.3       1 877         0.0578
     19 O27        25.4200   93.9980   25.8620 O.3       1 877        -0.3311
     20 C28        25.9320   94.9490   26.7880 C.3       1 877         0.0555
     21 N33        23.3880   91.7310   32.9470 N.pl3     1 877        -0.3270
     22 C34        24.3320   94.4510   33.4580 C.1       1 877         0.0735
     23 O36        25.1870   95.9310   31.2230 O.3       1 877        -0.2964
     24 C37        24.5030   96.9640   30.5230 C.3       1 877         0.0738
     25 C38        25.2860   97.4790   29.2950 C.3       1 877        -0.0361
     26 BR         30.2260   92.3880   23.8840 Br        1 877        -0.0666
     27 N1         24.3590   94.9510   34.5030 N.1       1 877        -0.3577
     28 H1         28.0234   94.1490   24.8810 H         1 877         0.0521
     29 H2         26.1505   89.5085   25.1893 H         1 877         0.0465
     30 H3         23.9691   90.4169   25.6288 H         1 877         0.0648
     31 H4         23.6920   92.1873   25.7542 H         1 877         0.0648
     32 H5         24.2322   93.2341   27.5623 H         1 877         0.2346
     33 H6         23.4471   90.9873   30.4232 H         1 877         0.0409
     34 H7         29.8858   88.0693   24.9261 H         1 877         0.0575
     35 H8         28.6006   88.5954   26.0653 H         1 877         0.0575
     36 H9         30.0218   89.6520   25.7645 H         1 877         0.0575
     37 H10        25.1554   95.6940   27.0156 H         1 877         0.0570
     38 H11        26.8064   95.4529   26.3504 H         1 877         0.0570
     39 H12        26.2300   94.4355   27.7140 H         1 877         0.0570
     40 H13        23.3934   92.0895   33.9126 H         1 877         0.1794
     41 H14        23.0579   90.7745   32.7546 H         1 877         0.1794
     42 H15        24.3383   97.8054   31.2122 H         1 877         0.0623
     43 H16        23.5327   96.5739   30.1820 H         1 877         0.0623
     44 H17        24.7084   98.2724   28.7982 H         1 877         0.0256
     45 H18        25.4508   96.6499   28.5911 H         1 877         0.0256
     46 H19        26.2564   97.8814   29.6212 H         1 877         0.0256
@<TRIPOS>BOND
     1    1    2 ar 
     2    1    6 ar 
     3    2    3 ar 
     4    2   19 1  
     5    3    4 ar 
     6    3    7 1  
     7    4    5 ar 
     8    5    6 ar 
     9    5   17 1  
    10    6   26 1  
    11    7    8 1  
    12    8    9 am 
    13    8   11 2  
    14    9   10 1  
    15   10   12 ar 
    16   10   16 ar 
    17   12   13 ar 
    18   13   14 ar 
    19   13   23 1  
    20   14   15 ar 
    21   14   22 1  
    22   15   16 ar 
    23   15   21 1  
    24   17   18 1  
    25   19   20 1  
    26   22   27 3  
    27   23   24 1  
    28   24   25 1  
    29    1   28 1  
    30    4   29 1  
    31    7   30 1  
    32    7   31 1  
    33    9   32 1  
    34   16   33 1  
    35   18   34 1  
    36   18   35 1  
    37   18   36 1  
    38   20   37 1  
    39   20   38 1  
    40   20   39 1  
    41   21   40 1  
    42   21   41 1  
    43   24   42 1  
    44   24   43 1  
    45   25   44 1  
    46   25   45 1  
    47   25   46 1  
@<TRIPOS>SUBSTRUCTURE
     1 877         1

