### 
### Created by X-TOOL on Mon Sep 10 21:12:54 2018
### 

@<TRIPOS>MOLECULE
2gnf_ligand
   40    41     1     0     0
SMALL
GAST_HUCK


@<TRIPOS>ATOM
      1 O23         7.5170   10.0600   41.9260 O.2       1 Y27        -0.3826
      2 C22         7.9880    9.7810   43.0660 C.2       1 Y27         0.2105
      3 C31         9.4020    9.3230   43.3050 C.3       1 Y27         0.0554
      4 C36         9.6040    7.9990   42.5540 C.3       1 Y27        -0.0322
      5 C35        11.0610    7.4850   42.6130 C.3       1 Y27        -0.0428
      6 C34        12.0440    8.5720   42.1270 C.3       1 Y27         0.0020
      7 C33        11.9020    9.7720   43.0770 C.3       1 Y27        -0.0428
      8 C32        10.4620   10.3700   42.9070 C.3       1 Y27        -0.0322
      9 C41        13.5230    8.0650   42.0410 C.3       1 Y27        -0.0244
     10 C42        13.9640    7.4060   43.3560 C.3       1 Y27        -0.0215
     11 N43        13.7500    7.1170   40.9030 N.4       1 Y27         0.2207
     12 N21         7.2190    9.8130   44.2520 N.am      1 Y27        -0.2247
     13 C14         5.7770    9.9740   44.2750 C.ar      1 Y27         0.0867
     14 C15         5.1980    9.9890   45.5840 C.ar      1 Y27        -0.0140
     15 C16         3.8200   10.1310   45.6670 C.ar      1 Y27        -0.0065
     16 N11         3.0630   10.2640   44.5440 N.ar      1 Y27        -0.3199
     17 C12         3.5640   10.2620   43.2940 C.ar      1 Y27        -0.0065
     18 C13         4.9340   10.1350   43.1070 C.ar      1 Y27        -0.0140
     19 H1          9.5199    9.1320   44.3818 H         1 Y27         0.0544
     20 H2          9.3280    8.1487   41.4998 H         1 Y27         0.0293
     21 H3          8.9462    7.2390   43.0009 H         1 Y27         0.0293
     22 H4         11.1571    6.5978   41.9698 H         1 Y27         0.0271
     23 H5         11.3065    7.2142   43.6505 H         1 Y27         0.0271
     24 H6         11.7430    8.8862   41.1167 H         1 Y27         0.0355
     25 H7         12.6532   10.5354   42.8262 H         1 Y27         0.0271
     26 H8         12.0470    9.4423   44.1163 H         1 Y27         0.0271
     27 H9         10.3578   11.2558   43.5507 H         1 Y27         0.0293
     28 H10        10.3104   10.6600   41.8568 H         1 Y27         0.0293
     29 H11        14.1608    8.9453   41.8728 H         1 Y27         0.0850
     30 H12        15.0046    7.0617   43.2626 H         1 Y27         0.0284
     31 H13        13.3117    6.5472   43.5726 H         1 Y27         0.0284
     32 H14        13.8917    8.1370   44.1748 H         1 Y27         0.0284
     33 H15        13.4599    7.5514   40.0409 H         1 Y27         0.1997
     34 H16        13.2133    6.2771   41.0532 H         1 Y27         0.1997
     35 H17        14.7294    6.8848   40.8493 H         1 Y27         0.1997
     36 H18         7.6965    9.7193   45.1256 H         1 Y27         0.2307
     37 H19         5.8103    9.8934   46.4734 H         1 Y27         0.0596
     38 H20         3.3404   10.1360   46.6391 H         1 Y27         0.0771
     39 H21         2.9029   10.3588   42.4404 H         1 Y27         0.0771
     40 H22         5.3627   10.1558   42.1116 H         1 Y27         0.0596
@<TRIPOS>BOND
     1    1    2 2  
     2    2    3 1  
     3    2   12 am 
     4    3    4 1  
     5    3    8 1  
     6    4    5 1  
     7    5    6 1  
     8    6    7 1  
     9    6    9 1  
    10    7    8 1  
    11    9   10 1  
    12    9   11 1  
    13   12   13 1  
    14   13   14 ar 
    15   13   18 ar 
    16   14   15 ar 
    17   15   16 ar 
    18   16   17 ar 
    19   17   18 ar 
    20    3   19 1  
    21    4   20 1  
    22    4   21 1  
    23    5   22 1  
    24    5   23 1  
    25    6   24 1  
    26    7   25 1  
    27    7   26 1  
    28    8   27 1  
    29    8   28 1  
    30    9   29 1  
    31   10   30 1  
    32   10   31 1  
    33   10   32 1  
    34   11   33 1  
    35   11   34 1  
    36   11   35 1  
    37   12   36 1  
    38   14   37 1  
    39   15   38 1  
    40   17   39 1  
    41   18   40 1  
@<TRIPOS>SUBSTRUCTURE
     1 Y27         1

