### 
### Created by X-TOOL on Mon Sep 10 21:12:54 2018
### 

@<TRIPOS>MOLECULE
2gnh_ligand
   44    46     1     0     0
SMALL
GAST_HUCK


@<TRIPOS>ATOM
      1 O1          9.3410   11.0100    4.5490 O.2       1 H52        -0.1497
      2 S5          8.9860    9.7260    4.0600 S.o2      1 H52         0.0732
      3 O2          8.8110    8.7120    5.0260 O.2       1 H52        -0.1497
      4 N21        10.1230    9.2010    3.0980 N.am      1 H52        -0.2257
      5 C22        10.4910    7.7530    3.0200 C.3       1 H52         0.0778
      6 C2M         9.5580    6.9980    2.0900 C.3       1 H52        -0.0402
      7 C23        11.9370    7.5230    2.5640 C.3       1 H52        -0.0136
      8 N24        12.8430    8.3610    3.3140 N.4       1 H52         0.2284
      9 C25        13.2400    9.6450    2.7600 C.3       1 H52        -0.0321
     10 C26        12.0870   10.6390    2.8720 C.3       1 H52         0.0045
     11 C27        10.8370   10.0940    2.1760 C.3       1 H52         0.0350
     12 C5          7.5130    9.7830    3.2950 C.ar      1 H52         0.1228
     13 C10         6.1920    9.8920    3.8840 C.ar      1 H52         0.0294
     14 C4          5.8420    9.9820    5.2660 C.ar      1 H52        -0.0110
     15 CM          6.8080   10.0190    6.4410 C.3       1 H52        -0.0231
     16 C9          5.0850    9.8670    3.0180 C.ar      1 H52         0.0043
     17 C8          5.1980    9.7680    1.6290 C.ar      1 H52        -0.0481
     18 C7          6.4430    9.7240    1.0570 C.ar      1 H52        -0.0552
     19 C6          7.5750    9.7250    1.8830 C.ar      1 H52        -0.0302
     20 C1          3.7720    9.8980    3.5020 C.ar      1 H52         0.0104
     21 N2          3.5130    9.9720    4.8060 N.ar      1 H52        -0.3085
     22 C3          4.5040    9.9940    5.7070 C.ar      1 H52         0.0074
     23 H1         10.3849    7.3318    4.0306 H         1 H52         0.0564
     24 H2          9.8539    5.9392    2.0542 H         1 H52         0.0250
     25 H3          9.6183    7.4299    1.0802 H         1 H52         0.0250
     26 H4          8.5259    7.0778    2.4619 H         1 H52         0.0250
     27 H5         12.0221    7.7646    1.4943 H         1 H52         0.0832
     28 H6         12.2036    6.4679    2.7239 H         1 H52         0.0832
     29 H7         13.6866    7.8284    3.4582 H         1 H52         0.2014
     30 H8         12.4061    8.5458    4.2034 H         1 H52         0.2014
     31 H9         13.5098    9.5175    1.7013 H         1 H52         0.0814
     32 H10        14.1079   10.0293    3.3159 H         1 H52         0.0814
     33 H11        12.3800   11.5876    2.3984 H         1 H52         0.0333
     34 H12        11.8621   10.8137    3.9345 H         1 H52         0.0333
     35 H13        10.1809   10.9294    1.8905 H         1 H52         0.0480
     36 H14        11.1313    9.5347    1.2757 H         1 H52         0.0480
     37 H15         6.2401   10.0905    7.3804 H         1 H52         0.0421
     38 H16         7.4691   10.8929    6.3448 H         1 H52         0.0421
     39 H17         7.4130    9.1004    6.4474 H         1 H52         0.0421
     40 H18         4.3095    9.7264    1.0094 H         1 H52         0.0643
     41 H19         6.5505    9.6889   -0.0211 H         1 H52         0.0642
     42 H20         8.5514    9.6788    1.4144 H         1 H52         0.0657
     43 H21         2.9474    9.8609    2.7994 H         1 H52         0.0786
     44 H22         4.2783   10.0208    6.7669 H         1 H52         0.0687
@<TRIPOS>BOND
     1    1    2 2  
     2    2    3 2  
     3    2    4 am 
     4    2   12 1  
     5    4    5 1  
     6    4   11 1  
     7    5    6 1  
     8    5    7 1  
     9    7    8 1  
    10    8    9 1  
    11    9   10 1  
    12   10   11 1  
    13   12   13 ar 
    14   12   19 ar 
    15   13   14 ar 
    16   13   16 ar 
    17   14   15 1  
    18   14   22 ar 
    19   16   17 ar 
    20   16   20 ar 
    21   17   18 ar 
    22   18   19 ar 
    23   20   21 ar 
    24   21   22 ar 
    25    5   23 1  
    26    6   24 1  
    27    6   25 1  
    28    6   26 1  
    29    7   27 1  
    30    7   28 1  
    31    8   29 1  
    32    8   30 1  
    33    9   31 1  
    34    9   32 1  
    35   10   33 1  
    36   10   34 1  
    37   11   35 1  
    38   11   36 1  
    39   15   37 1  
    40   15   38 1  
    41   15   39 1  
    42   17   40 1  
    43   18   41 1  
    44   19   42 1  
    45   20   43 1  
    46   22   44 1  
@<TRIPOS>SUBSTRUCTURE
     1 H52         1

