### 
### Created by X-TOOL on Mon Sep 10 21:12:54 2018
### 

@<TRIPOS>MOLECULE
2gni_ligand
   38    40     1     0     0
SMALL
GAST_HUCK


@<TRIPOS>ATOM
      1 O1          8.6630   11.0830    5.1390 O.2       1 M77        -0.1499
      2 S1          8.5630   10.0750    4.0780 S.o2      1 M77         0.0730
      3 O2          9.5790   10.2220    3.0610 O.2       1 M77        -0.1499
      4 N4          8.7470    8.5900    4.6610 N.am      1 M77        -0.2286
      5 C22         8.6400    7.4430    3.7020 C.3       1 M77         0.0695
      6 C21         9.8160    7.4110    2.7170 C.3       1 M77        -0.0162
      7 N17        11.1150    7.1450    3.4660 N.4       1 M77         0.2282
      8 C16        11.3480    7.9200    4.7470 C.3       1 M77        -0.0321
      9 C20        10.4640    7.5710    5.9470 C.3       1 M77         0.0045
     10 C15         9.1740    8.4300    6.0430 C.3       1 M77         0.0347
     11 C5          7.0820   10.0850    3.1460 C.ar      1 M77         0.1236
     12 C6          7.2290   10.1470    1.7680 C.ar      1 M77        -0.0287
     13 C7          6.0790   10.1340    0.9240 C.ar      1 M77        -0.0534
     14 C8          4.8170   10.1030    1.5120 C.ar      1 M77        -0.0451
     15 C9          4.6530   10.0680    2.9120 C.ar      1 M77         0.0110
     16 C10         5.7840   10.0280    3.7640 C.ar      1 M77         0.0243
     17 C11         5.5290    9.9710    5.1760 C.ar      1 M77        -0.0294
     18 C14         3.3890   10.0080    3.5140 C.ar      1 M77         0.0199
     19 N13         3.1880    9.9250    4.8300 N.ar      1 M77        -0.2974
     20 C12         4.2550    9.9320    5.6800 C.ar      1 M77         0.0077
     21 H1          7.7029    7.5400    3.1343 H         1 M77         0.0531
     22 H2          8.6277    6.5024    4.2721 H         1 M77         0.0531
     23 H3          9.8851    8.3797    2.2004 H         1 M77         0.0830
     24 H4          9.6512    6.6126    1.9786 H         1 M77         0.0830
     25 H5         11.8753    7.3591    2.8397 H         1 M77         0.2014
     26 H6         11.1362    6.1641    3.6972 H         1 M77         0.2014
     27 H7         11.1941    8.9856    4.5216 H         1 M77         0.0814
     28 H8         12.3934    7.7559    5.0474 H         1 M77         0.0814
     29 H9         11.0503    7.7212    6.8655 H         1 M77         0.0333
     30 H10        10.1718    6.5135    5.8672 H         1 M77         0.0333
     31 H11         8.4031    7.9114    6.6318 H         1 M77         0.0480
     32 H12         9.3892    9.4070    6.5003 H         1 M77         0.0480
     33 H13         8.2196   10.2054    1.3317 H         1 M77         0.0675
     34 H14         6.1855   10.1480   -0.1547 H         1 M77         0.0645
     35 H15         3.9383   10.1059    0.8772 H         1 M77         0.0659
     36 H16         6.3677    9.9585    5.8626 H         1 M77         0.0716
     37 H17         2.5184   10.0305    2.8685 H         1 M77         0.0870
     38 H18         4.0956    9.9068    6.7519 H         1 M77         0.0775
@<TRIPOS>BOND
     1    1    2 2  
     2    2    3 2  
     3    2    4 am 
     4    2   11 1  
     5    4    5 1  
     6    4   10 1  
     7    5    6 1  
     8    6    7 1  
     9    7    8 1  
    10    8    9 1  
    11    9   10 1  
    12   11   12 ar 
    13   11   16 ar 
    14   12   13 ar 
    15   13   14 ar 
    16   14   15 ar 
    17   15   16 ar 
    18   15   18 ar 
    19   16   17 ar 
    20   17   20 ar 
    21   18   19 ar 
    22   19   20 ar 
    23    5   21 1  
    24    5   22 1  
    25    6   23 1  
    26    6   24 1  
    27    7   25 1  
    28    7   26 1  
    29    8   27 1  
    30    8   28 1  
    31    9   29 1  
    32    9   30 1  
    33   10   31 1  
    34   10   32 1  
    35   12   33 1  
    36   13   34 1  
    37   14   35 1  
    38   17   36 1  
    39   18   37 1  
    40   20   38 1  
@<TRIPOS>SUBSTRUCTURE
     1 M77         1

