### 
### Created by X-TOOL on Mon Sep 10 21:12:54 2018
### 

@<TRIPOS>MOLECULE
2gnj_ligand
   40    41     1     0     0
SMALL
GAST_HUCK


@<TRIPOS>ATOM
      1 O23         7.3520    9.8870    1.4790 O.2       1 Y27        -0.3826
      2 C22         7.7390    9.4660    2.5670 C.2       1 Y27         0.2105
      3 C31         9.1180    8.9010    2.7550 C.3       1 Y27         0.0554
      4 C36         9.3370    7.6300    1.9050 C.3       1 Y27        -0.0322
      5 C35        10.7730    7.1060    2.0930 C.3       1 Y27        -0.0428
      6 C34        11.8090    8.2240    1.8510 C.3       1 Y27         0.0020
      7 C33        11.5840    9.3980    2.8210 C.3       1 Y27        -0.0428
      8 C32        10.1860    9.9780    2.4870 C.3       1 Y27        -0.0322
      9 C41        13.2700    7.7040    1.8660 C.3       1 Y27        -0.0244
     10 C42        13.6360    6.9610    3.1600 C.3       1 Y27        -0.0215
     11 N43        13.5380    6.8380    0.6630 N.4       1 Y27         0.2207
     12 N21         6.9210    9.4600    3.7290 N.am      1 Y27        -0.2247
     13 C14         5.4690    9.6840    3.7930 C.ar      1 Y27         0.0867
     14 C15         4.9070    9.6460    5.0690 C.ar      1 Y27        -0.0140
     15 C16         3.5360    9.8280    5.2290 C.ar      1 Y27        -0.0065
     16 N11         2.7480   10.0070    4.1890 N.ar      1 Y27        -0.3199
     17 C12         3.2510   10.0480    2.9550 C.ar      1 Y27        -0.0065
     18 C13         4.6000    9.9220    2.7030 C.ar      1 Y27        -0.0140
     19 H1          9.2111    8.6037    3.8100 H         1 Y27         0.0544
     20 H2          9.1736    7.8697    0.8440 H         1 Y27         0.0293
     21 H3          8.6231    6.8547    2.2199 H         1 Y27         0.0293
     22 H4         10.9534    6.2886    1.3794 H         1 Y27         0.0271
     23 H5         10.8859    6.7279    3.1198 H         1 Y27         0.0271
     24 H6         11.6277    8.6106    0.8373 H         1 Y27         0.0355
     25 H7         12.3589   10.1652    2.6763 H         1 Y27         0.0271
     26 H8         11.6098    9.0424    3.8616 H         1 Y27         0.0271
     27 H9          9.9906   10.8564    3.1197 H         1 Y27         0.0293
     28 H10        10.1532   10.2742    1.4281 H         1 Y27         0.0293
     29 H11        13.9282    8.5827    1.7986 H         1 Y27         0.0850
     30 H12        14.6806    6.6207    3.1045 H         1 Y27         0.0284
     31 H13        12.9733    6.0918    3.2837 H         1 Y27         0.0284
     32 H14        13.5163    7.6385    4.0183 H         1 Y27         0.0284
     33 H15        13.2922    7.3415   -0.1749 H         1 Y27         0.1997
     34 H16        12.9851    5.9974    0.7242 H         1 Y27         0.1997
     35 H17        14.5160    6.5956    0.6346 H         1 Y27         0.1997
     36 H18         7.3833    9.2843    4.5982 H         1 Y27         0.2307
     37 H19         5.5366    9.4750    5.9347 H         1 Y27         0.0596
     38 H20         3.1102    9.8223    6.2258 H         1 Y27         0.0771
     39 H21         2.5742   10.1855    2.1195 H         1 Y27         0.0771
     40 H22         4.9858   10.0034    1.6933 H         1 Y27         0.0596
@<TRIPOS>BOND
     1    1    2 2  
     2    2    3 1  
     3    2   12 am 
     4    3    4 1  
     5    3    8 1  
     6    4    5 1  
     7    5    6 1  
     8    6    7 1  
     9    6    9 1  
    10    7    8 1  
    11    9   10 1  
    12    9   11 1  
    13   12   13 1  
    14   13   14 ar 
    15   13   18 ar 
    16   14   15 ar 
    17   15   16 ar 
    18   16   17 ar 
    19   17   18 ar 
    20    3   19 1  
    21    4   20 1  
    22    4   21 1  
    23    5   22 1  
    24    5   23 1  
    25    6   24 1  
    26    7   25 1  
    27    7   26 1  
    28    8   27 1  
    29    8   28 1  
    30    9   29 1  
    31   10   30 1  
    32   10   31 1  
    33   10   32 1  
    34   11   33 1  
    35   11   34 1  
    36   11   35 1  
    37   12   36 1  
    38   14   37 1  
    39   15   38 1  
    40   17   39 1  
    41   18   40 1  
@<TRIPOS>SUBSTRUCTURE
     1 Y27         1

