### 
### Created by X-TOOL on Mon Sep 10 21:12:54 2018
### 

@<TRIPOS>MOLECULE
2gnl_ligand
   44    46     1     0     0
SMALL
GAST_HUCK


@<TRIPOS>ATOM
      1 O1          9.2980   11.0130    4.6250 O.2       1 H52        -0.1497
      2 S5          8.8560    9.7810    4.0710 S.o2      1 H52         0.0732
      3 O2          8.6700    8.8850    5.1560 O.2       1 H52        -0.1497
      4 N21         9.9830    9.1810    3.1940 N.am      1 H52        -0.2257
      5 C22        10.1930    7.7290    3.0850 C.3       1 H52         0.0778
      6 C2M         9.3500    7.0290    2.0070 C.3       1 H52        -0.0402
      7 C23        11.6570    7.4590    2.7740 C.3       1 H52        -0.0136
      8 N24        12.4710    8.2510    3.6530 N.4       1 H52         0.2284
      9 C25        13.1230    9.4270    3.1740 C.3       1 H52        -0.0321
     10 C26        12.0480   10.4680    3.3050 C.3       1 H52         0.0045
     11 C27        10.8660   10.0680    2.4230 C.3       1 H52         0.0350
     12 C5          7.4690    9.9020    3.1890 C.ar      1 H52         0.1228
     13 C10         6.1170   10.0560    3.6370 C.ar      1 H52         0.0294
     14 C4          5.6630   10.1850    4.9710 C.ar      1 H52        -0.0110
     15 CM          6.5300   10.1860    6.1950 C.3       1 H52        -0.0231
     16 C9          5.0830   10.0830    2.6730 C.ar      1 H52         0.0043
     17 C8          5.3200    9.9630    1.3170 C.ar      1 H52        -0.0481
     18 C7          6.6030    9.8330    0.8810 C.ar      1 H52        -0.0552
     19 C6          7.6420    9.8070    1.7980 C.ar      1 H52        -0.0302
     20 C1          3.7450   10.2140    3.0170 C.ar      1 H52         0.0104
     21 N2          3.3870   10.3120    4.2850 N.ar      1 H52        -0.3085
     22 C3          4.3030   10.2990    5.2490 C.ar      1 H52         0.0074
     23 H1          9.9414    7.2805    4.0574 H         1 H52         0.0564
     24 H2          9.5779    5.9529    2.0047 H         1 H52         0.0250
     25 H3          9.5871    7.4560    1.0214 H         1 H52         0.0250
     26 H4          8.2817    7.1770    2.2234 H         1 H52         0.0250
     27 H5         11.8691    7.7303    1.7293 H         1 H52         0.0832
     28 H6         11.8769    6.3922    2.9277 H         1 H52         0.0832
     29 H7         13.1941    7.6424    4.0034 H         1 H52         0.2014
     30 H8         11.8770    8.5401    4.4143 H         1 H52         0.2014
     31 H9         13.4372    9.3091    2.1264 H         1 H52         0.0814
     32 H10        13.9971    9.6776    3.7930 H         1 H52         0.0814
     33 H11        12.4373   11.4445    2.9811 H         1 H52         0.0333
     34 H12        11.7217   10.5328    4.3535 H         1 H52         0.0333
     35 H13        10.3116   10.9673    2.1165 H         1 H52         0.0480
     36 H14        11.2322    9.5408    1.5297 H         1 H52         0.0480
     37 H15         5.9009   10.3022    7.0898 H         1 H52         0.0421
     38 H16         7.2440   11.0208    6.1379 H         1 H52         0.0421
     39 H17         7.0808    9.2358    6.2550 H         1 H52         0.0421
     40 H18         4.4971    9.9722    0.6114 H         1 H52         0.0643
     41 H19         6.8113    9.7501   -0.1796 H         1 H52         0.0642
     42 H20         8.6522    9.7070    1.4178 H         1 H52         0.0657
     43 H21         2.9889   10.2361    2.2406 H         1 H52         0.0786
     44 H22         3.9818   10.3795    6.2812 H         1 H52         0.0687
@<TRIPOS>BOND
     1    1    2 2  
     2    2    3 2  
     3    2    4 am 
     4    2   12 1  
     5    4    5 1  
     6    4   11 1  
     7    5    6 1  
     8    5    7 1  
     9    7    8 1  
    10    8    9 1  
    11    9   10 1  
    12   10   11 1  
    13   12   13 ar 
    14   12   19 ar 
    15   13   14 ar 
    16   13   16 ar 
    17   14   15 1  
    18   14   22 ar 
    19   16   17 ar 
    20   16   20 ar 
    21   17   18 ar 
    22   18   19 ar 
    23   20   21 ar 
    24   21   22 ar 
    25    5   23 1  
    26    6   24 1  
    27    6   25 1  
    28    6   26 1  
    29    7   27 1  
    30    7   28 1  
    31    8   29 1  
    32    8   30 1  
    33    9   31 1  
    34    9   32 1  
    35   10   33 1  
    36   10   34 1  
    37   11   35 1  
    38   11   36 1  
    39   15   37 1  
    40   15   38 1  
    41   15   39 1  
    42   17   40 1  
    43   18   41 1  
    44   19   42 1  
    45   20   43 1  
    46   22   44 1  
@<TRIPOS>SUBSTRUCTURE
     1 H52         1

