### 
### Created by X-TOOL on Mon Sep 10 21:12:54 2018
### 

@<TRIPOS>MOLECULE
2go4_ligand
   71    71     1     0     0
SMALL
GAST_HUCK


@<TRIPOS>ATOM
      1 C3G       -30.9350   77.2910    5.3030 C.3       1 TUX         0.1228
      2 C4G       -32.0710   78.3100    5.2000 C.3       1 TUX         0.1143
      3 C5G       -32.1150   78.8920    3.7840 C.3       1 TUX         0.1102
      4 C2G       -29.6160   77.9540    4.8970 C.3       1 TUX         0.0325
      5 C1G       -29.7580   78.5920    3.5110 C.3       1 TUX         0.0559
      6 O5G       -30.8550   79.5230    3.4950 O.3       1 TUX        -0.3711
      7 O3G       -30.8270   76.8150    6.6520 O.3       1 TUX        -0.2703
      8 O1A       -31.2350   74.7680    5.7900 O.2       1 TUX        -0.3704
      9 C1A       -30.9760   75.4670    6.7690 C.2       1 TUX         0.2341
     10 C2A       -30.8580   74.8550    8.1670 C.3       1 TUX         0.0487
     11 C3A       -31.3740   73.4170    8.2340 C.3       1 TUX        -0.0348
     12 C4A       -31.9200   73.1420    9.6370 C.3       1 TUX        -0.0509
     13 C5A       -32.3290   71.6790    9.8150 C.3       1 TUX        -0.0529
     14 C6A       -33.3330   71.4890   10.9560 C.3       1 TUX        -0.0531
     15 C7A       -32.8430   71.9980   12.3150 C.3       1 TUX        -0.0531
     16 C8A       -33.8440   71.5970   13.4010 C.3       1 TUX        -0.0531
     17 C9A       -33.4930   72.1810   14.7710 C.3       1 TUX        -0.0531
     18 CAA       -34.3970   71.5770   15.8490 C.3       1 TUX        -0.0531
     19 CBA       -34.1570   72.1950   17.2300 C.3       1 TUX        -0.0531
     20 CCA       -34.8650   73.5400   17.4300 C.3       1 TUX        -0.0533
     21 CDA       -36.3660   73.4080   17.7110 C.3       1 TUX        -0.0559
     22 CEA       -37.1640   72.9100   16.5030 C.3       1 TUX        -0.0653
     23 CZH       -28.4870   76.9210    4.9330 C.3       1 TUX         0.0466
     24 CYH       -27.1010   77.5640    4.8510 C.2       1 TUX         0.1992
     25 OYH       -26.5470   78.0000    5.8580 O.2       1 TUX        -0.3970
     26 NXH       -26.5680   77.5970    3.6340 N.am      1 TUX        -0.1642
     27 OXH       -25.3210   78.1110    3.4670 O.3       1 TUX        -0.2717
     28 O4G       -33.3130   77.6660    5.4960 O.3       1 TUX        -0.3862
     29 C6G       -33.2640   79.8990    3.6810 C.3       1 TUX         0.0729
     30 O6G       -33.4170   80.3350    2.3280 O.3       1 TUX        -0.3924
     31 H1        -31.1425   76.4445    4.6319 H         1 TUX         0.0681
     32 H2        -31.8998   79.1221    5.9219 H         1 TUX         0.0650
     33 H3        -32.2846   78.0801    3.0615 H         1 TUX         0.0646
     34 H4        -29.3822   78.7483    5.6211 H         1 TUX         0.0377
     35 H5        -29.9417   77.8034    2.7665 H         1 TUX         0.0565
     36 H6        -28.8283   79.1237    3.2602 H         1 TUX         0.0565
     37 H7        -31.4403   75.4696    8.8693 H         1 TUX         0.0518
     38 H8        -29.7991   74.8618    8.4647 H         1 TUX         0.0518
     39 H9        -30.5508   72.7204    8.0168 H         1 TUX         0.0291
     40 H10       -32.1760   73.2792    7.4938 H         1 TUX         0.0291
     41 H11       -32.7997   73.7801    9.8073 H         1 TUX         0.0267
     42 H12       -31.1418   73.3857   10.3752 H         1 TUX         0.0267
     43 H13       -31.4295   71.0846   10.0331 H         1 TUX         0.0265
     44 H14       -32.7856   71.3233    8.8796 H         1 TUX         0.0265
     45 H15       -33.5511   70.4148   11.0483 H         1 TUX         0.0265
     46 H16       -34.2554   72.0296   10.6974 H         1 TUX         0.0265
     47 H17       -32.7535   73.0939   12.2855 H         1 TUX         0.0265
     48 H18       -31.8613   71.5558   12.5400 H         1 TUX         0.0265
     49 H19       -33.8581   70.4999   13.4791 H         1 TUX         0.0265
     50 H20       -34.8420   71.9568   13.1102 H         1 TUX         0.0265
     51 H21       -33.6333   73.2718   14.7481 H         1 TUX         0.0265
     52 H22       -32.4433   71.9512   15.0062 H         1 TUX         0.0265
     53 H23       -34.2022   70.4960   15.9077 H         1 TUX         0.0265
     54 H24       -35.4461   71.7456   15.5647 H         1 TUX         0.0265
     55 H25       -33.0755   72.3483   17.3596 H         1 TUX         0.0265
     56 H26       -34.5219   71.4926   17.9939 H         1 TUX         0.0265
     57 H27       -34.7336   74.1411   16.5182 H         1 TUX         0.0265
     58 H28       -34.3962   74.0566   18.2805 H         1 TUX         0.0265
     59 H29       -36.7549   74.3942   18.0044 H         1 TUX         0.0263
     60 H30       -36.5056   72.6976   18.5391 H         1 TUX         0.0263
     61 H31       -38.2284   72.8381   16.7711 H         1 TUX         0.0230
     62 H32       -36.7939   71.9187   16.2024 H         1 TUX         0.0230
     63 H33       -37.0432   73.6154   15.6676 H         1 TUX         0.0230
     64 H34       -28.6087   76.2357    4.0813 H         1 TUX         0.0506
     65 H35       -28.5576   76.3540    5.8729 H         1 TUX         0.0506
     66 H36       -27.0793   77.2472    2.8491 H         1 TUX         0.2216
     67 H37       -25.3121   79.0169    3.7532 H         1 TUX         0.2490
     68 H38       -34.0187   78.2993    5.4373 H         1 TUX         0.2100
     69 H39       -33.0451   80.7671    4.3201 H         1 TUX         0.0584
     70 H40       -34.1966   79.4222    4.0170 H         1 TUX         0.0584
     71 H41       -32.6128   80.7485    2.0369 H         1 TUX         0.2095
@<TRIPOS>BOND
     1    1    2 1  
     2    1    4 1  
     3    1    7 1  
     4    2    3 1  
     5    2   28 1  
     6    3    6 1  
     7    3   29 1  
     8    4    5 1  
     9    4   23 1  
    10    5    6 1  
    11    7    9 1  
    12    9    8 2  
    13    9   10 1  
    14   10   11 1  
    15   11   12 1  
    16   12   13 1  
    17   13   14 1  
    18   14   15 1  
    19   15   16 1  
    20   16   17 1  
    21   17   18 1  
    22   18   19 1  
    23   19   20 1  
    24   20   21 1  
    25   21   22 1  
    26   23   24 1  
    27   24   25 2  
    28   24   26 am 
    29   26   27 1  
    30   29   30 1  
    31    1   31 1  
    32    2   32 1  
    33    3   33 1  
    34    4   34 1  
    35    5   35 1  
    36    5   36 1  
    37   10   37 1  
    38   10   38 1  
    39   11   39 1  
    40   11   40 1  
    41   12   41 1  
    42   12   42 1  
    43   13   43 1  
    44   13   44 1  
    45   14   45 1  
    46   14   46 1  
    47   15   47 1  
    48   15   48 1  
    49   16   49 1  
    50   16   50 1  
    51   17   51 1  
    52   17   52 1  
    53   18   53 1  
    54   18   54 1  
    55   19   55 1  
    56   19   56 1  
    57   20   57 1  
    58   20   58 1  
    59   21   59 1  
    60   21   60 1  
    61   22   61 1  
    62   22   62 1  
    63   22   63 1  
    64   23   64 1  
    65   23   65 1  
    66   26   66 1  
    67   27   67 1  
    68   28   68 1  
    69   29   69 1  
    70   29   70 1  
    71   30   71 1  
@<TRIPOS>SUBSTRUCTURE
     1 TUX         1

