### 
### Created by X-TOOL on Mon Sep 10 21:12:55 2018
### 

@<TRIPOS>MOLECULE
2gpp_ligand
   39    40     1     0     0
SMALL
GAST_HUCK


@<TRIPOS>ATOM
      1 N1        -53.3290  121.8760    1.9500 N.2       1 1BA        -0.1876
      2 C4        -51.6320  118.5440    5.4370 C.ar      1 1BA        -0.0419
      3 C5        -53.0070  118.5670    5.4900 C.ar      1 1BA        -0.0615
      4 C6        -53.7010  119.3920    4.6320 C.ar      1 1BA        -0.0633
      5 C7        -53.0340  120.1940    3.7310 C.ar      1 1BA        -0.0242
      6 C8        -53.8220  121.0710    2.8430 C.2       1 1BA         0.0277
      7 C10       -54.7030  124.5600   -0.1350 C.ar      1 1BA         0.0473
      8 C13       -56.3330  126.5250   -1.0340 C.ar      1 1BA         0.0931
      9 C15       -54.9730  124.6460   -1.4780 C.ar      1 1BA        -0.0498
     10 C17       -50.9810  119.3480    4.5360 C.ar      1 1BA        -0.0615
     11 C1        -50.1640  118.4200    7.4610 C.3       1 1BA        -0.0529
     12 C2        -50.7790  117.6680    6.3070 C.3       1 1BA        -0.0137
     13 C3        -51.5370  116.4660    6.8320 C.3       1 1BA        -0.0529
     14 N2        -54.2650  122.5990    1.2530 N.am      1 1BA        -0.1685
     15 C9        -53.8050  123.4920    0.3050 C.2       1 1BA         0.2425
     16 O1        -52.7010  123.4780   -0.2100 O.2       1 1BA        -0.3741
     17 C11       -55.2350  125.4480    0.7690 C.ar      1 1BA        -0.0498
     18 C12       -56.0650  126.4490    0.3150 C.ar      1 1BA        -0.0272
     19 O2        -57.1570  127.5150   -1.5070 O.3       1 1BA        -0.3296
     20 C14       -55.7990  125.6380   -1.9380 C.ar      1 1BA        -0.0272
     21 C16       -51.6670  120.1790    3.6830 C.ar      1 1BA        -0.0633
     22 H1        -53.5384  117.9427    6.1992 H         1 1BA         0.0554
     23 H2        -54.7843  119.4106    4.6660 H         1 1BA         0.0584
     24 H3        -54.9058  121.0409    2.9446 H         1 1BA         0.0703
     25 H4        -54.5362  123.9346   -2.1695 H         1 1BA         0.0642
     26 H5        -49.8979  119.3273    4.4958 H         1 1BA         0.0554
     27 H6        -49.5520  117.7318    8.0625 H         1 1BA         0.0254
     28 H7        -50.9614  118.8451    8.0882 H         1 1BA         0.0254
     29 H8        -49.5301  119.2313    7.0738 H         1 1BA         0.0254
     30 H9        -49.9568  117.2942    5.6791 H         1 1BA         0.0455
     31 H10       -51.9850  115.9185    5.9896 H         1 1BA         0.0254
     32 H11       -52.3314  116.8028    7.5143 H         1 1BA         0.0254
     33 H12       -50.8451  115.8039    7.3732 H         1 1BA         0.0254
     34 H13       -55.2433  122.4834    1.4252 H         1 1BA         0.2528
     35 H14       -55.0046  125.3618    1.8247 H         1 1BA         0.0642
     36 H15       -56.4988  127.1630    1.0057 H         1 1BA         0.0556
     37 H16       -58.0129  127.4329   -1.1031 H         1 1BA         0.2501
     38 H17       -56.0268  125.7215   -2.9945 H         1 1BA         0.0556
     39 H18       -51.1335  120.8123    2.9835 H         1 1BA         0.0584
@<TRIPOS>BOND
     1    1    6 2  
     2   14    1 1  
     3    3    2 ar 
     4   10    2 ar 
     5    2   12 1  
     6    4    3 ar 
     7    5    4 ar 
     8    6    5 1  
     9    5   21 ar 
    10    7    9 ar 
    11   15    7 1  
    12    7   17 ar 
    13    8   18 ar 
    14    8   19 1  
    15   20    8 ar 
    16    9   20 ar 
    17   21   10 ar 
    18   12   11 1  
    19   12   13 1  
    20   14   15 am 
    21   15   16 2  
    22   17   18 ar 
    23    3   22 1  
    24    4   23 1  
    25    6   24 1  
    26    9   25 1  
    27   10   26 1  
    28   11   27 1  
    29   11   28 1  
    30   11   29 1  
    31   12   30 1  
    32   13   31 1  
    33   13   32 1  
    34   13   33 1  
    35   14   34 1  
    36   17   35 1  
    37   18   36 1  
    38   19   37 1  
    39   20   38 1  
    40   21   39 1  
@<TRIPOS>SUBSTRUCTURE
     1 1BA         1

