### 
### Created by X-TOOL on Mon Sep 10 21:12:46 2018
### 

@<TRIPOS>MOLECULE
2gss_ligand
   30    30     1     0     0
SMALL
GAST_HUCK


@<TRIPOS>ATOM
      1 C1          7.9400    3.6820   25.9280 C.ar      1 EAA         0.1139
      2 O2          8.9290    4.1010   25.0970 O.3       1 EAA        -0.2994
      3 C2          8.2770    2.6700   26.8480 C.ar      1 EAA         0.0881
      4 CL1         9.9000    2.0990   26.8510 Cl        1 EAA        -0.0767
      5 C3          7.3580    2.1900   27.7220 C.ar      1 EAA         0.0650
      6 CL2         7.8080    0.9230   28.8280 Cl        1 EAA        -0.0667
      7 C4          6.0400    2.6530   27.7270 C.ar      1 EAA         0.0377
      8 C5          5.7110    3.6480   26.8010 C.ar      1 EAA        -0.0512
      9 C6          6.6340    4.1410   25.9200 C.ar      1 EAA        -0.0258
     10 C7          5.0500    2.2350   28.7710 C.2       1 EAA         0.1527
     11 O1          4.5330    1.1470   28.7190 O.2       1 EAA        -0.3720
     12 C8          4.7170    3.1410   29.9000 C.2       1 EAA         0.0058
     13 C9          4.9690    2.6060   31.2620 C.3       1 EAA        -0.0152
     14 C10         5.6550    3.4510   32.2280 C.3       1 EAA        -0.0548
     15 C11         4.1860    4.3020   29.6430 C.2       1 EAA        -0.0907
     16 C12         8.6800    5.2280   24.2860 C.3       1 EAA         0.1241
     17 C13         9.9070    5.5890   23.5350 C.2       1 EAA         0.0656
     18 O           9.8520    6.6840   22.9080 O.co2     1 EAA        -0.5662
     19 OXT        10.9340    4.8540   23.5630 O.co2     1 EAA        -0.5662
     20 H1          4.6998    4.0381   26.7809 H         1 EAA         0.0644
     21 H2          6.3388    4.9013   25.2060 H         1 EAA         0.0559
     22 H3          5.5712    1.6929   31.1451 H         1 EAA         0.0432
     23 H4          3.9912    2.3475   31.6946 H         1 EAA         0.0432
     24 H5          5.7612    2.9088   33.1792 H         1 EAA         0.0253
     25 H6          5.0712    4.3687   32.3923 H         1 EAA         0.0253
     26 H7          6.6512    3.7141   31.8428 H         1 EAA         0.0253
     27 H8          4.0367    4.6160   28.6110 H         1 EAA         0.0460
     28 H9          3.8912    4.9588   30.4601 H         1 EAA         0.0460
     29 H10         8.3780    6.0745   24.9202 H         1 EAA         0.0788
     30 H11         7.8727    4.9955   23.5759 H         1 EAA         0.0788
@<TRIPOS>BOND
     1    1    2 1  
     2    1    3 ar 
     3    1    9 ar 
     4    2   16 1  
     5    3    4 1  
     6    3    5 ar 
     7    5    6 1  
     8    5    7 ar 
     9    7    8 ar 
    10    7   10 1  
    11    8    9 ar 
    12   10   11 2  
    13   10   12 1  
    14   12   13 1  
    15   12   15 2  
    16   13   14 1  
    17   16   17 1  
    18   17   18 ar 
    19   17   19 ar 
    20    8   20 1  
    21    9   21 1  
    22   13   22 1  
    23   13   23 1  
    24   14   24 1  
    25   14   25 1  
    26   14   26 1  
    27   15   27 1  
    28   15   28 1  
    29   16   29 1  
    30   16   30 1  
@<TRIPOS>SUBSTRUCTURE
     1 EAA         1

