### 
### Created by X-TOOL on Mon Sep 10 21:12:44 2018
### 

@<TRIPOS>MOLECULE
2gst_ligand
   61    63     1     0     0
SMALL
GAST_HUCK


@<TRIPOS>ATOM
      1 N1         14.5290   14.7370   24.8900 N.4       1 GPS         0.2328
      2 CA1        14.2360   15.2720   26.2990 C.3       1 GPS         0.0304
      3 C1         13.3570   16.4680   26.1920 C.2       1 GPS         0.0846
      4 O1         12.4840   16.8710   26.9910 O.co2     1 GPS        -0.5643
      5 OT1        13.2920   17.1450   24.9790 O.co2     1 GPS        -0.5643
      6 CB1        15.6600   15.6090   26.8930 C.3       1 GPS         0.0193
      7 CG1        15.3370   15.9670   28.3530 C.3       1 GPS         0.0441
      8 CD1        16.5850   16.1850   29.1690 C.2       1 GPS         0.1785
      9 OE1        17.7430   15.9140   28.7680 O.2       1 GPS        -0.3969
     10 N2         16.3040   16.5080   30.4590 N.am      1 GPS        -0.2648
     11 CA2        17.4070   17.0290   31.2870 C.3       1 GPS         0.1399
     12 C2         17.0800   16.5220   32.7420 C.2       1 GPS         0.2040
     13 O2         17.8450   17.0550   33.5350 O.2       1 GPS        -0.3944
     14 CB2        17.1720   18.5740   31.3290 C.3       1 GPS         0.0367
     15 SG2        17.3830   19.3950   29.7930 S.3       1 GPS        -0.1337
     16 N3         16.3980   15.3850   32.8590 N.am      1 GPS        -0.2722
     17 CA3        16.0460   14.8750   34.1920 C.3       1 GPS         0.0833
     18 C3         16.7690   13.6100   34.5130 C.2       1 GPS         0.0570
     19 O3         17.6580   13.1470   33.7470 O.co2     1 GPS        -0.5669
     20 OT3        16.4020   13.0050   35.6380 O.co2     1 GPS        -0.5669
     21 CA4        19.0400   19.4160   29.3160 C.3       1 GPS         0.0757
     22 CB4        19.4100   20.7740   28.7470 C.ar      1 GPS        -0.0181
     23 CG4        19.2580   20.8670   27.3240 C.ar      1 GPS        -0.0589
     24 CD4        19.6050   22.0520   26.7350 C.ar      1 GPS        -0.0692
     25 CE4        20.0650   23.1500   27.4810 C.ar      1 GPS        -0.0690
     26 CZ4        20.1690   23.0530   28.8730 C.ar      1 GPS        -0.0618
     27 CH4        19.8680   21.8530   29.5160 C.ar      1 GPS        -0.0174
     28 CH5        19.9440   21.6730   30.9250 C.ar      1 GPS        -0.0161
     29 CZ5        19.9530   22.7900   31.8070 C.ar      1 GPS        -0.0618
     30 CE5        20.0770   22.5870   33.1920 C.ar      1 GPS        -0.0690
     31 CD5        20.1880   21.2700   33.6940 C.ar      1 GPS        -0.0691
     32 CG5        20.1680   20.1760   32.8320 C.ar      1 GPS        -0.0575
     33 CB5        20.0200   20.4050   31.4260 C.ar      1 GPS        -0.0041
     34 CA5        20.0380   19.2230   30.4890 C.3       1 GPS         0.1113
     35 O5         21.4250   19.1070   30.0180 O.3       1 GPS        -0.3758
     36 H1         15.1244   13.9263   24.9555 H         1 GPS         0.2010
     37 H2         14.9916   15.4507   24.3490 H         1 GPS         0.2010
     38 H3         13.6634   14.4827   24.4404 H         1 GPS         0.2010
     39 H4         13.7379   14.5088   26.9150 H         1 GPS         0.1026
     40 H5         16.1185   16.4597   26.3675 H         1 GPS         0.0363
     41 H6         16.3302   14.7386   26.8364 H         1 GPS         0.0363
     42 H7         14.7587   15.1454   28.8008 H         1 GPS         0.0505
     43 H8         14.7369   16.8887   28.3685 H         1 GPS         0.0505
     44 H9         15.3832   16.3964   30.8327 H         1 GPS         0.1883
     45 H10        18.4072   16.7416   30.9307 H         1 GPS         0.0808
     46 H11        17.8815   19.0082   32.0488 H         1 GPS         0.0426
     47 H12        16.1432   18.7540   31.6741 H         1 GPS         0.0426
     48 H13        16.1254   14.8783   32.0411 H         1 GPS         0.1873
     49 H14        14.9633   14.6838   34.2250 H         1 GPS         0.0689
     50 H15        16.3074   15.6344   34.9437 H         1 GPS         0.0689
     51 H16        19.1952   18.6286   28.5637 H         1 GPS         0.0627
     52 H17        18.8841   20.0338   26.7400 H         1 GPS         0.0554
     53 H18        19.5224   22.1468   25.6583 H         1 GPS         0.0593
     54 H19        20.3389   24.0709   26.9790 H         1 GPS         0.0559
     55 H20        20.4843   23.9129   29.4529 H         1 GPS         0.0595
     56 H21        19.8644   23.7953   31.4112 H         1 GPS         0.0595
     57 H22        20.0875   23.4330   33.8697 H         1 GPS         0.0559
     58 H23        20.2898   21.1098   34.7613 H         1 GPS         0.0593
     59 H24        20.2629   19.1679   33.2190 H         1 GPS         0.0555
     60 H25        19.7583   18.3115   31.0376 H         1 GPS         0.0796
     61 H26        21.4997   18.3584   29.4379 H         1 GPS         0.2134
@<TRIPOS>BOND
     1    1    2 1  
     2    2    6 1  
     3    2    3 1  
     4    3    5 ar 
     5    3    4 ar 
     6    6    7 1  
     7    7    8 1  
     8    8   10 am 
     9    8    9 2  
    10   10   11 1  
    11   11   14 1  
    12   11   12 1  
    13   12   16 am 
    14   12   13 2  
    15   16   17 1  
    16   17   18 1  
    17   18   20 ar 
    18   18   19 ar 
    19   14   15 1  
    20   15   21 1  
    21   21   22 1  
    22   21   34 1  
    23   34   35 1  
    24   34   33 1  
    25   33   32 ar 
    26   33   28 ar 
    27   28   29 ar 
    28   28   27 1  
    29   27   26 ar 
    30   27   22 ar 
    31   22   23 ar 
    32   23   24 ar 
    33   24   25 ar 
    34   25   26 ar 
    35   29   30 ar 
    36   30   31 ar 
    37   31   32 ar 
    38    1   36 1  
    39    1   37 1  
    40    1   38 1  
    41    2   39 1  
    42    6   40 1  
    43    6   41 1  
    44    7   42 1  
    45    7   43 1  
    46   10   44 1  
    47   11   45 1  
    48   14   46 1  
    49   14   47 1  
    50   16   48 1  
    51   17   49 1  
    52   17   50 1  
    53   21   51 1  
    54   23   52 1  
    55   24   53 1  
    56   25   54 1  
    57   26   55 1  
    58   29   56 1  
    59   30   57 1  
    60   31   58 1  
    61   32   59 1  
    62   34   60 1  
    63   35   61 1  
@<TRIPOS>SUBSTRUCTURE
     1 GPS         1

