### 
### Created by X-TOOL on Mon Sep 10 21:12:54 2018
### 

@<TRIPOS>MOLECULE
2gtk_ligand
   53    56     1     0     0
SMALL
GAST_HUCK


@<TRIPOS>ATOM
      1 C30         0.2960   28.7680   15.4750 C.3       1 208        -0.0414
      2 C28        -0.1200   27.8040   16.5870 C.3       1 208         0.0476
      3 O25         0.3980   28.2430   17.8380 O.3       1 208        -0.3610
      4 C15        -0.0240   27.4050   18.9110 C.3       1 208         0.1186
      5 C13        -1.3820   27.8110   19.4020 C.2       1 208         0.0654
      6 O22        -2.1170   26.9220   19.9260 O.co2     1 208        -0.5662
      7 O20        -1.7210   29.0300   19.3250 O.co2     1 208        -0.5662
      8 C19         0.9770   27.4680   20.0680 C.3       1 208         0.0129
      9 C18         2.2210   26.6840   19.7700 C.ar      1 208        -0.0562
     10 C21         3.2640   27.2670   19.0130 C.ar      1 208        -0.0731
     11 C17         2.3360   25.3940   20.2620 C.ar      1 208        -0.0750
     12 C11         3.5190   24.6780   20.0120 C.ar      1 208        -0.0350
     13 C12         3.9450   23.3650   20.3950 C.2       1 208        -0.0662
     14 C10         5.2050   23.1970   19.9190 C.2       1 208         0.0240
     15 C8          4.5360   25.2810   19.2860 C.ar      1 208         0.0615
     16 C14         4.4370   26.5740   18.7580 C.ar      1 208        -0.0476
     17 N4          5.6220   24.3690   19.2270 N.pl3     1 208        -0.2622
     18 C9          6.9290   24.5960   18.5960 C.3       1 208         0.0776
     19 C3          6.8700   24.2440   17.1430 C.2       1 208         0.0418
     20 C7          7.1540   24.9540   16.0390 C.2       1 208         0.1166
     21 C26         7.6300   26.3670   15.8900 C.3       1 208        -0.0013
     22 O5          6.9430   24.1820   14.9140 O.3       1 208        -0.2356
     23 N2          6.4580   22.9710   16.6950 N.2       1 208        -0.3103
     24 C1          6.5170   22.9690   15.3210 C.2       1 208         0.1883
     25 C6          6.1750   21.8420   14.4770 C.ar      1 208         0.0451
     26 C16         6.3860   21.8500   13.0830 C.ar      1 208         0.0526
     27 CL23        7.0720   23.2420   12.2750 Cl        1 208        -0.0691
     28 C27         6.0550   20.7330   12.3140 C.ar      1 208        -0.0474
     29 C31         5.5110   19.6080   12.9190 C.ar      1 208        -0.0616
     30 C29         5.2930   19.5900   14.2990 C.ar      1 208        -0.0612
     31 C24         5.6210   20.6950   15.0690 C.ar      1 208        -0.0493
     32 H1         -0.1104   28.4174   14.5148 H         1 208         0.0252
     33 H2          1.3937   28.8079   15.4159 H         1 208         0.0252
     34 H3         -0.0961   29.7720   15.6944 H         1 208         0.0252
     35 H4          0.2719   26.8008   16.3635 H         1 208         0.0559
     36 H5         -1.2179   27.7650   16.6421 H         1 208         0.0559
     37 H6         -0.0765   26.3691   18.5448 H         1 208         0.0787
     38 H7          0.5039   27.0557   20.9714 H         1 208         0.0448
     39 H8          1.2517   28.5184   20.2448 H         1 208         0.0448
     40 H9          3.1440   28.2724   18.6259 H         1 208         0.0486
     41 H10         1.5285   24.9454   20.8292 H         1 208         0.0457
     42 H11         3.3661   22.6375   20.9621 H         1 208         0.0278
     43 H12         5.8074   22.2989   20.0474 H         1 208         0.0932
     44 H13         5.2402   27.0126   18.1770 H         1 208         0.0534
     45 H14         7.6852   23.9691   19.0911 H         1 208         0.0694
     46 H15         7.2045   25.6556   18.7021 H         1 208         0.0694
     47 H16         7.7544   26.6013   14.8225 H         1 208         0.0409
     48 H17         8.5941   26.4855   16.4061 H         1 208         0.0409
     49 H18         6.8909   27.0514   16.3319 H         1 208         0.0409
     50 H19         6.2229   20.7440   11.2431 H         1 208         0.0622
     51 H20         5.2549   18.7419   12.3196 H         1 208         0.0615
     52 H21         4.8668   18.7106   14.7682 H         1 208         0.0618
     53 H22         5.4482   20.6737   16.1389 H         1 208         0.0626
@<TRIPOS>BOND
     1    1    2 1  
     2    2    3 1  
     3    3    4 1  
     4    4    5 1  
     5    4    8 1  
     6    5    6 ar 
     7    5    7 ar 
     8    8    9 1  
     9    9   10 ar 
    10    9   11 ar 
    11   10   16 ar 
    12   11   12 ar 
    13   12   13 1  
    14   12   15 ar 
    15   13   14 2  
    16   14   17 1  
    17   15   16 ar 
    18   15   17 1  
    19   17   18 1  
    20   18   19 1  
    21   19   20 2  
    22   19   23 1  
    23   20   21 1  
    24   20   22 1  
    25   22   24 1  
    26   23   24 2  
    27   24   25 1  
    28   25   26 ar 
    29   25   31 ar 
    30   26   27 1  
    31   26   28 ar 
    32   28   29 ar 
    33   29   30 ar 
    34   30   31 ar 
    35    1   32 1  
    36    1   33 1  
    37    1   34 1  
    38    2   35 1  
    39    2   36 1  
    40    4   37 1  
    41    8   38 1  
    42    8   39 1  
    43   10   40 1  
    44   11   41 1  
    45   13   42 1  
    46   14   43 1  
    47   16   44 1  
    48   18   45 1  
    49   18   46 1  
    50   21   47 1  
    51   21   48 1  
    52   21   49 1  
    53   28   50 1  
    54   29   51 1  
    55   30   52 1  
    56   31   53 1  
@<TRIPOS>SUBSTRUCTURE
     1 208         1

