### 
### Created by X-TOOL on Mon Sep 10 21:12:55 2018
### 

@<TRIPOS>MOLECULE
2gtv_ligand
   26    27     1     0     0
SMALL
GAST_HUCK


@<TRIPOS>ATOM
      1 C1         -5.4700    0.6150    2.4380 C.3       1 TSA        -0.0155
      2 C2         -5.3100   -0.1610    3.7510 C.2       1 TSA        -0.0747
      3 C3         -6.2690   -0.0750    4.6940 C.2       1 TSA         0.0158
      4 C4         -7.3310    1.0170    4.7540 C.3       1 TSA         0.1561
      5 O5         -6.9000    1.9550    5.7170 O.3       1 TSA        -0.3559
      6 C5         -7.4810    1.7910    3.4160 C.3       1 TSA         0.1028
      7 C6         -6.0770    1.9860    2.7930 C.3       1 TSA        -0.0484
      8 O7         -8.2940    1.1270    2.4590 O.3       1 TSA        -0.3538
      9 C8         -7.8850   -0.0160    1.7060 C.3       1 TSA         0.1008
     10 C9         -6.4000    0.0380    1.3500 C.3       1 TSA        -0.0440
     11 C10        -4.1550    0.6720    1.6420 C.2       1 TSA        -0.0056
     12 O1         -3.9680    1.6560    0.9120 O.co2     1 TSA        -0.5698
     13 O2         -3.3260   -0.2530    1.7390 O.co2     1 TSA        -0.5698
     14 C11        -8.1970   -1.3060    2.4650 C.2       1 TSA         0.0624
     15 O3         -7.9060   -2.4350    2.0170 O.co2     1 TSA        -0.5664
     16 O4         -8.7640   -1.1490    3.5540 O.co2     1 TSA        -0.5664
     17 H1         -4.4280   -0.7770    3.9202 H         1 TSA         0.0480
     18 H2         -6.2865   -0.8403    5.4685 H         1 TSA         0.1560
     19 H3         -8.2983    0.5773    5.0385 H         1 TSA         0.1059
     20 H4         -6.8111    1.5245    6.5592 H         1 TSA         0.2180
     21 H5         -7.9270    2.7730    3.6322 H         1 TSA         0.0670
     22 H6         -6.1634    2.5947    1.8808 H         1 TSA         0.0149
     23 H7         -5.4247    2.4985    3.5154 H         1 TSA         0.0149
     24 H8         -8.4585   -0.0233    0.7673 H         1 TSA         0.0754
     25 H9         -6.0678   -0.9875    1.1309 H         1 TSA         0.0162
     26 H10        -6.2913    0.6591    0.4487 H         1 TSA         0.0162
@<TRIPOS>BOND
     1    1    2 1  
     2    1    7 1  
     3    1   10 1  
     4    1   11 1  
     5    2    3 2  
     6    3    4 1  
     7    4    5 1  
     8    4    6 1  
     9    6    7 1  
    10    6    8 1  
    11    8    9 1  
    12    9   10 1  
    13    9   14 1  
    14   11   12 ar 
    15   11   13 ar 
    16   14   15 ar 
    17   14   16 ar 
    18    2   17 1  
    19    3   18 1  
    20    4   19 1  
    21    5   20 1  
    22    6   21 1  
    23    7   22 1  
    24    7   23 1  
    25    9   24 1  
    26   10   25 1  
    27   10   26 1  
@<TRIPOS>SUBSTRUCTURE
     1 TSA         1

