### 
### Created by X-TOOL on Mon Sep 10 21:12:56 2018
### 

@<TRIPOS>MOLECULE
2gu8_ligand
   48    50     1     0     0
SMALL
GAST_HUCK


@<TRIPOS>ATOM
      1 O23        -9.6900   -9.2610    0.6840 O.2       1 796        -0.3861
      2 C22       -10.0940   -9.5220    1.8320 C.2       1 796         0.2160
      3 C18        -9.1420   -9.7940    2.9270 C.2       1 796         0.1097
      4 S1         -7.4760   -9.9170    2.3660 S.3       1 796        -0.0115
      5 C17        -9.2430  -10.0010    4.2890 C.2       1 796        -0.0417
      6 C16        -8.0150  -10.2540    4.9150 C.2       1 796        -0.0470
      7 C15        -6.9350  -10.2680    4.0330 C.2       1 796         0.0641
      8 C3         -5.4560  -10.3730    4.2130 C.ar      1 796         0.0611
      9 C2         -4.8850  -10.4440    5.4910 C.ar      1 796        -0.0199
     10 N4         -4.6670  -10.2940    3.1150 N.ar      1 796        -0.2563
     11 C5         -3.3130  -10.3060    3.2990 C.ar      1 796         0.1841
     12 N9         -2.5670  -10.2390    2.2320 N.pl3     1 796        -0.2932
     13 C10        -3.2340   -9.9220    0.9880 C.3       1 796         0.0193
     14 N6         -2.7590  -10.4040    4.5180 N.ar      1 796        -0.2600
     15 C1         -3.4870  -10.4710    5.6370 C.ar      1 796         0.0096
     16 N24       -11.3640   -9.5860    2.2010 N.am      1 796        -0.2761
     17 C25       -12.3920   -8.9870    1.3750 C.3       1 796         0.0903
     18 C27       -12.5970   -7.5230    1.7500 C.3       1 796        -0.0101
     19 N43       -13.3690   -6.7970    0.7530 N.4       1 796         0.2203
     20 C28       -13.5920   -9.8620    1.6990 C.3       1 796         0.0096
     21 C30       -13.4750  -11.1960    0.9510 C.ar      1 796        -0.0263
     22 C37       -13.8750  -11.3060   -0.3710 C.ar      1 796        -0.0590
     23 C36       -13.7900  -12.5400   -1.0330 C.ar      1 796        -0.0544
     24 C35       -13.3070  -13.6450   -0.3650 C.ar      1 796         0.0335
     25 CL4       -13.1680  -15.2310   -1.1410 Cl        1 796        -0.0770
     26 C34       -12.8850  -13.5670    0.9220 C.ar      1 796        -0.0406
     27 C33       -12.9660  -12.3430    1.5530 C.ar      1 796         0.0419
     28 CL2       -12.4060  -12.3460    3.2400 Cl        1 796        -0.0771
     29 H1        -10.1895   -9.9704    4.8267 H         1 796         0.0551
     30 H2         -7.9140  -10.4232    5.9860 H         1 796         0.0551
     31 H3         -5.5218  -10.4781    6.3676 H         1 796         0.0654
     32 H4         -1.5511  -10.4039    2.2727 H         1 796         0.1857
     33 H5         -2.4962   -9.8968    0.1725 H         1 796         0.0488
     34 H6         -3.7204   -8.9390    1.0728 H         1 796         0.0488
     35 H7         -3.9924  -10.6891    0.7727 H         1 796         0.0488
     36 H8         -3.0206  -10.5429    6.6129 H         1 796         0.0875
     37 H9        -11.6139  -10.0488    3.0515 H         1 796         0.1846
     38 H10       -12.1371   -9.0524    0.3069 H         1 796         0.0631
     39 H11       -11.6123   -7.0434    1.8520 H         1 796         0.0838
     40 H12       -13.1292   -7.4760    2.7115 H         1 796         0.0838
     41 H13       -13.4772   -5.8382    1.0446 H         1 796         0.1995
     42 H14       -14.2773   -7.2231    0.6557 H         1 796         0.1995
     43 H15       -12.8873   -6.8267   -0.1320 H         1 796         0.1995
     44 H16       -14.5138   -9.3483    1.3886 H         1 796         0.0453
     45 H17       -13.6247  -10.0516    2.7820 H         1 796         0.0453
     46 H18       -14.2546  -10.4364   -0.8951 H         1 796         0.0557
     47 H19       -14.1034  -12.6244   -2.0673 H         1 796         0.0607
     48 H20       -12.4969  -14.4380    1.4376 H         1 796         0.0612
@<TRIPOS>BOND
     1    1    2 2  
     2    2    3 1  
     3    2   16 am 
     4    3    4 1  
     5    3    5 2  
     6    4    7 1  
     7    5    6 1  
     8    6    7 2  
     9    7    8 1  
    10    8    9 ar 
    11    8   10 ar 
    12    9   15 ar 
    13   10   11 ar 
    14   11   12 1  
    15   11   14 ar 
    16   12   13 1  
    17   14   15 ar 
    18   16   17 1  
    19   17   18 1  
    20   17   20 1  
    21   18   19 1  
    22   20   21 1  
    23   21   22 ar 
    24   21   27 ar 
    25   22   23 ar 
    26   23   24 ar 
    27   24   25 1  
    28   24   26 ar 
    29   26   27 ar 
    30   27   28 1  
    31    5   29 1  
    32    6   30 1  
    33    9   31 1  
    34   12   32 1  
    35   13   33 1  
    36   13   34 1  
    37   13   35 1  
    38   15   36 1  
    39   16   37 1  
    40   17   38 1  
    41   18   39 1  
    42   18   40 1  
    43   19   41 1  
    44   19   42 1  
    45   19   43 1  
    46   20   44 1  
    47   20   45 1  
    48   22   46 1  
    49   23   47 1  
    50   26   48 1  
@<TRIPOS>SUBSTRUCTURE
     1 796         1

