### 
### Created by X-TOOL on Mon Sep 10 21:12:54 2018
### 

@<TRIPOS>MOLECULE
2gv6_ligand
   76    79     1     0     0
SMALL
GAST_HUCK


@<TRIPOS>ATOM
      1 S1         18.5000   64.1160   28.8110 S.o2      1 730         0.0706
      2 O39        18.2950   63.4140   30.0570 O.2       1 730        -0.1501
      3 O38        19.7530   64.8440   28.6360 O.2       1 730        -0.1501
      4 N12        18.3320   63.0850   27.6160 N.am      1 730        -0.2235
      5 C13        18.3940   63.4390   26.2220 C.3       1 730         0.1358
      6 C24        17.0350   63.0600   25.5950 C.2       1 730         0.2023
      7 N26        16.4110   63.7080   24.5120 N.am      1 730        -0.2715
      8 C31        15.1150   63.1700   24.0230 C.3       1 730         0.0342
      9 C30        14.0500   64.2960   23.8850 C.3       1 730        -0.0295
     10 C29        14.5530   65.6660   24.4040 C.3       1 730        -0.0342
     11 C32        13.4180   66.7690   24.2700 C.3       1 730        -0.0168
     12 C33        13.5250   67.8710   23.1550 C.3       1 730         0.0628
     13 N34        12.3330   68.7720   23.1870 N.pl3     1 730        -0.2723
     14 C35        12.1240   69.8150   22.3640 C.cat     1 730         0.2882
     15 N37        11.0110   70.5200   22.5010 N.pl3     1 730        -0.2849
     16 N36        12.9730   70.1780   21.4220 N.pl3     1 730        -0.2849
     17 C28        15.8930   66.0260   23.6570 C.3       1 730        -0.0295
     18 C27        16.9920   64.8910   23.8180 C.3       1 730         0.0342
     19 O25        16.5000   62.0790   26.1410 O.2       1 730        -0.3946
     20 C14        19.5480   62.8090   25.3560 C.3       1 730         0.0179
     21 C15        19.4040   61.3250   24.9740 C.ar      1 730        -0.0390
     22 C20        19.9150   60.2860   25.8220 C.ar      1 730        -0.0549
     23 C19        19.7750   58.9090   25.4620 C.ar      1 730         0.0192
     24 C21        20.3190   57.8180   26.3490 C.cat     1 730         0.2340
     25 N23        20.7730   58.1080   27.5460 N.pl3     1 730        -0.2722
     26 N22        20.3360   56.5860   25.9180 N.pl3     1 730        -0.2722
     27 C18        19.1120   58.5790   24.2400 C.ar      1 730        -0.0635
     28 C17        18.6030   59.5940   23.3920 C.ar      1 730        -0.0686
     29 C16        18.7470   60.9560   23.7510 C.ar      1 730        -0.0601
     30 C2         17.1400   65.2220   28.5100 C.ar      1 730         0.1089
     31 C7         15.7870   64.7850   28.6180 C.ar      1 730        -0.0345
     32 C6         14.7200   65.6980   28.3440 C.ar      1 730        -0.0522
     33 C5         15.0070   67.0450   27.9590 C.ar      1 730        -0.0178
     34 C11        13.9580   67.9680   27.6780 C.ar      1 730        -0.0540
     35 C10        14.2660   69.3070   27.2930 C.ar      1 730        -0.0612
     36 C9         15.6240   69.7320   27.1910 C.ar      1 730        -0.0612
     37 C8         16.6760   68.8210   27.4680 C.ar      1 730        -0.0540
     38 C4         16.3810   67.4790   27.8520 C.ar      1 730        -0.0160
     39 C3         17.4250   66.5680   28.1250 C.ar      1 730        -0.0274
     40 H1         18.1724   62.1252   27.8469 H         1 730         0.1708
     41 H2         18.5183   64.5307   26.1706 H         1 730         0.0777
     42 H3         14.7486   62.4160   24.7352 H         1 730         0.0522
     43 H4         15.2699   62.7012   23.0400 H         1 730         0.0522
     44 H5         13.1579   64.0083   24.4607 H         1 730         0.0287
     45 H6         13.7834   64.3992   22.8228 H         1 730         0.0287
     46 H7         14.7851   65.5660   25.4746 H         1 730         0.0303
     47 H8         13.3710   67.2959   25.2344 H         1 730         0.0302
     48 H9         12.4727   66.2335   24.0982 H         1 730         0.0302
     49 H10        13.5833   67.3841   22.1704 H         1 730         0.0689
     50 H11        14.4335   68.4680   23.3232 H         1 730         0.0689
     51 H12        11.6127   68.5784   23.8974 H         1 730         0.2642
     52 H13        10.8304   71.3229   21.8816 H         1 730         0.2615
     53 H14        10.3261   70.2653   23.2270 H         1 730         0.2615
     54 H15        13.8485   69.6524   21.2874 H         1 730         0.2615
     55 H16        12.7605   70.9871   20.8211 H         1 730         0.2615
     56 H17        16.2892   66.9644   24.0723 H         1 730         0.0287
     57 H18        15.6770   66.1609   22.5869 H         1 730         0.0287
     58 H19        17.3508   64.5888   22.8231 H         1 730         0.0522
     59 H20        17.8340   65.2815   24.4084 H         1 730         0.0522
     60 H21        20.4847   62.9164   25.9226 H         1 730         0.0469
     61 H22        19.6158   63.3869   24.4225 H         1 730         0.0469
     62 H23        20.4138   60.5485   26.7479 H         1 730         0.0556
     63 H24        21.1443   57.3615   28.1508 H         1 730         0.3181
     64 H25        20.7579   59.0821   27.8805 H         1 730         0.3181
     65 H26        19.9784   56.3643   24.9778 H         1 730         0.3181
     66 H27        20.7070   55.8355   26.5181 H         1 730         0.3181
     67 H28        18.9969   57.5387   23.9579 H         1 730         0.0559
     68 H29        18.1031   59.3274   22.4678 H         1 730         0.0599
     69 H30        18.3578   61.7277   23.0967 H         1 730         0.0557
     70 H31        15.5674   63.7636   28.9070 H         1 730         0.0637
     71 H32        13.6910   65.3677   28.4285 H         1 730         0.0624
     72 H33        12.9240   67.6521   27.7569 H         1 730         0.0624
     73 H34        13.4646   70.0043   27.0771 H         1 730         0.0618
     74 H35        15.8523   70.7514   26.9017 H         1 730         0.0618
     75 H36        17.7071   69.1457   27.3876 H         1 730         0.0624
     76 H37        18.4554   66.8940   28.0414 H         1 730         0.0643
@<TRIPOS>BOND
     1    1    2 2  
     2    1    3 2  
     3    1    4 am 
     4    1   30 1  
     5    4    5 1  
     6    5    6 1  
     7    5   20 1  
     8    6    7 am 
     9    6   19 2  
    10    7    8 1  
    11    7   18 1  
    12    8    9 1  
    13    9   10 1  
    14   10   11 1  
    15   10   17 1  
    16   11   12 1  
    17   12   13 1  
    18   13   14 ar 
    19   14   15 ar 
    20   14   16 ar 
    21   17   18 1  
    22   20   21 1  
    23   21   22 ar 
    24   21   29 ar 
    25   22   23 ar 
    26   23   24 1  
    27   23   27 ar 
    28   24   25 ar 
    29   24   26 ar 
    30   27   28 ar 
    31   28   29 ar 
    32   30   31 ar 
    33   30   39 ar 
    34   31   32 ar 
    35   32   33 ar 
    36   33   34 ar 
    37   33   38 ar 
    38   34   35 ar 
    39   35   36 ar 
    40   36   37 ar 
    41   37   38 ar 
    42   38   39 ar 
    43    4   40 1  
    44    5   41 1  
    45    8   42 1  
    46    8   43 1  
    47    9   44 1  
    48    9   45 1  
    49   10   46 1  
    50   11   47 1  
    51   11   48 1  
    52   12   49 1  
    53   12   50 1  
    54   13   51 1  
    55   15   52 1  
    56   15   53 1  
    57   16   54 1  
    58   16   55 1  
    59   17   56 1  
    60   17   57 1  
    61   18   58 1  
    62   18   59 1  
    63   20   60 1  
    64   20   61 1  
    65   22   62 1  
    66   25   63 1  
    67   25   64 1  
    68   26   65 1  
    69   26   66 1  
    70   27   67 1  
    71   28   68 1  
    72   29   69 1  
    73   31   70 1  
    74   32   71 1  
    75   34   72 1  
    76   35   73 1  
    77   36   74 1  
    78   37   75 1  
    79   39   76 1  
@<TRIPOS>SUBSTRUCTURE
     1 730         1

