### 
### Created by X-TOOL on Mon Sep 10 21:12:54 2018
### 

@<TRIPOS>MOLECULE
2gv7_ligand
  105   108     1     0     0
SMALL
GAST_HUCK


@<TRIPOS>ATOM
      1 C2         13.2860   67.7070   27.4180 C.3       1 672        -0.0162
      2 C4         13.5330   69.2330   27.4640 C.3       1 672        -0.0530
      3 C3         14.6020   66.9120   27.5460 C.ar      1 672        -0.0538
      4 C9         14.5800   65.6700   28.2110 C.ar      1 672        -0.0637
      5 C8         15.7570   64.8720   28.3680 C.ar      1 672        -0.0274
      6 C13        15.6410   63.5290   29.1150 C.3       1 672        -0.0143
      7 C15        14.3740   62.7220   28.7290 C.3       1 672        -0.0530
      8 C14        15.6630   63.7950   30.6460 C.3       1 672        -0.0530
      9 C7         17.0210   65.3370   27.8400 C.ar      1 672         0.1039
     10 S16        18.5490   64.3310   28.0320 S.o2      1 672         0.0625
     11 N19        18.3240   63.0430   27.0200 N.am      1 672        -0.2260
     12 C20        17.9920   63.3230   25.6170 C.3       1 672         0.1355
     13 C23        19.0940   62.7470   24.6740 C.3       1 672         0.0179
     14 C24        18.9320   61.2500   24.3530 C.ar      1 672        -0.0390
     15 C29        19.5890   60.2850   25.1810 C.ar      1 672        -0.0549
     16 C28        19.4440   58.8960   24.9150 C.ar      1 672         0.0192
     17 C30        20.1000   57.9320   25.7230 C.cat     1 672         0.2340
     18 N32        20.0620   56.6140   25.4020 N.pl3     1 672        -0.2722
     19 N31        20.7970   58.3000   26.8070 N.pl3     1 672        -0.2722
     20 C27        18.6270   58.4870   23.8090 C.ar      1 672        -0.0635
     21 C26        17.9770   59.4390   22.9820 C.ar      1 672        -0.0686
     22 C25        18.1260   60.8180   23.2430 C.ar      1 672        -0.0601
     23 C21        16.6060   62.7970   25.3360 C.2       1 672         0.2024
     24 N33        15.7050   63.4740   24.3220 N.am      1 672        -0.2677
     25 C38        16.2330   64.6340   23.6370 C.3       1 672         0.0543
     26 C37        15.1220   65.7200   23.4970 C.3       1 672         0.0543
     27 N36        13.7970   65.1170   23.6210 N.am      1 672        -0.2691
     28 C39        12.7070   65.7180   22.8210 C.2       1 672         0.1819
     29 C41        12.9730   66.9540   21.9940 C.3       1 672         0.0551
     30 C46        13.0840   66.5060   20.5020 C.3       1 672         0.0002
     31 C45        13.2510   67.7160   19.5630 C.3       1 672         0.0672
     32 N44        12.0780   68.6850   19.8440 N.pl3     1 672        -0.2594
     33 C47        11.1610   68.9890   18.8840 C.cat     1 672         0.2903
     34 N49        11.3570   68.6040   17.6090 N.pl3     1 672        -0.2848
     35 N48        10.0270   69.6620   19.1900 N.pl3     1 672        -0.2848
     36 C43        11.9640   69.2320   21.2560 C.3       1 672         0.0672
     37 C42        11.8190   68.0190   22.2150 C.3       1 672         0.0002
     38 O40        11.5860   65.2140   22.8460 O.2       1 672        -0.3966
     39 C35        13.3830   63.9740   24.4280 C.3       1 672         0.0543
     40 C34        14.3980   62.8590   24.1900 C.3       1 672         0.0543
     41 O22        16.2080   61.8010   25.9510 O.2       1 672        -0.3946
     42 O18        18.6160   63.7980   29.3830 O.2       1 672        -0.1532
     43 O17        19.7050   65.0690   27.5590 O.2       1 672        -0.1532
     44 C6         17.0420   66.6290   27.1490 C.ar      1 672        -0.0274
     45 C10        18.3340   67.2300   26.5450 C.3       1 672        -0.0143
     46 C12        18.8690   68.3860   27.4270 C.3       1 672        -0.0530
     47 C11        18.1000   67.7630   25.1080 C.3       1 672        -0.0530
     48 C5         15.8330   67.3840   27.0210 C.ar      1 672        -0.0637
     49 C1         12.5640   67.3620   26.1020 C.3       1 672        -0.0530
     50 H1         12.6354   67.4316   28.2611 H         1 672         0.0454
     51 H2         12.5735   69.7627   27.3700 H         1 672         0.0254
     52 H3         14.1945   69.5226   26.6342 H         1 672         0.0254
     53 H4         14.0066   69.4991   28.4205 H         1 672         0.0254
     54 H5         13.6421   65.3079   28.6163 H         1 672         0.0439
     55 H6         16.5185   62.9193   28.8536 H         1 672         0.0454
     56 H7         14.3530   61.7793   29.2955 H         1 672         0.0254
     57 H8         14.3936   62.5018   27.6514 H         1 672         0.0254
     58 H9         13.4767   63.3124   28.9664 H         1 672         0.0254
     59 H10        16.5657   64.3674   30.9057 H         1 672         0.0254
     60 H11        15.6694   62.8360   31.1848 H         1 672         0.0254
     61 H12        14.7696   64.3699   30.9312 H         1 672         0.0254
     62 H13        18.4111   62.1039   27.3524 H         1 672         0.1705
     63 H14        17.9725   64.4134   25.4736 H         1 672         0.0776
     64 H15        20.0715   62.8922   25.1571 H         1 672         0.0469
     65 H16        19.0657   63.3075   23.7279 H         1 672         0.0469
     66 H17        20.1994   60.6144   26.0140 H         1 672         0.0556
     67 H18        20.5428   55.9248   25.9976 H         1 672         0.3181
     68 H19        19.5524   56.3028   24.5627 H         1 672         0.3181
     69 H20        20.8444   59.2931   27.0761 H         1 672         0.3181
     70 H21        21.2852   57.5897   27.3710 H         1 672         0.3181
     71 H22        18.5039   57.4302   23.6012 H         1 672         0.0559
     72 H23        17.3662   59.1074   22.1501 H         1 672         0.0599
     73 H24        17.6352   61.5482   22.6097 H         1 672         0.0557
     74 H25        16.5826   64.3390   22.6366 H         1 672         0.0542
     75 H26        17.0748   65.0458   24.2130 H         1 672         0.0542
     76 H27        15.2093   66.2021   22.5121 H         1 672         0.0542
     77 H28        15.2516   66.4742   24.2872 H         1 672         0.0542
     78 H29        13.9273   67.4040   22.3051 H         1 672         0.0540
     79 H30        12.1706   65.9601   20.2233 H         1 672         0.0326
     80 H31        13.9553   65.8439   20.3909 H         1 672         0.0326
     81 H32        13.2222   67.3850   18.5144 H         1 672         0.0692
     82 H33        14.2093   68.2177   19.7630 H         1 672         0.0692
     83 H34        10.6597   68.8371   16.8877 H         1 672         0.2615
     84 H35        12.2043   68.0764   17.3548 H         1 672         0.2615
     85 H36         9.8546   69.9670   20.1586 H         1 672         0.2615
     86 H37         9.3366   69.8690   18.4542 H         1 672         0.2615
     87 H38        11.0807   69.8825   21.3368 H         1 672         0.0692
     88 H39        12.8669   69.8064   21.5105 H         1 672         0.0692
     89 H40        11.8605   68.3790   23.2536 H         1 672         0.0326
     90 H41        10.8480   67.5352   22.0331 H         1 672         0.0326
     91 H42        12.3799   63.6413   24.1229 H         1 672         0.0542
     92 H43        13.3697   64.2499   25.4927 H         1 672         0.0542
     93 H44        14.2731   62.0623   24.9381 H         1 672         0.0542
     94 H45        14.2737   62.4378   23.1815 H         1 672         0.0542
     95 H46        19.0946   66.4364   26.5041 H         1 672         0.0454
     96 H47        19.7857   68.7959   26.9778 H         1 672         0.0254
     97 H48        19.0929   68.0052   28.4344 H         1 672         0.0254
     98 H49        18.1083   69.1777   27.4949 H         1 672         0.0254
     99 H50        17.7197   66.9496   24.4726 H         1 672         0.0254
    100 H51        19.0492   68.1365   24.6963 H         1 672         0.0254
    101 H52        17.3650   68.5810   25.1354 H         1 672         0.0254
    102 H53        15.8582   68.3399   26.5105 H         1 672         0.0439
    103 H54        12.3822   66.2781   26.0568 H         1 672         0.0254
    104 H55        13.1904   67.6645   25.2499 H         1 672         0.0254
    105 H56        11.6038   67.8969   26.0594 H         1 672         0.0254
@<TRIPOS>BOND
     1    1    2 1  
     2    1    3 1  
     3    1   49 1  
     4    3    4 ar 
     5    3   48 ar 
     6    4    5 ar 
     7    5    6 1  
     8    5    9 ar 
     9    6    7 1  
    10    6    8 1  
    11    9   10 1  
    12    9   44 ar 
    13   10   11 am 
    14   10   42 2  
    15   10   43 2  
    16   11   12 1  
    17   12   13 1  
    18   12   23 1  
    19   13   14 1  
    20   14   15 ar 
    21   14   22 ar 
    22   15   16 ar 
    23   16   17 1  
    24   16   20 ar 
    25   17   18 ar 
    26   17   19 ar 
    27   20   21 ar 
    28   21   22 ar 
    29   23   24 am 
    30   23   41 2  
    31   24   25 1  
    32   24   40 1  
    33   25   26 1  
    34   26   27 1  
    35   27   28 am 
    36   27   39 1  
    37   28   29 1  
    38   28   38 2  
    39   29   30 1  
    40   29   37 1  
    41   30   31 1  
    42   31   32 1  
    43   32   33 ar 
    44   32   36 1  
    45   33   34 ar 
    46   33   35 ar 
    47   36   37 1  
    48   39   40 1  
    49   44   45 1  
    50   44   48 ar 
    51   45   46 1  
    52   45   47 1  
    53    1   50 1  
    54    2   51 1  
    55    2   52 1  
    56    2   53 1  
    57    4   54 1  
    58    6   55 1  
    59    7   56 1  
    60    7   57 1  
    61    7   58 1  
    62    8   59 1  
    63    8   60 1  
    64    8   61 1  
    65   11   62 1  
    66   12   63 1  
    67   13   64 1  
    68   13   65 1  
    69   15   66 1  
    70   18   67 1  
    71   18   68 1  
    72   19   69 1  
    73   19   70 1  
    74   20   71 1  
    75   21   72 1  
    76   22   73 1  
    77   25   74 1  
    78   25   75 1  
    79   26   76 1  
    80   26   77 1  
    81   29   78 1  
    82   30   79 1  
    83   30   80 1  
    84   31   81 1  
    85   31   82 1  
    86   34   83 1  
    87   34   84 1  
    88   35   85 1  
    89   35   86 1  
    90   36   87 1  
    91   36   88 1  
    92   37   89 1  
    93   37   90 1  
    94   39   91 1  
    95   39   92 1  
    96   40   93 1  
    97   40   94 1  
    98   45   95 1  
    99   46   96 1  
   100   46   97 1  
   101   46   98 1  
   102   47   99 1  
   103   47  100 1  
   104   47  101 1  
   105   48  102 1  
   106   49  103 1  
   107   49  104 1  
   108   49  105 1  
@<TRIPOS>SUBSTRUCTURE
     1 672         1

