### 
### Created by X-TOOL on Mon Sep 10 21:12:56 2018
### 

@<TRIPOS>MOLECULE
2gvf_ligand
  115   119     1     0     0
SMALL
GAST_HUCK


@<TRIPOS>ATOM
      1 C1        190.6710  -10.7660   48.1360 C.3       1 NHN         0.0468
      2 C2        190.0340  -11.7900   49.0680 C.3       1 NHN        -0.0047
      3 C3        189.8020  -11.2810   50.4460 C.ar      1 NHN        -0.0497
      4 C4        190.7040  -11.5610   51.4660 C.ar      1 NHN        -0.0321
      5 C5        188.7000  -10.4840   50.7210 C.ar      1 NHN        -0.0713
      6 C6        190.5130  -11.0700   52.7590 C.ar      1 NHN         0.0845
      7 C7        188.4850   -9.9920   51.9990 C.ar      1 NHN        -0.0772
      8 C8        189.3950  -10.2820   53.0070 C.ar      1 NHN        -0.0401
      9 C9        192.1750  -10.7200   48.3730 C.2       1 NHN         0.1802
     10 O10       192.7970  -11.7270   48.7060 O.2       1 NHN        -0.3968
     11 O11       191.3960  -11.3270   53.8350 O.3       1 NHN        -0.3175
     12 C12       192.5020  -12.1270   53.4680 C.3       1 NHN         0.0936
     13 C13       193.4990  -11.0850   53.0250 C.3       1 NHN         0.0758
     14 O14       194.5650  -11.7550   52.4530 O.3       1 NHN        -0.3717
     15 N15       192.7620   -9.5530   48.1690 N.am      1 NHN        -0.2652
     16 C16       194.2060   -9.4300   48.2100 C.3       1 NHN         0.1339
     17 C17       194.7350   -8.6670   46.9940 C.3       1 NHN        -0.0006
     18 C18       196.2590   -8.5350   47.0510 C.3       1 NHN        -0.0460
     19 C19       194.3750   -9.3680   45.6900 C.3       1 NHN        -0.0460
     20 C20       196.8210   -7.7790   45.8650 C.3       1 NHN        -0.0526
     21 C21       194.8800   -8.6160   44.4760 C.3       1 NHN        -0.0526
     22 C22       196.3910   -8.4310   44.5510 C.3       1 NHN        -0.0530
     23 C23       194.6410   -8.6560   49.4390 C.2       1 NHN         0.2067
     24 O24       194.3170   -7.4810   49.5760 O.2       1 NHN        -0.3942
     25 N25       195.3160   -9.3210   50.3750 N.am      1 NHN        -0.2473
     26 C26       195.4340  -10.7800   50.4920 C.3       1 NHN         0.0631
     27 C27       195.7820   -8.6470   51.5810 C.3       1 NHN         0.1361
     28 C28       196.3580   -9.7800   52.4080 C.3       1 NHN         0.0160
     29 C29       195.4860  -10.8620   51.9710 C.3       1 NHN         0.0834
     30 C30       196.8690   -7.6690   51.1830 C.2       1 NHN         0.2024
     31 O31       197.8440   -8.0430   50.5240 O.2       1 NHN        -0.3945
     32 N32       196.6850   -6.4110   51.5720 N.am      1 NHN        -0.2772
     33 C33       197.6280   -5.3410   51.2610 C.3       1 NHN         0.0850
     34 C34       196.9530   -4.2670   50.3840 C.3       1 NHN        -0.0255
     35 C35       196.1020   -4.8340   49.2430 C.3       1 NHN        -0.0536
     36 C36       196.0810   -4.0390   47.9920 C.3       1 NHN        -0.0652
     37 O37       198.6940   -5.8640   53.4180 O.3       1 NHN        -0.3691
     38 C38       198.3220   -4.7920   52.5180 C.3       1 NHN         0.1663
     39 O39       199.5300   -2.8090   51.6750 O.2       1 NHN        -0.3940
     40 N40       200.6260   -4.7360   52.0000 N.am      1 NHN        -0.2661
     41 C41       201.9470   -4.1920   51.7620 C.3       1 NHN         0.1203
     42 C42       202.2260   -4.1450   50.2840 C.2       1 NHN         0.2025
     43 O43       201.3580   -4.4080   49.4520 O.2       1 NHN        -0.3945
     44 C44       199.5330   -3.9930   52.0210 C.2       1 NHN         0.2093
     45 N45       203.4560   -3.7720   49.9640 N.am      1 NHN        -0.2534
     46 C46       203.9360   -3.6910   48.6030 C.3       1 NHN         0.1644
     47 C47       203.7270   -2.3680   47.8990 C.ar      1 NHN         0.0010
     48 C48       203.3130   -2.3680   46.5820 C.ar      1 NHN        -0.0557
     49 C49       203.9990   -1.1580   48.5160 C.ar      1 NHN        -0.0557
     50 C50       203.1760   -1.1860   45.8860 C.ar      1 NHN        -0.0681
     51 C51       203.8670    0.0330   47.8320 C.ar      1 NHN        -0.0681
     52 C52       203.4570    0.0230   46.5140 C.ar      1 NHN        -0.0684
     53 C53       205.4530   -3.7330   48.7280 C.2       1 NHN         0.2155
     54 O54       206.0200   -3.1800   49.6800 O.2       1 NHN        -0.3913
     55 N55       206.1330   -4.3830   47.7700 N.am      1 NHN        -0.2758
     56 C56       207.5310   -4.3920   47.8330 C.3       1 NHN         0.0224
     57 C57       205.4750   -5.0340   46.7310 C.3       1 NHN         0.0224
     58 H1        190.2394   -9.7737   48.3337 H         1 NHN         0.0525
     59 H2        190.4742  -11.0501   47.0917 H         1 NHN         0.0525
     60 H3        190.6978  -12.6651   49.1282 H         1 NHN         0.0449
     61 H4        189.0660  -12.0926   48.6420 H         1 NHN         0.0449
     62 H5        191.5732  -12.1729   51.2532 H         1 NHN         0.0478
     63 H6        188.0003  -10.2437   49.9287 H         1 NHN         0.0464
     64 H7        187.6122   -9.3848   52.2101 H         1 NHN         0.0572
     65 H8        189.2309   -9.8876   54.0033 H         1 NHN         0.0486
     66 H9        192.2463  -12.8122   52.6464 H         1 NHN         0.0637
     67 H10       192.8801  -12.7055   54.3238 H         1 NHN         0.0637
     68 H11       193.8426  -10.5001   53.8909 H         1 NHN         0.0587
     69 H12       193.0377  -10.4117   52.2875 H         1 NHN         0.0587
     70 H13       192.2028   -8.7448   47.9841 H         1 NHN         0.1883
     71 H14       194.6468  -10.4376   48.2319 H         1 NHN         0.0803
     72 H15       194.2870   -7.6624   46.9944 H         1 NHN         0.0348
     73 H16       196.6999   -9.5426   47.0679 H         1 NHN         0.0270
     74 H17       196.5324   -7.9996   47.9722 H         1 NHN         0.0270
     75 H18       193.2802   -9.4523   45.6240 H         1 NHN         0.0270
     76 H19       194.8206  -10.3737   45.6940 H         1 NHN         0.0270
     77 H20       197.9194   -7.7793   45.9250 H         1 NHN         0.0265
     78 H21       196.4526   -6.7428   45.8906 H         1 NHN         0.0265
     79 H22       194.3964   -7.6289   44.4350 H         1 NHN         0.0265
     80 H23       194.6299   -9.1848   43.5683 H         1 NHN         0.0265
     81 H24       196.8743   -9.4156   44.4677 H         1 NHN         0.0265
     82 H25       196.7130   -7.7925   43.7151 H         1 NHN         0.0265
     83 H26       196.3509  -11.1635   50.0205 H         1 NHN         0.0550
     84 H27       194.5609  -11.3038   50.0757 H         1 NHN         0.0550
     85 H28       194.9680   -8.1300   52.1102 H         1 NHN         0.0803
     86 H29       196.2656   -9.5887   53.4873 H         1 NHN         0.0338
     87 H30       197.4114   -9.9757   52.1591 H         1 NHN         0.0338
     88 H31       196.2918  -11.6051   52.0634 H         1 NHN         0.0618
     89 H32       195.8656   -6.1883   52.1002 H         1 NHN         0.1857
     90 H33       198.4235   -5.7875   50.6464 H         1 NHN         0.0607
     91 H34       197.7393   -3.6342   49.9467 H         1 NHN         0.0290
     92 H35       196.3042   -3.6540   51.0269 H         1 NHN         0.0290
     93 H36       195.0668   -4.9191   49.6052 H         1 NHN         0.0263
     94 H37       196.4888   -5.8346   48.9996 H         1 NHN         0.0263
     95 H38       195.4423   -4.5401   47.2498 H         1 NHN         0.0230
     96 H39       197.1035   -3.9512   47.5961 H         1 NHN         0.0230
     97 H40       195.6816   -3.0358   48.2017 H         1 NHN         0.0230
     98 H41       197.9147   -6.3383   53.6830 H         1 NHN         0.2134
     99 H42       197.6367   -4.1167   53.0512 H         1 NHN         0.0861
    100 H43       200.5366   -5.7198   52.1557 H         1 NHN         0.1881
    101 H44       202.6971   -4.8285   52.2541 H         1 NHN         0.0763
    102 H45       202.0017   -3.1741   52.1755 H         1 NHN         0.0763
    103 H46       204.0860   -3.5338   50.7032 H         1 NHN         0.1909
    104 H47       203.5267   -4.5194   48.0061 H         1 NHN         0.0960
    105 H48       203.0931   -3.3083   46.0895 H         1 NHN         0.0562
    106 H49       204.3202   -1.1466   49.5513 H         1 NHN         0.0562
    107 H50       202.8502   -1.1986   44.8522 H         1 NHN         0.0600
    108 H51       204.0843    0.9723   48.3275 H         1 NHN         0.0600
    109 H52       203.3543    0.9548   45.9698 H         1 NHN         0.0561
    110 H53       207.9327   -4.9620   46.9823 H         1 NHN         0.0486
    111 H54       207.8526   -4.8622   48.7740 H         1 NHN         0.0486
    112 H55       207.9066   -3.3589   47.7922 H         1 NHN         0.0486
    113 H56       204.3883   -4.9154   46.8539 H         1 NHN         0.0486
    114 H57       205.7313   -6.1036   46.7477 H         1 NHN         0.0486
    115 H58       205.7851   -4.5976   45.7701 H         1 NHN         0.0486
@<TRIPOS>BOND
     1    1    2 1  
     2    9    1 1  
     3    2    3 1  
     4    4    3 ar 
     5    3    5 ar 
     6    6    4 ar 
     7    7    5 ar 
     8    6    8 ar 
     9   11    6 1  
    10    8    7 ar 
    11    9   10 2  
    12   15    9 am 
    13   12   11 1  
    14   13   12 1  
    15   14   13 1  
    16   29   14 1  
    17   16   15 1  
    18   16   17 1  
    19   23   16 1  
    20   17   18 1  
    21   17   19 1  
    22   18   20 1  
    23   19   21 1  
    24   20   22 1  
    25   21   22 1  
    26   23   24 2  
    27   25   23 am 
    28   25   26 1  
    29   27   25 1  
    30   29   26 1  
    31   27   28 1  
    32   30   27 1  
    33   28   29 1  
    34   30   31 2  
    35   32   30 am 
    36   33   32 1  
    37   33   34 1  
    38   38   33 1  
    39   34   35 1  
    40   35   36 1  
    41   38   37 1  
    42   44   38 1  
    43   44   39 2  
    44   40   41 1  
    45   40   44 am 
    46   41   42 1  
    47   42   43 2  
    48   42   45 am 
    49   45   46 1  
    50   46   47 1  
    51   46   53 1  
    52   47   48 ar 
    53   47   49 ar 
    54   48   50 ar 
    55   49   51 ar 
    56   50   52 ar 
    57   51   52 ar 
    58   53   54 2  
    59   53   55 am 
    60   55   56 1  
    61   55   57 1  
    62    1   58 1  
    63    1   59 1  
    64    2   60 1  
    65    2   61 1  
    66    4   62 1  
    67    5   63 1  
    68    7   64 1  
    69    8   65 1  
    70   12   66 1  
    71   12   67 1  
    72   13   68 1  
    73   13   69 1  
    74   15   70 1  
    75   16   71 1  
    76   17   72 1  
    77   18   73 1  
    78   18   74 1  
    79   19   75 1  
    80   19   76 1  
    81   20   77 1  
    82   20   78 1  
    83   21   79 1  
    84   21   80 1  
    85   22   81 1  
    86   22   82 1  
    87   26   83 1  
    88   26   84 1  
    89   27   85 1  
    90   28   86 1  
    91   28   87 1  
    92   29   88 1  
    93   32   89 1  
    94   33   90 1  
    95   34   91 1  
    96   34   92 1  
    97   35   93 1  
    98   35   94 1  
    99   36   95 1  
   100   36   96 1  
   101   36   97 1  
   102   37   98 1  
   103   38   99 1  
   104   40  100 1  
   105   41  101 1  
   106   41  102 1  
   107   45  103 1  
   108   46  104 1  
   109   48  105 1  
   110   49  106 1  
   111   50  107 1  
   112   51  108 1  
   113   52  109 1  
   114   56  110 1  
   115   56  111 1  
   116   56  112 1  
   117   57  113 1  
   118   57  114 1  
   119   57  115 1  
@<TRIPOS>SUBSTRUCTURE
     1 NHN         1

