### 
### Created by X-TOOL on Mon Sep 10 21:12:55 2018
### 

@<TRIPOS>MOLECULE
2gvj_ligand
   58    60     1     0     0
SMALL
GAST_HUCK


@<TRIPOS>ATOM
      1 CAK         4.8840   -1.6460   51.0300 C.ar      1 DGB        -0.0419
      2 CAF         3.5440   -1.4970   50.6700 C.ar      1 DGB        -0.0562
      3 CAE         2.9630   -2.3650   49.7450 C.ar      1 DGB        -0.0575
      4 CAG         3.7200   -3.3940   49.1820 C.ar      1 DGB        -0.0562
      5 CAL         5.0560   -3.5480   49.5480 C.ar      1 DGB        -0.0419
      6 CBA         5.6430   -2.6730   50.4670 C.ar      1 DGB         0.0500
      7 CAY         7.0920   -2.8540   50.8480 C.2       1 DGB         0.2074
      8 OAB         7.3380   -3.3360   51.9430 O.2       1 DGB        -0.3845
      9 NBC         8.0700   -2.5100   49.9910 N.am      1 DGB        -0.2724
     10 CAU         7.7760   -1.9150   48.6840 C.3       1 DGB         0.0336
     11 CAS         8.3010   -2.8720   47.6190 C.3       1 DGB        -0.0297
     12 CAT         9.5050   -2.6700   50.3010 C.3       1 DGB         0.0336
     13 CAR        10.1270   -3.5430   49.1930 C.3       1 DGB        -0.0297
     14 CBB         9.8150   -3.0360   47.7720 C.3       1 DGB        -0.0374
     15 CAQ        10.3620   -3.9470   46.6560 C.3       1 DGB        -0.0500
     16 CAO         9.6730   -5.3100   46.5340 C.3       1 DGB        -0.0510
     17 CAN         9.9790   -5.9430   45.1800 C.3       1 DGB        -0.0329
     18 CAP        10.2550   -7.4490   45.2070 C.3       1 DGB         0.0299
     19 NAW        10.5650   -7.7430   43.8110 N.am      1 DGB        -0.2880
     20 CAX         9.8840   -8.4410   42.9040 C.2       1 DGB         0.1948
     21 OAA         8.8130   -8.9980   43.1370 O.2       1 DGB        -0.3887
     22 CAC        10.4590   -8.5040   41.6870 C.2       1 DGB         0.0148
     23 CAD         9.8870   -9.1680   40.6740 C.2       1 DGB        -0.0302
     24 CAZ        10.4790   -9.2500   39.3150 C.ar      1 DGB         0.0122
     25 CAJ        11.6920   -8.6300   39.0030 C.ar      1 DGB        -0.0318
     26 CAH        12.2020   -8.7460   37.7120 C.ar      1 DGB        -0.0314
     27 CAI        11.4730   -9.4650   36.7630 C.ar      1 DGB         0.0131
     28 NAV        10.3110  -10.0620   37.0780 N.ar      1 DGB        -0.2931
     29 CAM         9.8080   -9.9660   38.3220 C.ar      1 DGB         0.0223
     30 H1          5.3339   -0.9663   51.7446 H         1 DGB         0.0669
     31 H2          2.9519   -0.7033   51.1110 H         1 DGB         0.0629
     32 H3          1.9236   -2.2404   49.4635 H         1 DGB         0.0653
     33 H4          3.2708   -4.0701   48.4635 H         1 DGB         0.0629
     34 H5          5.6434   -4.3509   49.1176 H         1 DGB         0.0669
     35 H6          8.2772   -0.9400   48.5934 H         1 DGB         0.0522
     36 H7          6.6904   -1.7815   48.5672 H         1 DGB         0.0522
     37 H8          8.0764   -2.4671   46.6212 H         1 DGB         0.0287
     38 H9          7.8138   -3.8513   47.7356 H         1 DGB         0.0287
     39 H10         9.6252   -3.1617   51.2776 H         1 DGB         0.0522
     40 H11         9.9960   -1.6859   50.3230 H         1 DGB         0.0522
     41 H12         9.7350   -4.5659   49.2928 H         1 DGB         0.0287
     42 H13        11.2186   -3.5538   49.3282 H         1 DGB         0.0287
     43 H14        10.2866   -2.0489   47.6566 H         1 DGB         0.0302
     44 H15        11.4303   -4.1215   46.8514 H         1 DGB         0.0268
     45 H16        10.2459   -3.4195   45.6978 H         1 DGB         0.0268
     46 H17         8.5857   -5.1765   46.6339 H         1 DGB         0.0266
     47 H18        10.0361   -5.9723   47.3337 H         1 DGB         0.0266
     48 H19        10.8660   -5.4428   44.7641 H         1 DGB         0.0285
     49 H20         9.1162   -5.7678   44.5206 H         1 DGB         0.0285
     50 H21         9.3697   -8.0087   45.5431 H         1 DGB         0.0518
     51 H22        11.1077   -7.6844   45.8608 H         1 DGB         0.0518
     52 H23        11.4278   -7.3582   43.4829 H         1 DGB         0.1837
     53 H24        11.4119   -8.0029   41.5230 H         1 DGB         0.0699
     54 H25         8.9397   -9.6733   40.8565 H         1 DGB         0.0756
     55 H26        12.2294   -8.0657   39.7565 H         1 DGB         0.0763
     56 H27        13.1478   -8.2863   37.4489 H         1 DGB         0.0714
     57 H28        11.8523   -9.5434   35.7506 H         1 DGB         0.0838
     58 H29         8.8678  -10.4518   38.5568 H         1 DGB         0.0857
@<TRIPOS>BOND
     1    1    2 ar 
     2    1    6 ar 
     3    2    3 ar 
     4    3    4 ar 
     5    4    5 ar 
     6    5    6 ar 
     7    6    7 1  
     8    7    8 2  
     9    7    9 am 
    10    9   10 1  
    11    9   12 1  
    12   10   11 1  
    13   11   14 1  
    14   12   13 1  
    15   13   14 1  
    16   14   15 1  
    17   15   16 1  
    18   16   17 1  
    19   17   18 1  
    20   18   19 1  
    21   19   20 am 
    22   20   21 2  
    23   20   22 1  
    24   22   23 2  
    25   23   24 1  
    26   24   25 ar 
    27   24   29 ar 
    28   25   26 ar 
    29   26   27 ar 
    30   27   28 ar 
    31   28   29 ar 
    32    1   30 1  
    33    2   31 1  
    34    3   32 1  
    35    4   33 1  
    36    5   34 1  
    37   10   35 1  
    38   10   36 1  
    39   11   37 1  
    40   11   38 1  
    41   12   39 1  
    42   12   40 1  
    43   13   41 1  
    44   13   42 1  
    45   14   43 1  
    46   15   44 1  
    47   15   45 1  
    48   16   46 1  
    49   16   47 1  
    50   17   48 1  
    51   17   49 1  
    52   18   50 1  
    53   18   51 1  
    54   19   52 1  
    55   22   53 1  
    56   23   54 1  
    57   25   55 1  
    58   26   56 1  
    59   27   57 1  
    60   29   58 1  
@<TRIPOS>SUBSTRUCTURE
     1 DGB         1

