### 
### Created by X-TOOL on Mon Sep 10 21:12:45 2018
### 

@<TRIPOS>MOLECULE
2gyi_ligand
   19    18     1     0     0
SMALL
GAST_HUCK


@<TRIPOS>ATOM
      1 C1         15.8850    5.7280  -12.2640 C.2       1 HYA         0.2304
      2 C2         17.0010    6.3900  -11.4310 C.3       1 HYA         0.1730
      3 C3         16.7440    6.1030   -9.9320 C.3       1 HYA         0.1210
      4 C4         17.9580    6.0650   -8.9580 C.3       1 HYA         0.0748
      5 N          15.8850    4.5690  -12.8860 N.am      1 HYA        -0.1620
      6 O1         14.7680    6.4130  -12.1500 O.2       1 HYA        -0.3940
      7 O2         18.2780    6.4390  -11.9720 O.3       1 HYA        -0.3688
      8 O3         16.0870    7.2920   -9.6000 O.3       1 HYA        -0.3845
      9 O4         18.6860    4.9010   -9.0880 O.3       1 HYA        -0.3922
     10 O          14.7940    4.2980  -13.6690 O.3       1 HYA        -0.2717
     11 H1         16.7354    7.4556  -11.4941 H         1 HYA         0.0864
     12 H2         16.1311    5.1985   -9.8044 H         1 HYA         0.0668
     13 H3         17.5875    6.1390   -7.9249 H         1 HYA         0.0585
     14 H4         18.6143    6.9208   -9.1744 H         1 HYA         0.0585
     15 H5         16.6406    3.9207  -12.7924 H         1 HYA         0.2217
     16 H6         18.2200    6.6270  -12.9014 H         1 HYA         0.2134
     17 H7         15.3226    7.3957  -10.1546 H         1 HYA         0.2102
     18 H8         19.4154    4.9154   -8.4795 H         1 HYA         0.2095
     19 H9         14.0103    4.3061  -13.1320 H         1 HYA         0.2490
@<TRIPOS>BOND
     1    1    2 1  
     2    1    5 am 
     3    1    6 2  
     4    2    3 1  
     5    2    7 1  
     6    3    4 1  
     7    3    8 1  
     8    4    9 1  
     9    5   10 1  
    10    2   11 1  
    11    3   12 1  
    12    4   13 1  
    13    4   14 1  
    14    5   15 1  
    15    7   16 1  
    16    8   17 1  
    17    9   18 1  
    18   10   19 1  
@<TRIPOS>SUBSTRUCTURE
     1 HYA         1

