### 
### Created by X-TOOL on Mon Sep 10 21:12:54 2018
### 

@<TRIPOS>MOLECULE
2gz7_ligand
   35    36     1     0     0
SMALL
GAST_HUCK


@<TRIPOS>ATOM
      1 C1        -22.9720  -45.6860    4.9680 C.ar      1 D3F         0.0417
      2 C2        -23.3970  -45.4080    3.6950 C.ar      1 D3F        -0.0388
      3 C3        -24.0820  -44.2520    3.4050 C.ar      1 D3F         0.0591
      4 C4        -24.3950  -43.3220    4.3830 C.ar      1 D3F         0.1062
      5 C5        -23.9920  -43.6380    5.6900 C.ar      1 D3F        -0.0336
      6 C6        -23.3000  -44.8010    5.9990 C.ar      1 D3F        -0.0299
      7 C7        -22.9010  -45.1640    7.4390 C.3       1 D3F        -0.0303
      8 S1        -25.2470  -41.8360    4.0400 S.o2      1 D3F         0.0454
      9 O1        -26.7040  -42.2010    3.8130 O.2       1 D3F        -0.1594
     10 O2        -24.7050  -41.4140    2.6720 O.2       1 D3F        -0.1594
     11 C8        -25.1290  -40.4510    5.1270 C.ar      1 D3F         0.2063
     12 C9        -25.2910  -40.5770    6.5120 C.ar      1 D3F         0.2610
     13 C10       -25.2840  -39.4700    7.3630 C.ar      1 D3F         0.0188
     14 C11       -25.1020  -38.1880    6.8510 C.ar      1 D3F         0.0649
     15 C12       -24.9200  -38.0480    5.4780 C.ar      1 D3F         0.0188
     16 C13       -24.9290  -39.1560    4.6270 C.ar      1 D3F         0.2610
     17 N1        -24.7270  -38.9480    3.3210 N.2       1 D3F         0.3252
     18 O3        -25.8380  -38.9730    2.4170 O.2       1 D3F         0.1792
     19 O4        -23.4020  -38.6880    2.8340 O.2       1 D3F         0.1792
     20 C14       -25.0800  -36.9690    7.7920 C.3       1 D3F         0.3802
     21 F1        -24.7940  -35.8630    7.0910 F         1 D3F        -0.2193
     22 F2        -26.2530  -36.8170    8.4450 F         1 D3F        -0.2193
     23 F3        -24.1150  -37.1370    8.7080 F         1 D3F        -0.2193
     24 N2        -25.4380  -41.7700    7.0830 N.2       1 D3F         0.3252
     25 O5        -26.6830  -42.4590    6.9510 O.2       1 D3F         0.1792
     26 O6        -24.3480  -42.3630    7.7950 O.2       1 D3F         0.1792
     27 CL1       -24.8170  -43.8210    2.1090 Cl        1 D3F        -0.0751
     28 CL2       -22.0230  -47.0860    5.2810 Cl        1 D3F        -0.0771
     29 H1        -23.1885  -46.1147    2.8999 H         1 D3F         0.0612
     30 H2        -24.2307  -42.9463    6.4898 H         1 D3F         0.0576
     31 H3        -22.3643  -46.1242    7.4398 H         1 D3F         0.0393
     32 H4        -23.8052  -45.2489    8.0597 H         1 D3F         0.0393
     33 H5        -22.2481  -44.3787    7.8476 H         1 D3F         0.0393
     34 H6        -25.4211  -39.6096    8.4292 H         1 D3F         0.0972
     35 H7        -24.7682  -37.0592    5.0606 H         1 D3F         0.0972
@<TRIPOS>BOND
     1    1    2 ar 
     2    1    6 ar 
     3    1   28 1  
     4    2    3 ar 
     5    3    4 ar 
     6    3   27 1  
     7    4    5 ar 
     8    4    8 1  
     9    5    6 ar 
    10    6    7 1  
    11    8    9 2  
    12    8   10 2  
    13    8   11 1  
    14   11   12 ar 
    15   11   16 ar 
    16   12   13 ar 
    17   12   24 1  
    18   13   14 ar 
    19   14   15 ar 
    20   14   20 1  
    21   15   16 ar 
    22   16   17 1  
    23   17   18 2  
    24   17   19 2  
    25   20   21 1  
    26   20   22 1  
    27   20   23 1  
    28   24   25 2  
    29   24   26 2  
    30    2   29 1  
    31    5   30 1  
    32    7   31 1  
    33    7   32 1  
    34    7   33 1  
    35   13   34 1  
    36   15   35 1  
@<TRIPOS>SUBSTRUCTURE
     1 D3F         1

