### 
### Created by X-TOOL on Mon Sep 10 21:12:54 2018
### 

@<TRIPOS>MOLECULE
2gz8_ligand
   33    35     1     0     0
SMALL
GAST_HUCK


@<TRIPOS>ATOM
      1 CAA       -24.7560  -35.0310    5.5060 C.ar      1 F3F        -0.0472
      2 CAB       -25.2490  -34.4890    6.7000 C.ar      1 F3F        -0.0612
      3 CAC       -25.8940  -35.3120    7.6310 C.ar      1 F3F        -0.0623
      4 CAD       -26.0460  -36.6780    7.3640 C.ar      1 F3F        -0.0612
      5 CAE       -25.5570  -37.2210    6.1650 C.ar      1 F3F        -0.0472
      6 CAF       -24.9120  -36.4010    5.2340 C.ar      1 F3F         0.0231
      7 CAG       -24.3950  -36.9560    4.0080 C.1       1 F3F        -0.0620
      8 CAH       -23.9760  -37.5160    2.9550 C.1       1 F3F        -0.0269
      9 CAI       -23.3130  -37.9580    1.7540 C.2       1 F3F         0.1714
     10 OAM       -22.2450  -38.8630    1.8760 O.3       1 F3F        -0.2350
     11 CAJ       -23.4840  -37.6320    0.4720 C.2       1 F3F        -0.0357
     12 CAK       -22.6020  -38.3260   -0.2710 C.2       1 F3F        -0.0371
     13 CAL       -21.8780  -39.0890    0.5440 C.2       1 F3F         0.1855
     14 CAN       -20.7490  -40.0400    0.1400 C.2       1 F3F         0.2457
     15 OAY       -20.3180  -40.0490   -1.0160 O.2       1 F3F        -0.3653
     16 SAO       -20.0150  -41.1560    1.3150 S.3       1 F3F         0.0954
     17 CAP       -20.9140  -42.5960    0.8640 C.2       1 F3F         0.2580
     18 NAT       -20.5730  -43.8360    1.1650 N.pl3     1 F3F        -0.1983
     19 CAS       -21.5560  -44.5860    0.6630 C.2       1 F3F         0.2295
     20 CAU       -21.6240  -46.1000    0.8380 C.3       1 F3F         0.4148
     21 FAW       -22.3500  -46.7400   -0.0980 F         1 F3F        -0.2245
     22 FAX       -20.3730  -46.5440    0.7750 F         1 F3F        -0.2245
     23 FAV       -22.1450  -46.3600    2.0590 F         1 F3F        -0.2245
     24 NAR       -22.4380  -43.7950    0.0590 N.2       1 F3F        -0.1824
     25 NAQ       -22.0550  -42.6210    0.1760 N.2       1 F3F        -0.1764
     26 H1        -24.2527  -34.3918    4.7897 H         1 F3F         0.0625
     27 H2        -25.1309  -33.4308    6.9034 H         1 F3F         0.0616
     28 H3        -26.2745  -34.8930    8.5555 H         1 F3F         0.0613
     29 H4        -26.5424  -37.3179    8.0846 H         1 F3F         0.0616
     30 H5        -25.6798  -38.2785    5.9606 H         1 F3F         0.0625
     31 H6        -24.2159  -36.9220    0.0898 H         1 F3F         0.0417
     32 H7        -22.4986  -38.2723   -1.3538 H         1 F3F         0.0462
     33 H8        -19.7354  -44.1533    1.6736 H         1 F3F         0.2509
@<TRIPOS>BOND
     1    1    2 ar 
     2    1    6 ar 
     3    2    3 ar 
     4    3    4 ar 
     5    4    5 ar 
     6    5    6 ar 
     7    6    7 1  
     8    7    8 3  
     9    8    9 1  
    10    9   10 1  
    11    9   11 2  
    12   10   13 1  
    13   11   12 1  
    14   12   13 2  
    15   13   14 1  
    16   14   15 2  
    17   14   16 1  
    18   16   17 1  
    19   17   18 1  
    20   17   25 2  
    21   18   19 1  
    22   19   20 1  
    23   19   24 2  
    24   20   21 1  
    25   20   22 1  
    26   20   23 1  
    27   24   25 1  
    28    1   26 1  
    29    2   27 1  
    30    3   28 1  
    31    4   29 1  
    32    5   30 1  
    33   11   31 1  
    34   12   32 1  
    35   18   33 1  
@<TRIPOS>SUBSTRUCTURE
     1 F3F         1

