### 
### Created by X-TOOL on Mon Sep 10 21:12:54 2018
### 

@<TRIPOS>MOLECULE
2h02_ligand
   48    49     1     0     0
SMALL
GAST_HUCK


@<TRIPOS>ATOM
      1 O7          6.7400    3.9860   41.0050 O.co2     1 2UN        -0.4632
      2 S1          7.3110    5.2190   40.4260 S.o2      1 2UN        -0.0960
      3 O5          8.7890    5.1150   40.5320 O.co2     1 2UN        -0.4632
      4 O6          6.9480    5.4930   39.0100 O.co2     1 2UN        -0.4632
      5 N1          6.8510    6.4710   41.3370 N.am      1 2UN        -0.2244
      6 C5          5.5700    6.9030   41.3300 C.ar      1 2UN         0.0526
      7 C4          5.1540    7.9000   40.4370 C.ar      1 2UN        -0.0517
      8 C2          4.6670    6.3030   42.2090 C.ar      1 2UN        -0.0517
      9 C6          3.3370    6.6980   42.2430 C.ar      1 2UN        -0.0758
     10 C3          2.9020    7.6830   41.3620 C.ar      1 2UN        -0.0608
     11 C1          3.8100    8.2740   40.4690 C.ar      1 2UN        -0.0758
     12 C19         1.4360    8.0830   41.4390 C.3       1 2UN        -0.0037
     13 C7          1.1200    9.3290   42.2860 C.3       1 2UN         0.1686
     14 C8         -0.3830    9.6270   42.3600 C.2       1 2UN         0.2717
     15 O2         -0.8410   10.7570   42.2220 O.2       1 2UN        -0.3148
     16 O1         -1.3900    8.6100   42.6200 O.3       1 2UN        -0.2811
     17 C17        -2.8050    8.7370   42.8280 C.3       1 2UN         0.0648
     18 C9          1.8040   10.4760   41.5650 C.2       1 2UN         0.2717
     19 O4          1.3290   10.9060   40.2510 O.3       1 2UN        -0.2811
     20 C18         2.0020   11.8520   39.4170 C.3       1 2UN         0.0648
     21 O3          2.7580   11.0580   42.0540 O.2       1 2UN        -0.3148
     22 C10         1.7070    9.1150   43.6860 C.3       1 2UN         0.0038
     23 C11         1.0280    9.8910   44.7960 C.ar      1 2UN        -0.0443
     24 C13         1.5960   11.0850   45.2580 C.ar      1 2UN        -0.0606
     25 C16         1.0050   11.8370   46.2730 C.ar      1 2UN        -0.0686
     26 C12        -0.1910   11.3670   46.8070 C.ar      1 2UN        -0.0687
     27 C15        -0.7800   10.1840   46.3480 C.ar      1 2UN        -0.0686
     28 C14        -0.1670    9.4310   45.3480 C.ar      1 2UN        -0.0606
     29 H1          7.5237    6.9334   41.9147 H         1 2UN         0.2103
     30 H2          5.8503    8.3632   39.7473 H         1 2UN         0.0466
     31 H3          5.0090    5.5181   42.8739 H         1 2UN         0.0466
     32 H4          2.6469    6.2455   42.9460 H         1 2UN         0.0515
     33 H5          3.4582    9.0400   39.7874 H         1 2UN         0.0515
     34 H6          0.8780    7.2362   41.8650 H         1 2UN         0.0375
     35 H7          1.0852    8.2749   40.4143 H         1 2UN         0.0375
     36 H8         -3.2416    7.7415   42.9968 H         1 2UN         0.0576
     37 H9         -3.2666    9.1940   41.9403 H         1 2UN         0.0576
     38 H10        -2.9909    9.3726   43.7063 H         1 2UN         0.0576
     39 H11         1.4305   11.9934   38.4878 H         1 2UN         0.0576
     40 H12         3.0078   11.4777   39.1755 H         1 2UN         0.0576
     41 H13         2.0855   12.8129   39.9458 H         1 2UN         0.0576
     42 H14         2.7654    9.4135   43.6605 H         1 2UN         0.0407
     43 H15         1.6337    8.0439   43.9256 H         1 2UN         0.0407
     44 H16         2.5211   11.4345   44.8141 H         1 2UN         0.0556
     45 H17         1.4600   12.7529   46.6323 H         1 2UN         0.0599
     46 H18        -0.6769   11.9298   47.5958 H         1 2UN         0.0559
     47 H19        -1.7198    9.8506   46.7731 H         1 2UN         0.0599
     48 H20        -0.6116    8.5037   45.0053 H         1 2UN         0.0556
@<TRIPOS>BOND
     1    1    2 ar 
     2    2    3 ar 
     3    2    4 ar 
     4    2    5 am 
     5    5    6 1  
     6    6    7 ar 
     7    6    8 ar 
     8    7   11 ar 
     9    8    9 ar 
    10    9   10 ar 
    11   10   11 ar 
    12   10   12 1  
    13   12   13 1  
    14   13   14 1  
    15   13   18 1  
    16   13   22 1  
    17   14   15 2  
    18   14   16 1  
    19   16   17 1  
    20   18   19 1  
    21   18   21 2  
    22   19   20 1  
    23   22   23 1  
    24   23   24 ar 
    25   23   28 ar 
    26   24   25 ar 
    27   25   26 ar 
    28   26   27 ar 
    29   27   28 ar 
    30    5   29 1  
    31    7   30 1  
    32    8   31 1  
    33    9   32 1  
    34   11   33 1  
    35   12   34 1  
    36   12   35 1  
    37   17   36 1  
    38   17   37 1  
    39   17   38 1  
    40   20   39 1  
    41   20   40 1  
    42   20   41 1  
    43   22   42 1  
    44   22   43 1  
    45   24   44 1  
    46   25   45 1  
    47   26   46 1  
    48   27   47 1  
    49   28   48 1  
@<TRIPOS>SUBSTRUCTURE
     1 2UN         1

