### 
### Created by X-TOOL on Mon Sep 10 21:12:54 2018
### 

@<TRIPOS>MOLECULE
2h03_ligand
   64    64     1     0     0
SMALL
GAST_HUCK


@<TRIPOS>ATOM
      1 N          22.4760    4.6290   24.2290 N.am      1 3UN        -0.2244
      2 O48        19.5270    1.7630   31.6650 O.2       1 3UN        -0.3150
      3 C36        20.4130    2.5950   31.5110 C.2       1 3UN         0.2699
      4 O49        21.2760    2.8430   32.6380 O.3       1 3UN        -0.2782
      5 C51        21.2000    2.0150   33.7980 C.3       1 3UN         0.0730
      6 C54        22.6080    1.6440   34.1970 C.3       1 3UN        -0.0372
      7 C11        20.6550    3.3490   30.2220 C.3       1 3UN         0.1611
      8 C15        20.9270    4.8330   30.4910 C.3       1 3UN        -0.0100
      9 C44        19.7780    5.6610   31.0800 C.3       1 3UN         0.0318
     10 N39        20.2060    7.0420   31.3380 N.am      1 3UN        -0.2628
     11 C37        20.0610    8.1280   30.5670 C.2       1 3UN         0.3200
     12 O38        19.5320    8.0820   29.4670 O.2       1 3UN        -0.3775
     13 O19        20.5370    9.4430   30.9980 O.3       1 3UN        -0.2581
     14 C20        20.2510   10.6570   30.2850 C.3       1 3UN         0.0905
     15 C23        18.8420   10.6330   29.6990 C.3       1 3UN        -0.0320
     16 C22        20.3310   11.8610   31.2230 C.3       1 3UN        -0.0320
     17 C21        21.2850   10.8130   29.1670 C.3       1 3UN        -0.0320
     18 C14        19.4450    3.1890   29.3380 C.2       1 3UN         0.2699
     19 O47        19.0260    1.8380   29.0280 O.3       1 3UN        -0.2782
     20 C50        18.0140    1.6700   28.0200 C.3       1 3UN         0.0730
     21 C60        17.8430    0.1950   27.7590 C.3       1 3UN        -0.0372
     22 O46        18.8300    4.1490   28.8910 O.2       1 3UN        -0.3150
     23 C35        21.8490    2.6300   29.5480 C.3       1 3UN        -0.0055
     24 C2         22.0220    3.1400   28.1240 C.ar      1 3UN        -0.0610
     25 C5         21.5080    2.4320   27.0280 C.ar      1 3UN        -0.0759
     26 C4         21.6700    2.9150   25.7180 C.ar      1 3UN        -0.0517
     27 C6         22.7030    4.3430   27.8980 C.ar      1 3UN        -0.0759
     28 C3         22.8510    4.8380   26.5940 C.ar      1 3UN        -0.0517
     29 C1         22.3350    4.1300   25.4950 C.ar      1 3UN         0.0526
     30 S12        23.6760    4.1230   23.2510 S.o2      1 3UN        -0.0960
     31 O17        24.8500    4.7340   23.8970 O.co2     1 3UN        -0.4632
     32 O18        23.3030    4.7160   21.9520 O.co2     1 3UN        -0.4632
     33 O34        23.7460    2.6600   23.3720 O.co2     1 3UN        -0.4632
     34 H1         21.8303    5.3171   23.8980 H         1 3UN         0.2103
     35 H2         20.6241    1.1057   33.5710 H         1 3UN         0.0609
     36 H3         20.7118    2.5633   34.6171 H         1 3UN         0.0609
     37 H4         22.5791    1.0040   35.0912 H         1 3UN         0.0255
     38 H5         23.1792    2.5576   34.4184 H         1 3UN         0.0255
     39 H6         23.0916    1.1000   33.3722 H         1 3UN         0.0255
     40 H7         21.2119    5.2958   29.5347 H         1 3UN         0.0265
     41 H8         21.7716    4.8926   31.1932 H         1 3UN         0.0265
     42 H9         19.4514    5.2027   32.0251 H         1 3UN         0.0516
     43 H10        18.9394    5.6709   30.3682 H         1 3UN         0.0516
     44 H11        20.6703    7.1927   32.2107 H         1 3UN         0.1867
     45 H12        18.6528   11.5733   29.1605 H         1 3UN         0.0260
     46 H13        18.1088   10.5219   30.5114 H         1 3UN         0.0260
     47 H14        18.7488    9.7866   29.0027 H         1 3UN         0.0260
     48 H15        20.1094   12.7797   30.6601 H         1 3UN         0.0260
     49 H16        21.3429   11.9272   31.6492 H         1 3UN         0.0260
     50 H17        19.5982   11.7427   32.0348 H         1 3UN         0.0260
     51 H18        21.0834   11.7385   28.6077 H         1 3UN         0.0260
     52 H19        21.2213    9.9517   28.4858 H         1 3UN         0.0260
     53 H20        22.2933   10.8610   29.6041 H         1 3UN         0.0260
     54 H21        18.3235    2.1776   27.0945 H         1 3UN         0.0609
     55 H22        17.0638    2.0975   28.3726 H         1 3UN         0.0609
     56 H23        17.0715    0.0459   26.9892 H         1 3UN         0.0255
     57 H24        17.5365   -0.3086   28.6877 H         1 3UN         0.0255
     58 H25        18.7962   -0.2285   27.4096 H         1 3UN         0.0255
     59 H26        21.6583    1.5469   29.5271 H         1 3UN         0.0374
     60 H27        22.7663    2.8299   30.1212 H         1 3UN         0.0374
     61 H28        20.9790    1.5004   27.1932 H         1 3UN         0.0515
     62 H29        21.2810    2.3485   24.8797 H         1 3UN         0.0466
     63 H30        23.1175    4.8939   28.7346 H         1 3UN         0.0515
     64 H31        23.3688    5.7765   26.4322 H         1 3UN         0.0466
@<TRIPOS>BOND
     1   29    1 1  
     2    1   30 am 
     3    3    2 2  
     4    3    4 1  
     5    7    3 1  
     6    4    5 1  
     7    5    6 1  
     8    7    8 1  
     9    7   18 1  
    10   23    7 1  
    11    8    9 1  
    12    9   10 1  
    13   10   11 am 
    14   11   12 2  
    15   11   13 1  
    16   13   14 1  
    17   14   15 1  
    18   14   16 1  
    19   14   17 1  
    20   18   19 1  
    21   18   22 2  
    22   19   20 1  
    23   20   21 1  
    24   24   23 1  
    25   25   24 ar 
    26   24   27 ar 
    27   26   25 ar 
    28   26   29 ar 
    29   27   28 ar 
    30   28   29 ar 
    31   30   31 ar 
    32   30   32 ar 
    33   30   33 ar 
    34    1   34 1  
    35    5   35 1  
    36    5   36 1  
    37    6   37 1  
    38    6   38 1  
    39    6   39 1  
    40    8   40 1  
    41    8   41 1  
    42    9   42 1  
    43    9   43 1  
    44   10   44 1  
    45   15   45 1  
    46   15   46 1  
    47   15   47 1  
    48   16   48 1  
    49   16   49 1  
    50   16   50 1  
    51   17   51 1  
    52   17   52 1  
    53   17   53 1  
    54   20   54 1  
    55   20   55 1  
    56   21   56 1  
    57   21   57 1  
    58   21   58 1  
    59   23   59 1  
    60   23   60 1  
    61   25   61 1  
    62   26   62 1  
    63   27   63 1  
    64   28   64 1  
@<TRIPOS>SUBSTRUCTURE
     1 3UN         1

