### 
### Created by X-TOOL on Mon Sep 10 21:12:53 2018
### 

@<TRIPOS>MOLECULE
2h13_ligand
   82    81     1     0     0
SMALL
GAST_HUCK


@<TRIPOS>ATOM
      1 N         -11.2080  -29.5380   -7.6050 N.4       1 ALA         0.2377
      2 CA        -11.7120  -28.1300   -7.6950 C.3       1 ALA         0.0621
      3 C         -13.2390  -28.0620   -7.5470 C.2       1 ALA         0.2264
      4 O         -13.9070  -29.0970   -7.6000 O.2       1 ALA        -0.3907
      5 CB        -11.3150  -27.5110   -9.0160 C.3       1 ALA        -0.0040
      6 N         -13.7610  -26.8450   -7.3970 N.am      1 ARG        -0.2610
      7 CA        -15.1750  -26.5820   -7.1780 C.3       1 ARG         0.1312
      8 C         -16.0810  -27.2910   -8.1750 C.2       1 ARG         0.2040
      9 O         -17.2710  -27.5150   -7.9390 O.2       1 ARG        -0.3944
     10 CB        -15.3930  -25.0500   -7.3420 C.3       1 ARG        -0.0092
     11 CG        -16.7820  -24.5270   -7.0850 C.3       1 ARG        -0.0156
     12 CD        -16.8290  -23.0250   -7.2990 C.3       1 ARG         0.0627
     13 NE        -15.9160  -22.3160   -6.3900 N.pl3     1 ARG        -0.2723
     14 CZ        -16.3030  -21.7690   -5.2310 C.cat     1 ARG         0.2882
     15 NH1       -17.6010  -21.8790   -4.8270 N.pl3     1 ARG        -0.2849
     16 NH2       -15.4300  -21.1220   -4.4510 N.pl3     1 ARG        -0.2849
     17 N         -15.5290  -27.5420   -9.3510 N.am      1 THR        -0.2613
     18 CA        -16.3170  -28.1160  -10.4540 C.3       1 THR         0.1565
     19 C         -16.5290  -29.6190  -10.3350 C.2       1 THR         0.2065
     20 O         -17.2110  -30.2120  -11.1920 O.2       1 THR        -0.3943
     21 CB        -15.6250  -27.7550  -11.7560 C.3       1 THR         0.0924
     22 OG1       -14.2820  -28.2010  -11.6650 O.3       1 THR        -0.3874
     23 CG2       -15.6480  -26.2560  -11.9560 C.3       1 THR        -0.0346
     24 N         -16.0070  -30.1950   -9.2420 N.am      1 MLY        -0.2637
     25 CA        -16.2640  -31.5950   -8.8440 C.3       1 MLY         0.1307
     26 CB        -14.9450  -32.3860   -8.8620 C.3       1 MLY        -0.0152
     27 CG        -14.4050  -32.5880  -10.2370 C.3       1 MLY        -0.0610
     28 C         -16.8850  -31.7070   -7.4330 C.2       1 MLY         0.2040
     29 O         -16.9150  -30.7220   -6.6760 O.2       1 MLY        -0.3944
     30 N         -17.3670  -32.9210   -7.1560 N.am      1 GLN        -0.2622
     31 CA        -17.6590  -33.5580   -5.8410 C.3       1 GLN         0.1441
     32 C         -19.1510  -33.5530   -5.4730 C.2       1 GLN         0.2572
     33 O         -19.9890  -33.7900   -6.3650 O.2       1 GLN        -0.3680
     34 CB        -16.6820  -33.1930   -4.6860 C.3       1 GLN         0.0059
     35 CG        -17.1990  -32.1820   -3.6580 C.3       1 GLN         0.0413
     36 CD        -17.1090  -32.6620   -2.2000 C.2       1 GLN         0.1737
     37 OE1       -17.4610  -33.8020   -1.8580 O.2       1 GLN        -0.3973
     38 NE2       -16.6700  -31.7630   -1.3250 N.am      1 GLN        -0.3009
     39 O1        -19.5408  -33.3007   -4.2267 O.3       1 GLN        -0.2910
     40 H1        -10.2051  -29.5430   -7.7062 H         1 ALA         0.2015
     41 H2        -11.6225  -30.0908   -8.3389 H         1 ALA         0.2015
     42 H3        -11.4572  -29.9275   -6.7093 H         1 ALA         0.2015
     43 H4        -11.2561  -27.5483   -6.8803 H         1 ALA         0.1095
     44 H5        -11.6924  -26.4790   -9.0654 H         1 ALA         0.0310
     45 H6        -11.7453  -28.0986   -9.8403 H         1 ALA         0.0310
     46 H7        -10.2185  -27.5050   -9.1033 H         1 ALA         0.0310
     47 H8        -13.1405  -26.0618   -7.4376 H         1 ARG         0.1884
     48 H9        -15.4464  -26.8977   -6.1598 H         1 ARG         0.0800
     49 H10       -15.1243  -24.7850   -8.3752 H         1 ARG         0.0313
     50 H11       -14.7121  -24.5410   -6.6440 H         1 ARG         0.0313
     51 H12       -17.0690  -24.7546   -6.0478 H         1 ARG         0.0301
     52 H13       -17.4863  -25.0138   -7.7756 H         1 ARG         0.0301
     53 H14       -17.8552  -22.6716   -7.1202 H         1 ARG         0.0689
     54 H15       -16.5407  -22.8039   -8.3373 H         1 ARG         0.0689
     55 H16       -14.9251  -22.2359   -6.6596 H         1 ARG         0.2642
     56 H17       -17.9003  -21.4587   -3.9356 H         1 ARG         0.2615
     57 H18       -18.2820  -22.3824   -5.4133 H         1 ARG         0.2615
     58 H19       -14.4466  -21.0314   -4.7437 H         1 ARG         0.2615
     59 H20       -15.7411  -20.7144   -3.5577 H         1 ARG         0.2615
     60 H21       -14.5603  -27.3384   -9.4929 H         1 THR         0.1884
     61 H22       -17.3103  -27.6434  -10.4446 H         1 THR         0.0826
     62 H23       -16.1303  -28.2477  -12.5997 H         1 THR         0.0639
     63 H24       -14.2700  -29.1426  -11.5394 H         1 THR         0.2101
     64 H25       -15.1447  -26.0045  -12.9012 H         1 THR         0.0257
     65 H26       -15.1255  -25.7666  -11.1209 H         1 THR         0.0257
     66 H27       -16.6905  -25.9067  -11.9915 H         1 THR         0.0257
     67 H28       -15.4077  -29.6439   -8.6613 H         1 MLY         0.1883
     68 H29       -16.9614  -32.0390   -9.5696 H         1 MLY         0.0800
     69 H30       -15.1212  -33.3716   -8.4065 H         1 MLY         0.0310
     70 H31       -14.1986  -31.8364   -8.2697 H         1 MLY         0.0310
     71 H32       -13.4655  -33.1575  -10.1819 H         1 MLY         0.0232
     72 H33       -14.2142  -31.6102  -10.7034 H         1 MLY         0.0232
     73 H34       -15.1368  -33.1454  -10.8401 H         1 MLY         0.0232
     74 H35       -17.5622  -33.4907   -7.9544 H         1 GLN         0.1885
     75 H36       -17.4443  -34.6219   -6.0201 H         1 GLN         0.0818
     76 H37       -15.7695  -32.7762   -5.1372 H         1 GLN         0.0338
     77 H38       -16.4349  -34.1209   -4.1494 H         1 GLN         0.0338
     78 H39       -18.2535  -31.9673   -3.8858 H         1 GLN         0.0505
     79 H40       -16.6078  -31.2594   -3.7543 H         1 GLN         0.0505
     80 H41       -16.5858  -32.0056   -0.3585 H         1 GLN         0.1814
     81 H42       -16.4239  -30.8440   -1.6331 H         1 GLN         0.1814
     82 H43       -20.0228  -34.0468   -3.8897 H         1 GLN         0.2540
@<TRIPOS>BOND
     1    2    1 1  
     2    2    5 1  
     3    3    2 1  
     4    3    4 2  
     5    7    6 1  
     6    7   10 1  
     7    8    7 1  
     8    8    9 2  
     9   10   11 1  
    10   11   12 1  
    11   12   13 1  
    12   13   14 ar 
    13   14   16 ar 
    14   14   15 ar 
    15    6    3 am 
    16   18   17 1  
    17   18   21 1  
    18   19   18 1  
    19   19   20 2  
    20   21   23 1  
    21   21   22 1  
    22   17    8 am 
    23   30   31 1  
    24   31   34 1  
    25   31   32 1  
    26   32   33 2  
    27   34   35 1  
    28   35   36 1  
    29   36   38 am 
    30   36   37 2  
    31   25   24 1  
    32   25   26 1  
    33   28   25 1  
    34   26   27 1  
    35   28   29 2  
    36   24   19 am 
    37   28   30 am 
    38   32   39 1  
    39    1   40 1  
    40    1   41 1  
    41    1   42 1  
    42    2   43 1  
    43    5   44 1  
    44    5   45 1  
    45    5   46 1  
    46    6   47 1  
    47    7   48 1  
    48   10   49 1  
    49   10   50 1  
    50   11   51 1  
    51   11   52 1  
    52   12   53 1  
    53   12   54 1  
    54   13   55 1  
    55   15   56 1  
    56   15   57 1  
    57   16   58 1  
    58   16   59 1  
    59   17   60 1  
    60   18   61 1  
    61   21   62 1  
    62   22   63 1  
    63   23   64 1  
    64   23   65 1  
    65   23   66 1  
    66   24   67 1  
    67   25   68 1  
    68   26   69 1  
    69   26   70 1  
    70   27   71 1  
    71   27   72 1  
    72   27   73 1  
    73   30   74 1  
    74   31   75 1  
    75   34   76 1  
    76   34   77 1  
    77   35   78 1  
    78   35   79 1  
    79   38   80 1  
    80   38   81 1  
    81   39   82 1  
@<TRIPOS>SUBSTRUCTURE
     1 ALA         1

