### 
### Created by X-TOOL on Mon Sep 10 21:12:55 2018
### 

@<TRIPOS>MOLECULE
2h15_ligand
   44    46     1     0     0
SMALL
GAST_HUCK


@<TRIPOS>ATOM
      1 C11        -5.9730    6.2820   13.1580 C.3       1 B19        -0.0107
      2 C10        -4.7800    5.4260   12.7050 C.3       1 B19         0.1686
      3 C12        -3.6980    6.2740   12.0100 C.3       1 B19        -0.0107
      4 O3         -4.2050    4.7510   13.8330 O.3       1 B19        -0.3137
      5 O4         -5.2540    4.4350   11.8230 O.3       1 B19        -0.3378
      6 C3         -5.3600    3.1990   12.5460 C.3       1 B19         0.1458
      7 C4         -5.0790    2.1240   11.4660 C.3       1 B19         0.1215
      8 O5         -4.9300    0.7730   11.9800 O.3       1 B19        -0.3406
      9 C7         -4.1180    0.1070   11.0170 C.3       1 B19         0.1656
     10 C8         -4.9860   -0.6930   10.0430 C.3       1 B19        -0.0108
     11 C9         -3.1520   -0.8040   11.7480 C.3       1 B19        -0.0108
     12 O6         -3.3680    1.1240   10.2760 O.3       1 B19        -0.3410
     13 C5         -3.7350    2.3980   10.8030 C.3       1 B19         0.1140
     14 C6         -2.6520    2.8460   11.8040 C.3       1 B19         0.0799
     15 O2         -3.0240    2.8230   13.2180 O.3       1 B19        -0.3423
     16 C2         -4.3090    3.3770   13.6260 C.3       1 B19         0.2189
     17 C1         -4.8130    2.9000   14.9690 C.3       1 B19         0.0846
     18 N2         -4.5530    1.4760   15.0850 N.am      1 B19        -0.2304
     19 S1         -5.3700    0.8250   16.3620 S.o2      1 B19         0.1135
     20 O7         -4.7400    1.1670   17.6670 O.2       1 B19        -0.1358
     21 O8         -6.7990    1.2430   16.4470 O.2       1 B19        -0.1358
     22 N1         -5.1920   -0.7630   16.1050 N.am      1 B19        -0.2489
     23 H1         -5.6225    7.0631   13.8487 H         1 B19         0.0281
     24 H2         -6.7090    5.6440   13.6691 H         1 B19         0.0281
     25 H3         -6.4414    6.7518   12.2806 H         1 B19         0.0281
     26 H4         -2.8648    5.6249   11.7026 H         1 B19         0.0281
     27 H5         -3.3281    7.0398   12.7076 H         1 B19         0.0281
     28 H6         -4.1284    6.7627   11.1235 H         1 B19         0.0281
     29 H7         -6.3515    3.0386   12.9945 H         1 B19         0.0679
     30 H8         -5.8919    2.1523   10.7255 H         1 B19         0.0652
     31 H9         -5.5501   -1.4574   10.5975 H         1 B19         0.0281
     32 H10        -4.3436   -1.1817    9.2957 H         1 B19         0.0281
     33 H11        -5.6882   -0.0151    9.5358 H         1 B19         0.0281
     34 H12        -2.5168   -1.3265   11.0176 H         1 B19         0.0281
     35 H13        -3.7175   -1.5418   12.3361 H         1 B19         0.0281
     36 H14        -2.5207   -0.2049   12.4207 H         1 B19         0.0281
     37 H15        -3.8391    3.1513   10.0082 H         1 B19         0.0647
     38 H16        -2.3674    3.8776   11.5496 H         1 B19         0.0588
     39 H17        -1.7832    2.1837   11.6758 H         1 B19         0.0588
     40 H18        -5.8944    3.0862   15.0460 H         1 B19         0.0530
     41 H19        -4.2900    3.4384   15.7731 H         1 B19         0.0530
     42 H20        -3.9570    0.9580   14.4714 H         1 B19         0.1687
     43 H21        -5.5961   -1.4208   16.7407 H         1 B19         0.1648
     44 H22        -4.6780   -1.0864   15.3105 H         1 B19         0.1648
@<TRIPOS>BOND
     1    1    2 1  
     2    2    3 1  
     3    2    4 1  
     4    2    5 1  
     5    4   16 1  
     6    5    6 1  
     7    6    7 1  
     8    6   16 1  
     9    7    8 1  
    10    7   13 1  
    11    8    9 1  
    12    9   10 1  
    13    9   11 1  
    14    9   12 1  
    15   12   13 1  
    16   13   14 1  
    17   14   15 1  
    18   15   16 1  
    19   16   17 1  
    20   17   18 1  
    21   18   19 am 
    22   19   20 2  
    23   19   21 2  
    24   19   22 am 
    25    1   23 1  
    26    1   24 1  
    27    1   25 1  
    28    3   26 1  
    29    3   27 1  
    30    3   28 1  
    31    6   29 1  
    32    7   30 1  
    33   10   31 1  
    34   10   32 1  
    35   10   33 1  
    36   11   34 1  
    37   11   35 1  
    38   11   36 1  
    39   13   37 1  
    40   14   38 1  
    41   14   39 1  
    42   17   40 1  
    43   17   41 1  
    44   18   42 1  
    45   22   43 1  
    46   22   44 1  
@<TRIPOS>SUBSTRUCTURE
     1 B19         1

