### 
### Created by X-TOOL on Mon Sep 10 21:12:55 2018
### 

@<TRIPOS>MOLECULE
2h21_ligand
   50    52     1     0     0
SMALL
GAST_HUCK


@<TRIPOS>ATOM
      1 N          71.0000  131.5610   50.0280 N.4       1 SAM         0.2328
      2 CA         69.6630  131.1270   50.4510 C.3       1 SAM         0.0327
      3 C          68.7050  131.0350   49.2120 C.2       1 SAM         0.0846
      4 O          67.4900  131.3030   49.3420 O.co2     1 SAM        -0.5643
      5 OXT        69.1600  130.6940   48.0980 O.co2     1 SAM        -0.5643
      6 CB         69.1150  132.0950   51.5350 C.3       1 SAM         0.0473
      7 CG         69.6760  131.9000   52.9120 C.3       1 SAM         0.1163
      8 SD         68.8410  131.0100   53.8940 S.3       1 SAM        -0.0103
      9 CE         68.5900  132.0440   55.3260 C.3       1 SAM         0.0995
     10 C5         70.1530  129.9610   54.5510 C.3       1 SAM         0.1381
     11 C4         70.6800  128.8680   53.6270 C.3       1 SAM         0.1350
     12 O4         71.4840  129.4410   52.5590 O.3       1 SAM        -0.3344
     13 C3         71.6030  127.8680   54.2940 C.3       1 SAM         0.1168
     14 O3         70.9070  126.8090   54.9350 O.3       1 SAM        -0.3863
     15 C2         72.4740  127.4060   53.1660 C.3       1 SAM         0.1386
     16 O2         71.9420  126.3750   52.3590 O.3       1 SAM        -0.3836
     17 C1         72.7080  128.7410   52.4600 C.3       1 SAM         0.2011
     18 N9         73.8190  129.5430   53.0540 N.pl3     1 SAM        -0.1919
     19 C8         73.7850  130.7130   53.8080 C.2       1 SAM         0.1123
     20 N7         74.9620  131.1550   54.1850 N.2       1 SAM        -0.2958
     21 C5         75.8450  130.2200   53.6450 C.ar      1 SAM         0.1045
     22 C6         77.2680  130.0880   53.6820 C.ar      1 SAM         0.1298
     23 N6         78.0670  130.9540   54.3050 N.pl3     1 SAM        -0.3152
     24 N1         77.8400  129.0220   53.0360 N.ar      1 SAM        -0.2698
     25 C2         77.0420  128.1340   52.3920 C.ar      1 SAM         0.0533
     26 N3         75.6930  128.1480   52.2880 N.ar      1 SAM        -0.2714
     27 C4         75.1530  129.2200   52.9440 C.ar      1 SAM         0.1613
     28 H1         71.6054  131.6161   50.8321 H         1 SAM         0.2010
     29 H2         70.9367  132.4677   49.5923 H         1 SAM         0.2010
     30 H3         71.3760  130.8971   49.3693 H         1 SAM         0.2010
     31 H4         69.7451  130.1241   50.8954 H         1 SAM         0.1026
     32 H5         68.0246  131.9608   51.5903 H         1 SAM         0.0385
     33 H6         69.3423  133.1236   51.2182 H         1 SAM         0.0385
     34 H7         69.7826  132.8935   53.3720 H         1 SAM         0.0843
     35 H8         70.6681  131.4371   52.8050 H         1 SAM         0.0843
     36 H9         68.0051  131.4936   56.0777 H         1 SAM         0.0803
     37 H10        68.0452  132.9529   55.0310 H         1 SAM         0.0803
     38 H11        69.5649  132.3229   55.7523 H         1 SAM         0.0803
     39 H12        69.7677  129.4736   55.4587 H         1 SAM         0.0867
     40 H13        70.9997  130.6115   54.8153 H         1 SAM         0.0867
     41 H14        69.8155  128.3358   53.2034 H         1 SAM         0.0671
     42 H15        72.2160  128.3757   55.0532 H         1 SAM         0.0649
     43 H16        70.3877  126.3387   54.2934 H         1 SAM         0.2100
     44 H17        73.4263  127.0289   53.5672 H         1 SAM         0.0676
     45 H18        71.1303  126.6706   51.9639 H         1 SAM         0.2101
     46 H19        72.9461  128.5540   51.4025 H         1 SAM         0.0996
     47 H20        72.8563  131.2207   54.0644 H         1 SAM         0.1349
     48 H21        79.0868  130.8096   54.2996 H         1 SAM         0.1820
     49 H22        77.6646  131.7676   54.7918 H         1 SAM         0.1820
     50 H23        77.5477  127.3112   51.8997 H         1 SAM         0.0996
@<TRIPOS>BOND
     1    1    2 1  
     2    2    3 1  
     3    2    6 1  
     4    3    4 ar 
     5    3    5 ar 
     6    6    7 1  
     7    7    8 1  
     8    8    9 1  
     9    8   10 1  
    10   10   11 1  
    11   11   12 1  
    12   11   13 1  
    13   12   17 1  
    14   13   14 1  
    15   13   15 1  
    16   15   16 1  
    17   15   17 1  
    18   17   18 1  
    19   18   19 1  
    20   18   27 1  
    21   19   20 2  
    22   20   21 1  
    23   21   22 ar 
    24   21   27 ar 
    25   22   23 1  
    26   22   24 ar 
    27   24   25 ar 
    28   25   26 ar 
    29   26   27 ar 
    30    1   28 1  
    31    1   29 1  
    32    1   30 1  
    33    2   31 1  
    34    6   32 1  
    35    6   33 1  
    36    7   34 1  
    37    7   35 1  
    38    9   36 1  
    39    9   37 1  
    40    9   38 1  
    41   10   39 1  
    42   10   40 1  
    43   11   41 1  
    44   13   42 1  
    45   14   43 1  
    46   15   44 1  
    47   16   45 1  
    48   17   46 1  
    49   19   47 1  
    50   23   48 1  
    51   23   49 1  
    52   25   50 1  
@<TRIPOS>SUBSTRUCTURE
     1 SAM         1

