### 
### Created by X-TOOL on Mon Sep 10 21:12:55 2018
### 

@<TRIPOS>MOLECULE
2h23_ligand
   46    48     1     0     0
SMALL
GAST_HUCK


@<TRIPOS>ATOM
      1 N          71.0850  132.9670   50.9430 N.4       1 SAH         0.2327
      2 CA         69.7460  132.6790   51.4690 C.3       1 SAH         0.0291
      3 CB         69.2720  133.8340   52.4020 C.3       1 SAH         0.0114
      4 CG         69.7350  133.7380   53.8290 C.3       1 SAH         0.0005
      5 SD         68.7790  132.6310   54.9320 S.3       1 SAH        -0.1578
      6 C          68.7440  132.4420   50.2910 C.2       1 SAH         0.0844
      7 O          67.5240  132.3440   50.5380 O.co2     1 SAH        -0.5643
      8 OXT        69.1720  132.3460   49.1120 O.co2     1 SAH        -0.5643
      9 C5         70.1360  131.6860   55.6100 C.3       1 SAH         0.0226
     10 C4         70.5640  130.4930   54.7690 C.3       1 SAH         0.0995
     11 O4         71.4030  130.9560   53.6680 O.3       1 SAH        -0.3383
     12 C3         71.4380  129.4750   55.5010 C.3       1 SAH         0.1132
     13 O3         70.7030  128.4750   56.1960 O.3       1 SAH        -0.3864
     14 C2         72.3180  128.9210   54.4000 C.3       1 SAH         0.1385
     15 O2         71.8060  127.8480   53.6290 O.3       1 SAH        -0.3836
     16 C1         72.6100  130.2100   53.6330 C.3       1 SAH         0.2009
     17 N9         73.7440  130.9960   54.2060 N.pl3     1 SAH        -0.1919
     18 C8         73.7430  132.1720   54.9520 C.2       1 SAH         0.1123
     19 N7         74.9280  132.5940   55.3050 N.2       1 SAH        -0.2958
     20 C5         75.7880  131.6390   54.7610 C.ar      1 SAH         0.1045
     21 C6         77.2140  131.4860   54.7720 C.ar      1 SAH         0.1298
     22 N6         78.0340  132.3370   55.3850 N.pl3     1 SAH        -0.3152
     23 N1         77.7620  130.4060   54.1240 N.ar      1 SAH        -0.2698
     24 C2         76.9440  129.5240   53.4930 C.ar      1 SAH         0.0533
     25 N3         75.5870  129.5580   53.4110 N.ar      1 SAH        -0.2714
     26 C4         75.0680  130.6490   54.0730 C.ar      1 SAH         0.1613
     27 H1         71.7218  133.1179   51.7096 H         1 SAH         0.2010
     28 H2         71.0494  133.7942   50.3680 H         1 SAH         0.2010
     29 H3         71.4038  132.1868   50.3900 H         1 SAH         0.2010
     30 H4         69.7979  131.7564   52.0657 H         1 SAH         0.1024
     31 H5         68.1720  133.8417   52.4014 H         1 SAH         0.0347
     32 H6         69.6456  134.7815   51.9866 H         1 SAH         0.0347
     33 H7         69.6992  134.7495   54.2597 H         1 SAH         0.0379
     34 H8         70.7752  133.3806   53.8185 H         1 SAH         0.0379
     35 H9         69.8341  131.3157   56.6008 H         1 SAH         0.0402
     36 H10        71.0008  132.3572   55.7172 H         1 SAH         0.0402
     37 H11        69.6617  129.9941   54.3857 H         1 SAH         0.0632
     38 H12        72.0625  129.9967   56.2412 H         1 SAH         0.0647
     39 H13        70.1660  127.9920   55.5789 H         1 SAH         0.2100
     40 H14        73.2513  128.5480   54.8470 H         1 SAH         0.0676
     41 H15        71.0062  128.1236   53.1967 H         1 SAH         0.2101
     42 H16        72.8598  129.9609   52.5911 H         1 SAH         0.0996
     43 H17        72.8277  132.6978   55.2197 H         1 SAH         0.1349
     44 H18        79.0516  132.1792   55.3614 H         1 SAH         0.1820
     45 H19        77.6509  133.1532   55.8829 H         1 SAH         0.1820
     46 H20        77.4313  128.6935   52.9951 H         1 SAH         0.0996
@<TRIPOS>BOND
     1    1    2 1  
     2    2    3 1  
     3    2    6 1  
     4    3    4 1  
     5    4    5 1  
     6    5    9 1  
     7    6    7 ar 
     8    6    8 ar 
     9    9   10 1  
    10   10   11 1  
    11   10   12 1  
    12   11   16 1  
    13   12   13 1  
    14   12   14 1  
    15   14   15 1  
    16   14   16 1  
    17   16   17 1  
    18   17   18 1  
    19   17   26 1  
    20   18   19 2  
    21   19   20 1  
    22   20   21 ar 
    23   20   26 ar 
    24   21   22 1  
    25   21   23 ar 
    26   23   24 ar 
    27   24   25 ar 
    28   25   26 ar 
    29    1   27 1  
    30    1   28 1  
    31    1   29 1  
    32    2   30 1  
    33    3   31 1  
    34    3   32 1  
    35    4   33 1  
    36    4   34 1  
    37    9   35 1  
    38    9   36 1  
    39   10   37 1  
    40   12   38 1  
    41   13   39 1  
    42   14   40 1  
    43   15   41 1  
    44   16   42 1  
    45   18   43 1  
    46   22   44 1  
    47   22   45 1  
    48   24   46 1  
@<TRIPOS>SUBSTRUCTURE
     1 SAH         1

