### 
### Created by X-TOOL on Mon Sep 10 21:12:55 2018
### 

@<TRIPOS>MOLECULE
2h2e_ligand
   51    53     1     0     0
SMALL
GAST_HUCK


@<TRIPOS>ATOM
      1 N          70.9100  136.2930   50.9190 N.4       1 SA8         0.2328
      2 CA         70.4820  134.9160   51.0490 C.3       1 SA8         0.0332
      3 C          69.7970  134.4490   49.7500 C.2       1 SA8         0.0846
      4 O          68.6980  134.9550   49.4230 O.co2     1 SA8        -0.5643
      5 OXT        70.3700  133.5830   49.0760 O.co2     1 SA8        -0.5643
      6 CB         69.5080  134.7700   52.2250 C.3       1 SA8         0.0425
      7 CG         70.0210  135.1870   53.6130 C.3       1 SA8        -0.0252
      8 ND         69.6300  134.2240   54.7820 N.4       1 SA8         0.2352
      9 CE         70.1220  134.7460   56.0670 C.3       1 SA8        -0.0430
     10 C5         70.2120  132.7730   54.6240 C.3       1 SA8        -0.0026
     11 C4         71.2950  132.4970   53.6080 C.3       1 SA8         0.1300
     12 O4         72.4840  133.3220   53.7410 O.3       1 SA8        -0.3338
     13 C3         71.7310  131.0400   53.6240 C.3       1 SA8         0.1174
     14 O3         71.2460  130.3890   52.4380 O.3       1 SA8        -0.3863
     15 C2         73.2450  131.0960   53.7260 C.3       1 SA8         0.1386
     16 O2         73.8520  130.0990   52.8650 O.3       1 SA8        -0.3836
     17 C1         73.6020  132.5270   53.3230 C.3       1 SA8         0.2011
     18 N9         74.8750  133.0300   53.9640 N.pl3     1 SA8        -0.1919
     19 C8         75.0470  133.9780   54.9400 C.2       1 SA8         0.1123
     20 N7         76.2650  134.2290   55.3160 N.2       1 SA8        -0.2958
     21 C5         77.0280  133.3600   54.5110 C.ar      1 SA8         0.1045
     22 C6         78.4380  133.0900   54.3860 C.ar      1 SA8         0.1298
     23 N6         79.3640  133.7220   55.1200 N.pl3     1 SA8        -0.3152
     24 N1         78.8540  132.1410   53.4700 N.ar      1 SA8        -0.2698
     25 C2         77.9300  131.4920   52.7180 C.ar      1 SA8         0.0533
     26 N3         76.5850  131.6480   52.7350 N.ar      1 SA8        -0.2714
     27 C4         76.1920  132.6130   53.6740 C.ar      1 SA8         0.1613
     28 H1         71.3563  136.5882   51.7733 H         1 SA8         0.2010
     29 H2         70.1093  136.8782   50.7387 H         1 SA8         0.2010
     30 H3         71.5624  136.3714   50.1546 H         1 SA8         0.2010
     31 H4         71.3640  134.2857   51.2352 H         1 SA8         0.1026
     32 H5         69.2154  133.7113   52.2839 H         1 SA8         0.0391
     33 H6         68.6228  135.3832   52.0006 H         1 SA8         0.0391
     34 H7         69.6141  136.1831   53.8416 H         1 SA8         0.0817
     35 H8         71.1188  135.2407   53.5686 H         1 SA8         0.0817
     36 H9         68.6242  134.1651   54.8112 H         1 SA8         0.2031
     37 H10        69.8380  134.0566   56.8757 H         1 SA8         0.0778
     38 H11        69.6781  135.7347   56.2553 H         1 SA8         0.0778
     39 H12        71.2176  134.8368   56.0306 H         1 SA8         0.0778
     40 H13        69.3655  132.1178   54.3707 H         1 SA8         0.0841
     41 H14        70.6174  132.4855   55.6053 H         1 SA8         0.0841
     42 H15        70.8590  132.7085   52.6205 H         1 SA8         0.0678
     43 H16        71.3208  130.5223   54.5036 H         1 SA8         0.0649
     44 H17        71.5167  129.4784   52.4447 H         1 SA8         0.2100
     45 H18        73.5654  130.9086   54.7615 H         1 SA8         0.0676
     46 H19        73.5572  129.2345   53.1265 H         1 SA8         0.2101
     47 H20        73.7173  132.5823   52.2305 H         1 SA8         0.0996
     48 H21        74.1983  134.4985   55.3813 H         1 SA8         0.1349
     49 H22        80.3613  133.4962   54.9964 H         1 SA8         0.1820
     50 H23        79.0784  134.4336   55.8077 H         1 SA8         0.1820
     51 H24        78.3154  130.7593   52.0182 H         1 SA8         0.0996
@<TRIPOS>BOND
     1    1    2 1  
     2    2    3 1  
     3    2    6 1  
     4    3    4 ar 
     5    3    5 ar 
     6    6    7 1  
     7    7    8 1  
     8    8    9 1  
     9    8   10 1  
    10   10   11 1  
    11   11   12 1  
    12   11   13 1  
    13   12   17 1  
    14   13   14 1  
    15   13   15 1  
    16   15   16 1  
    17   15   17 1  
    18   17   18 1  
    19   18   19 1  
    20   18   27 1  
    21   19   20 2  
    22   20   21 1  
    23   21   22 ar 
    24   21   27 ar 
    25   22   23 1  
    26   22   24 ar 
    27   24   25 ar 
    28   25   26 ar 
    29   26   27 ar 
    30    1   28 1  
    31    1   29 1  
    32    1   30 1  
    33    2   31 1  
    34    6   32 1  
    35    6   33 1  
    36    7   34 1  
    37    7   35 1  
    38    8   36 1  
    39    9   37 1  
    40    9   38 1  
    41    9   39 1  
    42   10   40 1  
    43   10   41 1  
    44   11   42 1  
    45   13   43 1  
    46   14   44 1  
    47   15   45 1  
    48   16   46 1  
    49   17   47 1  
    50   19   48 1  
    51   23   49 1  
    52   23   50 1  
    53   25   51 1  
@<TRIPOS>SUBSTRUCTURE
     1 SA8         1

