### 
### Created by X-TOOL on Mon Sep 10 21:12:55 2018
### 

@<TRIPOS>MOLECULE
2h2j_ligand
   51    53     1     0     0
SMALL
GAST_HUCK


@<TRIPOS>ATOM
      1 N          71.0100  132.8580   50.4890 N.4       1 SFG         0.2327
      2 CA         70.0900  131.7690   50.7610 C.3       1 SFG         0.0285
      3 C          69.2700  131.3780   49.5140 C.2       1 SFG         0.0844
      4 O          68.1230  130.9130   49.6630 O.co2     1 SFG        -0.5643
      5 OXT        69.7780  131.5600   48.3990 O.co2     1 SFG        -0.5643
      6 CB         69.1190  132.1230   51.9170 C.3       1 SFG         0.0075
      7 CG         69.6810  132.6070   53.2630 C.3       1 SFG        -0.0030
      8 CD         69.2630  131.8320   54.5420 C.3       1 SFG        -0.0216
      9 NE         69.8300  132.5760   55.6890 N.4       1 SFG         0.2208
     10 C5         69.8860  130.4090   54.7160 C.3       1 SFG         0.0191
     11 C4         70.6990  129.7160   53.6370 C.3       1 SFG         0.0957
     12 O4         71.8220  130.4710   53.1520 O.3       1 SFG        -0.3389
     13 C3         71.2070  128.3410   54.0850 C.3       1 SFG         0.1126
     14 O3         70.5260  127.2840   53.3860 O.3       1 SFG        -0.3865
     15 C2         72.6540  128.3140   53.7730 C.3       1 SFG         0.1384
     16 O2         72.8760  127.1990   52.8990 O.3       1 SFG        -0.3836
     17 C1         72.9830  129.6280   53.0720 C.3       1 SFG         0.2009
     18 N9         74.1600  130.3030   53.6930 N.pl3     1 SFG        -0.1919
     19 C8         74.2130  131.3930   54.5270 C.2       1 SFG         0.1123
     20 N7         75.3850  131.7820   54.9360 N.2       1 SFG        -0.2958
     21 C5         76.2370  130.8480   54.3040 C.ar      1 SFG         0.1045
     22 C6         77.6570  130.6540   54.3040 C.ar      1 SFG         0.1298
     23 N6         78.4880  131.4400   54.9820 N.pl3     1 SFG        -0.3152
     24 N1         78.1690  129.6150   53.5620 N.ar      1 SFG        -0.2698
     25 C2         77.3250  128.8120   52.8710 C.ar      1 SFG         0.0533
     26 N3         75.9780  128.8880   52.7930 N.ar      1 SFG        -0.2714
     27 C4         75.4900  129.9340   53.5450 C.ar      1 SFG         0.1613
     28 H1         71.5238  133.0810   51.3270 H         1 SFG         0.2010
     29 H2         70.4918  133.6682   50.1871 H         1 SFG         0.2010
     30 H3         71.6534  132.5812   49.7641 H         1 SFG         0.2010
     31 H4         70.6860  130.8964   51.0664 H         1 SFG         0.1024
     32 H5         68.5277  131.2190   52.1249 H         1 SFG         0.0340
     33 H6         68.4557  132.9174   51.5443 H         1 SFG         0.0340
     34 H7         69.3641  133.6521   53.3943 H         1 SFG         0.0323
     35 H8         70.7780  132.5621   53.1959 H         1 SFG         0.0323
     36 H9         68.1657  131.7722   54.5895 H         1 SFG         0.0851
     37 H10        69.5839  132.1085   56.5474 H         1 SFG         0.1997
     38 H11        69.4586  133.5130   55.6984 H         1 SFG         0.1997
     39 H12        70.8336  132.6131   55.6024 H         1 SFG         0.1997
     40 H13        69.0442  129.7365   54.9376 H         1 SFG         0.0346
     41 H14        70.5447  130.4738   55.5946 H         1 SFG         0.0346
     42 H15        70.0189  129.5609   52.7865 H         1 SFG         0.0626
     43 H16        71.0508  128.2172   55.1668 H         1 SFG         0.0647
     44 H17        70.6768  127.3747   52.4525 H         1 SFG         0.2100
     45 H18        73.2550  128.2078   54.6882 H         1 SFG         0.0676
     46 H19        72.6121  126.3980   53.3361 H         1 SFG         0.2101
     47 H20        73.2131  129.4244   52.0158 H         1 SFG         0.0996
     48 H21        73.3068  131.9127   54.8347 H         1 SFG         0.1349
     49 H22        79.5024  131.2635   54.9534 H         1 SFG         0.1820
     50 H23        78.1174  132.2254   55.5358 H         1 SFG         0.1820
     51 H24        77.7879  128.0079   52.3105 H         1 SFG         0.0996
@<TRIPOS>BOND
     1    1    2 1  
     2    2    3 1  
     3    2    6 1  
     4    3    4 ar 
     5    3    5 ar 
     6    6    7 1  
     7    7    8 1  
     8    8    9 1  
     9    8   10 1  
    10   10   11 1  
    11   11   12 1  
    12   11   13 1  
    13   12   17 1  
    14   13   14 1  
    15   13   15 1  
    16   15   16 1  
    17   15   17 1  
    18   17   18 1  
    19   18   19 1  
    20   18   27 1  
    21   19   20 2  
    22   20   21 1  
    23   21   22 ar 
    24   21   27 ar 
    25   22   23 1  
    26   22   24 ar 
    27   24   25 ar 
    28   25   26 ar 
    29   26   27 ar 
    30    1   28 1  
    31    1   29 1  
    32    1   30 1  
    33    2   31 1  
    34    6   32 1  
    35    6   33 1  
    36    7   34 1  
    37    7   35 1  
    38    8   36 1  
    39    9   37 1  
    40    9   38 1  
    41    9   39 1  
    42   10   40 1  
    43   10   41 1  
    44   11   42 1  
    45   13   43 1  
    46   14   44 1  
    47   15   45 1  
    48   16   46 1  
    49   17   47 1  
    50   19   48 1  
    51   23   49 1  
    52   23   50 1  
    53   25   51 1  
@<TRIPOS>SUBSTRUCTURE
     1 SFG         1

