### 
### Created by X-TOOL on Mon Sep 10 21:12:54 2018
### 

@<TRIPOS>MOLECULE
2h42_ligand
   64    67     1     0     0
SMALL
GAST_HUCK


@<TRIPOS>ATOM
      1 C34        26.4280  119.9220   10.0560 C.3       1 VIA        -0.0637
      2 C33        27.3610  119.8470   11.2650 C.3       1 VIA        -0.0468
      3 C32        27.7990  121.2430   11.7120 C.3       1 VIA        -0.0131
      4 C30        28.8090  121.1320   12.8550 C.2       1 VIA         0.0335
      5 N29        28.5810  121.3610   14.1460 N.2       1 VIA        -0.2168
      6 N28        29.5930  121.1190   14.8040 N.pl3     1 VIA        -0.2065
      7 C31        29.6850  121.3040   16.2700 C.3       1 VIA         0.0554
      8 C24        30.6020  120.7020   14.0430 C.2       1 VIA         0.1661
      9 C23        31.9130  120.3100   14.2860 C.2       1 VIA         0.2517
     10 O27        32.3620  120.2670   15.4300 O.2       1 VIA        -0.3939
     11 N22        32.7120  119.9430   13.1980 N.am      1 VIA        -0.2065
     12 C21        32.1760  119.9820   11.9050 C.2       1 VIA         0.1466
     13 N26        30.9030  120.3550   11.7060 N.2       1 VIA        -0.3177
     14 C25        30.1260  120.7070   12.7400 C.2       1 VIA         0.0457
     15 C9         32.9980  119.7020   10.8200 C.ar      1 VIA         0.0713
     16 C8         33.0670  120.5870    9.7510 C.ar      1 VIA        -0.0236
     17 C7         33.9110  120.3220    8.6770 C.ar      1 VIA         0.1035
     18 C6         34.6860  119.1670    8.6810 C.ar      1 VIA        -0.0387
     19 C5         34.6140  118.2820    9.7510 C.ar      1 VIA        -0.0236
     20 C4         33.7660  118.5440   10.8230 C.ar      1 VIA         0.1142
     21 O3         33.6310  117.6620   11.8510 O.3       1 VIA        -0.3111
     22 C2         34.8440  116.9250   12.0640 C.3       1 VIA         0.0701
     23 C1         34.5950  115.8590   13.1330 C.3       1 VIA        -0.0367
     24 S10        34.0250  121.4580    7.3510 S.o2      1 VIA         0.0673
     25 O11        35.1510  121.0430    6.4510 O.2       1 VIA        -0.1514
     26 O12        34.3100  122.8240    7.9000 O.2       1 VIA        -0.1514
     27 N14        32.6500  121.5170    6.4740 N.am      1 VIA        -0.2250
     28 C19        32.3190  120.2480    5.8060 C.3       1 VIA         0.0697
     29 C18        31.1870  119.4770    6.4880 C.3       1 VIA        -0.0146
     30 N17        30.0390  120.3680    6.6960 N.4       1 VIA         0.2354
     31 C20        28.9040  119.5930    7.2170 C.3       1 VIA        -0.0430
     32 C16        30.4670  121.3490    7.7030 C.3       1 VIA        -0.0146
     33 C15        31.5490  122.2550    7.1130 C.3       1 VIA         0.0697
     34 H1         26.1308  118.9055    9.7586 H         1 VIA         0.0231
     35 H2         26.9497  120.4108    9.2200 H         1 VIA         0.0231
     36 H3         25.5322  120.5035   10.3196 H         1 VIA         0.0231
     37 H4         28.2517  119.2606   10.9953 H         1 VIA         0.0282
     38 H5         26.8343  119.3532   12.0949 H         1 VIA         0.0282
     39 H6         26.9201  121.8081   12.0559 H         1 VIA         0.0412
     40 H7         28.2639  121.7680   10.8645 H         1 VIA         0.0412
     41 H8         30.6902  121.0180   16.6133 H         1 VIA         0.0590
     42 H9         28.9342  120.6722   16.7672 H         1 VIA         0.0590
     43 H10        29.4991  122.3592   16.5188 H         1 VIA         0.0590
     44 H11        33.6587  119.6550   13.3425 H         1 VIA         0.2457
     45 H12        32.4617  121.4863    9.7538 H         1 VIA         0.0661
     46 H13        35.3474  118.9564    7.8484 H         1 VIA         0.0650
     47 H14        35.2211  117.3839    9.7502 H         1 VIA         0.0557
     48 H15        35.6369  117.6085   12.4018 H         1 VIA         0.0616
     49 H16        35.1520  116.4415   11.1252 H         1 VIA         0.0616
     50 H17        35.5196  115.2880   13.3038 H         1 VIA         0.0256
     51 H18        33.8008  115.1778   12.7936 H         1 VIA         0.0256
     52 H19        34.2857  116.3448   14.0702 H         1 VIA         0.0256
     53 H20        33.2175  119.6135    5.7988 H         1 VIA         0.0531
     54 H21        32.0168  120.4675    4.7714 H         1 VIA         0.0531
     55 H22        31.5362  119.0973    7.4595 H         1 VIA         0.0830
     56 H23        30.8841  118.6325    5.8516 H         1 VIA         0.0830
     57 H24        29.7804  120.8263    5.8363 H         1 VIA         0.2032
     58 H25        28.0443  120.2613    7.3726 H         1 VIA         0.0778
     59 H26        29.1853  119.1287    8.1737 H         1 VIA         0.0778
     60 H27        28.6329  118.8090    6.4946 H         1 VIA         0.0778
     61 H28        30.8704  120.8209    8.5796 H         1 VIA         0.0830
     62 H29        29.6047  121.9601    8.0078 H         1 VIA         0.0830
     63 H30        31.0837  122.9072    6.3593 H         1 VIA         0.0531
     64 H31        31.9669  122.8708    7.9230 H         1 VIA         0.0531
@<TRIPOS>BOND
     1    1    2 1  
     2    2    3 1  
     3    3    4 1  
     4    4    5 2  
     5    4   14 1  
     6    5    6 1  
     7    6    7 1  
     8    6    8 1  
     9    8    9 1  
    10    8   14 2  
    11    9   10 2  
    12    9   11 am 
    13   11   12 1  
    14   12   13 2  
    15   12   15 1  
    16   13   14 1  
    17   15   16 ar 
    18   15   20 ar 
    19   16   17 ar 
    20   17   18 ar 
    21   17   24 1  
    22   18   19 ar 
    23   19   20 ar 
    24   20   21 1  
    25   21   22 1  
    26   22   23 1  
    27   24   25 2  
    28   24   26 2  
    29   24   27 am 
    30   27   28 1  
    31   27   33 1  
    32   28   29 1  
    33   29   30 1  
    34   30   31 1  
    35   30   32 1  
    36   32   33 1  
    37    1   34 1  
    38    1   35 1  
    39    1   36 1  
    40    2   37 1  
    41    2   38 1  
    42    3   39 1  
    43    3   40 1  
    44    7   41 1  
    45    7   42 1  
    46    7   43 1  
    47   11   44 1  
    48   16   45 1  
    49   18   46 1  
    50   19   47 1  
    51   22   48 1  
    52   22   49 1  
    53   23   50 1  
    54   23   51 1  
    55   23   52 1  
    56   28   53 1  
    57   28   54 1  
    58   29   55 1  
    59   29   56 1  
    60   30   57 1  
    61   31   58 1  
    62   31   59 1  
    63   31   60 1  
    64   32   61 1  
    65   32   62 1  
    66   33   63 1  
    67   33   64 1  
@<TRIPOS>SUBSTRUCTURE
     1 VIA         1

