### 
### Created by X-TOOL on Mon Sep 10 21:12:54 2018
### 

@<TRIPOS>MOLECULE
2h44_ligand
   67    70     1     0     0
SMALL
GAST_HUCK


@<TRIPOS>ATOM
      1 C1         76.7950   27.4320   27.3470 C.3       1 7CA         0.0596
      2 O1         76.0990   26.1740   27.4100 O.3       1 7CA        -0.3210
      3 C2         74.7220   26.3820   27.3900 C.ar      1 7CA         0.0909
      4 C3         74.1790   27.6360   27.6510 C.ar      1 7CA        -0.0330
      5 C4         72.7990   27.8050   27.6340 C.ar      1 7CA        -0.0611
      6 C5         73.8750   25.3050   27.0940 C.ar      1 7CA        -0.0330
      7 C6         72.4820   25.4900   27.0810 C.ar      1 7CA        -0.0611
      8 C7         71.9290   26.7450   27.3560 C.ar      1 7CA         0.0036
      9 C8         70.5530   26.9800   27.3920 C.2       1 7CA         0.1544
     10 O2         70.1210   28.0310   28.1860 O.3       1 7CA        -0.2621
     11 C9         69.5840   26.1290   26.7740 C.2       1 7CA         0.1652
     12 C10        68.2110   26.3780   27.0090 C.2       1 7CA         0.1439
     13 C11        67.8180   27.4340   27.8430 C.ar      1 7CA         0.0756
     14 C12        68.7870   28.2560   28.4280 C.ar      1 7CA         0.1243
     15 O3         67.3640   25.6650   26.4840 O.2       1 7CA        -0.4155
     16 C13        66.4680   27.6830   28.0950 C.ar      1 7CA         0.0862
     17 C14        66.0990   28.7530   28.9190 C.ar      1 7CA        -0.0152
     18 C15        67.0770   29.5660   29.4920 C.ar      1 7CA         0.0799
     19 C16        68.4180   29.3070   29.2530 C.ar      1 7CA         0.0186
     20 O4         65.5020   26.8810   27.5430 O.3       1 7CA        -0.3370
     21 O10        66.7230   30.5900   30.3370 O.3       1 7CA        -0.3391
     22 C17        69.4870   30.1770   29.8850 C.3       1 7CA        -0.0210
     23 C18        69.4250   31.6520   29.4850 C.2       1 7CA        -0.1030
     24 C19        70.0750   32.0990   28.3450 C.2       1 7CA        -0.0857
     25 C20        70.0060   33.5760   27.9620 C.3       1 7CA        -0.0403
     26 C21        70.8660   31.1210   27.4710 C.3       1 7CA        -0.0403
     27 O5         69.9410   25.0290   25.9890 O.3       1 7CA        -0.2920
     28 C22        70.3970   25.3770   24.6760 C.3       1 7CA         0.2057
     29 O6         69.2920   25.7940   23.8500 O.3       1 7CA        -0.3398
     30 C23        71.0630   24.1220   24.0680 C.3       1 7CA         0.1381
     31 O7         71.6820   24.4340   22.8260 O.3       1 7CA        -0.3837
     32 C24        70.0150   23.0130   23.8750 C.3       1 7CA         0.1143
     33 O8         70.5960   21.8920   23.2260 O.3       1 7CA        -0.3864
     34 C25        68.8300   23.5260   23.0600 C.3       1 7CA         0.1095
     35 O9         67.8260   22.5210   22.9920 O.3       1 7CA        -0.3866
     36 C26        68.2580   24.7890   23.7120 C.3       1 7CA         0.0876
     37 C27        67.1300   25.3500   22.8220 C.3       1 7CA        -0.0360
     38 H1         77.8800   27.2519   27.3636 H         1 7CA         0.0578
     39 H2         76.5128   28.0509   28.2115 H         1 7CA         0.0578
     40 H3         76.5243   27.9547   26.4178 H         1 7CA         0.0578
     41 H4         74.8283   28.4768   27.8665 H         1 7CA         0.0545
     42 H5         72.3856   28.7853   27.8419 H         1 7CA         0.0584
     43 H6         74.2944   24.3297   26.8752 H         1 7CA         0.0545
     44 H7         71.8307   24.6532   26.8560 H         1 7CA         0.0584
     45 H8         65.0507   28.9502   29.1122 H         1 7CA         0.0381
     46 H9         65.9147   26.2077   27.0150 H         1 7CA         0.2482
     47 H10        65.7760   30.6379   30.3953 H         1 7CA         0.2468
     48 H11        70.4701   29.7822   29.5891 H         1 7CA         0.0438
     49 H12        69.3799   30.1130   30.9779 H         1 7CA         0.0438
     50 H13        68.8663   32.3560   30.1000 H         1 7CA         0.0253
     51 H14        70.5766   33.7417   27.0363 H         1 7CA         0.0376
     52 H15        70.4352   34.1851   28.7712 H         1 7CA         0.0376
     53 H16        68.9567   33.8649   27.8026 H         1 7CA         0.0376
     54 H17        70.8020   30.1106   27.9012 H         1 7CA         0.0376
     55 H18        71.9192   31.4357   27.4293 H         1 7CA         0.0376
     56 H19        70.4448   31.1142   26.4549 H         1 7CA         0.0376
     57 H20        71.1298   26.1947   24.7418 H         1 7CA         0.0988
     58 H21        71.8349   23.7615   24.7639 H         1 7CA         0.0675
     59 H22        71.0268   24.7591   22.2197 H         1 7CA         0.2101
     60 H23        69.6517   22.6989   24.8646 H         1 7CA         0.0648
     61 H24        70.9280   22.1565   22.3761 H         1 7CA         0.2100
     62 H25        69.1691   23.7677   22.0419 H         1 7CA         0.0646
     63 H26        68.1835   21.7454   22.5759 H         1 7CA         0.2100
     64 H27        67.8563   24.5381   24.7048 H         1 7CA         0.0621
     65 H28        66.3395   24.5931   22.7114 H         1 7CA         0.0255
     66 H29        67.5360   25.6035   21.8316 H         1 7CA         0.0255
     67 H30        66.7100   26.2534   23.2883 H         1 7CA         0.0255
@<TRIPOS>BOND
     1    1    2 1  
     2    2    3 1  
     3    3    4 ar 
     4    3    6 ar 
     5    4    5 ar 
     6    5    8 ar 
     7    6    7 ar 
     8    7    8 ar 
     9    8    9 1  
    10    9   10 1  
    11    9   11 2  
    12   10   14 1  
    13   11   12 1  
    14   11   27 1  
    15   12   13 1  
    16   12   15 2  
    17   13   14 ar 
    18   13   16 ar 
    19   14   19 ar 
    20   16   17 ar 
    21   16   20 1  
    22   17   18 ar 
    23   18   19 ar 
    24   18   21 1  
    25   19   22 1  
    26   22   23 1  
    27   23   24 2  
    28   24   25 1  
    29   24   26 1  
    30   27   28 1  
    31   28   29 1  
    32   28   30 1  
    33   29   36 1  
    34   30   31 1  
    35   30   32 1  
    36   32   33 1  
    37   32   34 1  
    38   34   35 1  
    39   34   36 1  
    40   36   37 1  
    41    1   38 1  
    42    1   39 1  
    43    1   40 1  
    44    4   41 1  
    45    5   42 1  
    46    6   43 1  
    47    7   44 1  
    48   17   45 1  
    49   20   46 1  
    50   21   47 1  
    51   22   48 1  
    52   22   49 1  
    53   23   50 1  
    54   25   51 1  
    55   25   52 1  
    56   25   53 1  
    57   26   54 1  
    58   26   55 1  
    59   26   56 1  
    60   28   57 1  
    61   30   58 1  
    62   31   59 1  
    63   32   60 1  
    64   33   61 1  
    65   34   62 1  
    66   35   63 1  
    67   36   64 1  
    68   37   65 1  
    69   37   66 1  
    70   37   67 1  
@<TRIPOS>SUBSTRUCTURE
     1 7CA         1

