### 
### Created by X-TOOL on Mon Sep 10 21:12:54 2018
### 

@<TRIPOS>MOLECULE
2h4g_ligand
   28    29     1     0     0
SMALL
GAST_HUCK


@<TRIPOS>ATOM
      1 C1         47.2730   11.0890    0.5060 C.ar      1 694        -0.0589
      2 C2         47.5210    9.7950   -0.0230 C.ar      1 694        -0.0300
      3 C3         46.4320    9.0000   -0.4500 C.ar      1 694         0.0911
      4 C4         45.0960    9.4830   -0.3500 C.ar      1 694        -0.0300
      5 C5         44.8470   10.7810    0.1840 C.ar      1 694        -0.0589
      6 C6         45.9290   11.6070    0.6230 C.ar      1 694        -0.0131
      7 C7         45.6610   12.9690    1.1830 C.2       1 694         0.0413
      8 C8         46.1050   13.5880    2.3580 C.2       1 694         0.0420
      9 C9         45.6020   14.9310    2.5310 C.2       1 694         0.0972
     10 C10        44.7930   15.3070    1.4600 C.2       1 694         0.0773
     11 S1         44.6340   14.0460    0.3100 S.3       1 694        -0.0423
     12 C11        44.1040   16.7080    1.2510 C.2       1 694         0.0529
     13 O1         43.9300   17.4410    2.2800 O.co2     1 694        -0.5709
     14 O2         43.7790   16.9910    0.0600 O.co2     1 694        -0.5709
     15 O3         45.8820   15.7650    3.6040 O.3       1 694        -0.3150
     16 C12        47.1130   16.5260    3.4360 C.3       1 694         0.1194
     17 C13        47.4820   17.1650    4.7870 C.2       1 694         0.0648
     18 O4         46.5480   17.2540    5.6340 O.co2     1 694        -0.5663
     19 O5         48.6830   17.5320    4.8860 O.co2     1 694        -0.5663
     20 BR1        47.2540   12.7920    3.6390 Br        1 694        -0.0708
     21 O6         46.6420    7.7490   -0.9680 O.3       1 694        -0.3308
     22 H1         48.1081   11.7003    0.8284 H         1 694         0.0609
     23 H2         48.5352    9.4200   -0.0989 H         1 694         0.0553
     24 H3         44.2693    8.8642   -0.6796 H         1 694         0.0553
     25 H4         43.8287   11.1452    0.2580 H         1 694         0.0609
     26 H5         46.9625   17.3130    2.6824 H         1 694         0.0780
     27 H6         47.9218   15.8557    3.1097 H         1 694         0.0780
     28 H7         46.3055    7.7145   -1.8557 H         1 694         0.2498
@<TRIPOS>BOND
     1    1    2 ar 
     2    1    6 ar 
     3    2    3 ar 
     4    3    4 ar 
     5    3   21 1  
     6    4    5 ar 
     7    5    6 ar 
     8    6    7 1  
     9    7    8 2  
    10    7   11 1  
    11    8    9 1  
    12    8   20 1  
    13    9   10 2  
    14    9   15 1  
    15   10   11 1  
    16   10   12 1  
    17   12   13 ar 
    18   12   14 ar 
    19   15   16 1  
    20   16   17 1  
    21   17   18 ar 
    22   17   19 ar 
    23    1   22 1  
    24    2   23 1  
    25    4   24 1  
    26    5   25 1  
    27   16   26 1  
    28   16   27 1  
    29   21   28 1  
@<TRIPOS>SUBSTRUCTURE
     1 694         1

