### 
### Created by X-TOOL on Mon Sep 10 21:12:54 2018
### 

@<TRIPOS>MOLECULE
2h4k_ligand
   27    28     1     0     0
SMALL
GAST_HUCK


@<TRIPOS>ATOM
      1 C1         46.3160    8.7190    0.0150 C.ar      1 509        -0.0616
      2 C2         45.0090    9.2180   -0.0350 C.ar      1 509        -0.0610
      3 C3         44.7480   10.5400    0.3400 C.ar      1 509        -0.0525
      4 C4         45.8110   11.3700    0.7390 C.ar      1 509        -0.0044
      5 C5         47.1210   10.8600    0.7890 C.ar      1 509        -0.0525
      6 C6         47.3750    9.5350    0.4210 C.ar      1 509        -0.0610
      7 C7         45.5390   12.7420    1.1450 C.2       1 509         0.0483
      8 C8         46.0050   13.4030    2.2410 C.2       1 509         0.0467
      9 C9         45.5610   14.7340    2.3980 C.2       1 509         0.1014
     10 C10        44.7080   15.0700    1.3730 C.2       1 509         0.0813
     11 S1         44.4990   13.7740    0.2710 S.3       1 509        -0.0380
     12 C11        43.9960   16.4520    1.1670 C.2       1 509         0.0555
     13 O1         43.5570   16.6510   -0.0020 O.co2     1 509        -0.5699
     14 O2         43.9340   17.2410    2.1580 O.co2     1 509        -0.5699
     15 O3         45.9320   15.5320    3.4260 O.3       1 509        -0.3141
     16 C12        47.1380   16.2780    3.2020 C.3       1 509         0.1195
     17 C13        47.5240   17.0040    4.5010 C.2       1 509         0.0648
     18 O4         48.5950   17.6430    4.4450 O.co2     1 509        -0.5663
     19 O5         46.7690   16.9050    5.4950 O.co2     1 509        -0.5663
     20 BR1        47.1990   12.6480    3.4640 Br        1 509        -0.0669
     21 H1         46.5083    7.6893   -0.2640 H         1 509         0.0618
     22 H2         44.1980    8.5789   -0.3648 H         1 509         0.0618
     23 H3         43.7337   10.9221    0.3232 H         1 509         0.0627
     24 H4         47.9363   11.4962    1.1139 H         1 509         0.0627
     25 H5         48.3856    9.1440    0.4505 H         1 509         0.0618
     26 H6         46.9730   17.0151    2.4023 H         1 509         0.0780
     27 H7         47.9467   15.5928    2.9079 H         1 509         0.0780
@<TRIPOS>BOND
     1    1    2 ar 
     2    1    6 ar 
     3    2    3 ar 
     4    3    4 ar 
     5    4    5 ar 
     6    4    7 1  
     7    5    6 ar 
     8    7    8 2  
     9    7   11 1  
    10    8    9 1  
    11    8   20 1  
    12    9   10 2  
    13    9   15 1  
    14   10   11 1  
    15   10   12 1  
    16   12   13 ar 
    17   12   14 ar 
    18   15   16 1  
    19   16   17 1  
    20   17   18 ar 
    21   17   19 ar 
    22    1   21 1  
    23    2   22 1  
    24    3   23 1  
    25    5   24 1  
    26    6   25 1  
    27   16   26 1  
    28   16   27 1  
@<TRIPOS>SUBSTRUCTURE
     1 509         1

