### 
### Created by X-TOOL on Mon Sep 10 21:12:45 2018
### 

@<TRIPOS>MOLECULE
2h4n_ligand
   19    19     1     0     0
SMALL
GAST_HUCK


@<TRIPOS>ATOM
      1 C1         -5.3540    2.1150   15.4970 C.2       1 AZM         0.2562
      2 C2         -4.8140    4.0300   14.1770 C.2       1 AZM         0.2252
      3 C3         -5.6840    5.9910   13.0410 C.2       1 AZM         0.2120
      4 C4         -5.2930    7.0450   12.0420 C.3       1 AZM         0.0337
      5 N1         -5.4970   -0.5130   15.6740 N.am      1 AZM        -0.2565
      6 N2         -3.6960    3.2500   14.4490 N.2       1 AZM        -0.2573
      7 N3         -4.0070    2.1330   15.2070 N.2       1 AZM        -0.2476
      8 N4         -4.7000    5.1600   13.3840 N.am      1 AZM        -0.1925
      9 O1         -5.6590    0.7830   17.7850 O.2       1 AZM        -0.1452
     10 O2         -7.4940    0.9060   16.0290 O.2       1 AZM        -0.1452
     11 O3         -6.8430    5.8550   13.4400 O.2       1 AZM        -0.3804
     12 S1         -6.1030    0.7890   16.4000 S.o2      1 AZM         0.0991
     13 S2         -6.2860    3.4580   14.9010 S.3       1 AZM         0.0874
     14 H1         -6.1630    7.6805   11.8201 H         1 AZM         0.0474
     15 H2         -4.9460    6.5623   11.1165 H         1 AZM         0.0474
     16 H3         -4.4842    7.6631   12.4587 H         1 AZM         0.0474
     17 H4         -5.7563   -1.4265   15.9875 H         1 AZM         0.1638
     18 H5         -4.8611   -0.4086   14.9093 H         1 AZM         0.1638
     19 H6         -3.7880    5.3737   13.0338 H         1 AZM         0.2411
@<TRIPOS>BOND
     1    1   13 1  
     2    1   12 1  
     3    1    7 2  
     4    7    6 1  
     5    6    2 2  
     6    2    8 am 
     7    2   13 1  
     8    8    3 am 
     9    3   11 2  
    10    3    4 1  
    11   12    5 am 
    12   12    9 2  
    13   12   10 2  
    14    4   14 1  
    15    4   15 1  
    16    4   16 1  
    17    5   17 1  
    18    5   18 1  
    19    8   19 1  
@<TRIPOS>SUBSTRUCTURE
     1 AZM         1

