### 
### Created by X-TOOL on Mon Sep 10 21:12:54 2018
### 

@<TRIPOS>MOLECULE
2h5i_ligand
   62    61     1     0     0
SMALL
GAST_HUCK


@<TRIPOS>ATOM
      1 C          -6.7620   71.9270   27.0170 C.2       1 ACE         0.1752
      2 O          -5.5790   72.0730   26.7120 O.2       1 ACE        -0.3972
      3 CH3        -7.1800   71.6770   28.4470 C.3       1 ACE         0.0258
      4 N          -7.7510   71.9860   26.1320 N.am      1 ASP        -0.2643
      5 CA         -7.4770   72.1480   24.7040 C.3       1 ASP         0.1422
      6 C          -7.0780   73.5880   24.3940 C.2       1 ASP         0.2056
      7 O          -7.7570   74.5280   24.8490 O.2       1 ASP        -0.3943
      8 CB         -8.6970   71.7420   23.8800 C.3       1 ASP         0.0406
      9 CG         -9.0730   70.2820   23.9380 C.2       1 ASP         0.0393
     10 OD1        -8.1920   69.3910   23.9140 O.co2     1 ASP        -0.5688
     11 OD2       -10.2930   69.9830   23.9730 O.co2     1 ASP        -0.5688
     12 N          -6.0060   73.7660   23.6180 N.am      1 GLU        -0.2635
     13 CA         -5.5140   75.0960   23.2600 C.3       1 GLU         0.1325
     14 C          -5.0880   75.1420   21.7920 C.2       1 GLU         0.2040
     15 O          -4.7960   74.0430   21.2890 O.2       1 GLU        -0.3944
     16 CB         -4.2910   75.4600   24.1230 C.3       1 GLU        -0.0008
     17 CG         -4.5220   75.3070   25.6290 C.3       1 GLU         0.0044
     18 CD         -3.3760   75.8390   26.4730 C.2       1 GLU         0.0350
     19 OE1        -2.2060   75.8790   26.0280 O.co2     1 GLU        -0.5690
     20 OE2        -3.6190   76.2470   27.6420 O.co2     1 GLU        -0.5690
     21 N          -4.9830   76.2970   21.1410 N.am      1 VAL        -0.2635
     22 CA         -4.5070   76.2410   19.7390 C.3       1 VAL         0.1333
     23 C          -3.0780   76.7240   19.5290 C.2       1 VAL         0.2043
     24 O          -2.5610   77.5850   20.2350 O.2       1 VAL        -0.3944
     25 CB         -5.4620   77.0370   18.8290 C.3       1 VAL        -0.0063
     26 CG1        -6.8410   76.3820   18.7880 C.3       1 VAL        -0.0584
     27 CG2        -5.6100   78.4890   19.2490 C.3       1 VAL        -0.0584
     28 N          -2.3880   76.1850   18.5140 N.am      1 ASJ        -0.2634
     29 CA         -1.0600   76.5340   18.0330 C.3       1 ASJ         0.1241
     30 C          -1.0790   77.5420   16.8920 C.2       1 ASJ         0.1262
     31 O           0.1510   77.9840   16.3580 O.2       1 ASJ        -0.3723
     32 CB         -0.3130   75.2450   17.6400 C.3       1 ASJ         0.0393
     33 CG          0.3610   74.5270   18.7920 C.2       1 ASJ         0.0393
     34 OD1         0.7580   75.2090   19.7610 O.co2     1 ASJ        -0.5688
     35 OD2         0.8080   73.3560   18.6780 O.co2     1 ASJ        -0.5688
     36 H1         -8.2743   71.5768   28.4969 H         1 ACE         0.0467
     37 H2         -6.8601   72.5212   29.0755 H         1 ACE         0.0467
     38 H3         -6.7101   70.7510   28.8098 H         1 ACE         0.0467
     39 H4         -8.6977   71.9186   26.4469 H         1 ASP         0.1884
     40 H5         -6.6388   71.4891   24.4334 H         1 ASP         0.0819
     41 H6         -8.4944   71.9967   22.8293 H         1 ASP         0.0478
     42 H7         -9.5568   72.3263   24.2397 H         1 ASP         0.0478
     43 H8         -5.5231   72.9625   23.2698 H         1 GLU         0.1883
     44 H9         -6.3149   75.8305   23.4303 H         1 GLU         0.0801
     45 H10        -4.0234   76.5073   23.9191 H         1 GLU         0.0330
     46 H11        -3.4561   74.8051   23.8331 H         1 GLU         0.0330
     47 H12        -4.6542   74.2385   25.8546 H         1 GLU         0.0433
     48 H13        -5.4370   75.8547   25.8987 H         1 GLU         0.0433
     49 H14        -5.2152   77.1656   21.5788 H         1 VAL         0.1883
     50 H15        -4.5405   75.1861   19.4291 H         1 VAL         0.0802
     51 H16        -5.0418   77.0213   17.8126 H         1 VAL         0.0343
     52 H17        -7.5050   76.9660   18.1337 H         1 VAL         0.0234
     53 H18        -7.2623   76.3503   19.8036 H         1 VAL         0.0234
     54 H19        -6.7491   75.3580   18.3970 H         1 VAL         0.0234
     55 H20        -4.6186   78.9646   19.2798 H         1 VAL         0.0234
     56 H21        -6.0708   78.5370   20.2467 H         1 VAL         0.0234
     57 H22        -6.2476   79.0171   18.5247 H         1 VAL         0.0234
     58 H23        -2.8468   75.4450   18.0222 H         1 ASJ         0.1886
     59 H24        -0.5156   77.0001   18.8675 H         1 ASJ         0.0809
     60 H25        -2.0224   77.9146   16.4957 H         1 ASJ         0.1375
     61 H26         0.4588   75.5079   16.9017 H         1 ASJ         0.0479
     62 H27        -1.0376   74.5549   17.1832 H         1 ASJ         0.0479
@<TRIPOS>BOND
     1    1    2 2  
     2    1    3 1  
     3    1    4 am 
     4    4    5 1  
     5    5    6 1  
     6    5    8 1  
     7    6    7 2  
     8    6   12 am 
     9    8    9 1  
    10    9   10 ar 
    11    9   11 ar 
    12   12   13 1  
    13   13   14 1  
    14   13   16 1  
    15   14   15 2  
    16   14   21 am 
    17   16   17 1  
    18   17   18 1  
    19   18   19 ar 
    20   18   20 ar 
    21   21   22 1  
    22   22   23 1  
    23   22   25 1  
    24   23   24 2  
    25   23   28 am 
    26   25   26 1  
    27   25   27 1  
    28   28   29 1  
    29   29   30 1  
    30   29   32 1  
    31   30   31 2  
    32   32   33 1  
    33   33   34 ar 
    34   33   35 ar 
    35    3   36 1  
    36    3   37 1  
    37    3   38 1  
    38    4   39 1  
    39    5   40 1  
    40    8   41 1  
    41    8   42 1  
    42   12   43 1  
    43   13   44 1  
    44   16   45 1  
    45   16   46 1  
    46   17   47 1  
    47   17   48 1  
    48   21   49 1  
    49   22   50 1  
    50   25   51 1  
    51   26   52 1  
    52   26   53 1  
    53   26   54 1  
    54   27   55 1  
    55   27   56 1  
    56   27   57 1  
    57   28   58 1  
    58   29   59 1  
    59   30   60 1  
    60   32   61 1  
    61   32   62 1  
@<TRIPOS>SUBSTRUCTURE
     1 ACE         1

