### 
### Created by X-TOOL on Mon Sep 10 21:12:54 2018
### 

@<TRIPOS>MOLECULE
2h5j_ligand
   67    66     1     0     0
SMALL
GAST_HUCK


@<TRIPOS>ATOM
      1 C          22.4020   14.2030   45.8600 C.2       1 ACE         0.1752
      2 O          22.3930   13.0010   45.5760 O.2       1 ACE        -0.3972
      3 CH3        22.6150   14.6460   47.2930 C.3       1 ACE         0.0258
      4 N          22.2360   15.1710   44.9720 N.am      1 ASP        -0.2643
      5 CA         21.9310   14.9550   43.5610 C.3       1 ASP         0.1422
      6 C          23.1890   14.5770   42.7970 C.2       1 ASP         0.2056
      7 O          24.1860   15.3030   42.7840 O.2       1 ASP        -0.3943
      8 CB         21.2910   16.1970   42.9430 C.3       1 ASP         0.0406
      9 CG         19.8820   16.5220   43.3830 C.2       1 ASP         0.0393
     10 OD1        19.0930   15.6260   43.7700 O.co2     1 ASP        -0.5688
     11 OD2        19.5120   17.7220   43.3410 O.co2     1 ASP        -0.5688
     12 N          23.2070   13.4220   42.1350 N.am      1 MET        -0.2636
     13 CA         24.4020   13.0240   41.3920 C.3       1 MET         0.1317
     14 C          23.9920   12.6330   39.9740 C.2       1 MET         0.2039
     15 O          22.7830   12.6180   39.7350 O.2       1 MET        -0.3944
     16 CB         25.0940   11.8510   42.0790 C.3       1 MET        -0.0034
     17 CG         25.3310   12.0980   43.5670 C.3       1 MET        -0.0024
     18 SD         25.9940   10.6600   44.4260 S.3       1 MET        -0.1639
     19 CE         27.7550   10.9320   44.2010 C.3       1 MET        -0.0181
     20 N          24.9340   12.3070   39.1180 N.am      1 GLN        -0.2636
     21 CA         24.6480   11.9790   37.7290 C.3       1 GLN         0.1329
     22 C          24.9350   10.5090   37.4330 C.2       1 GLN         0.2022
     23 O          25.9290    9.9630   37.9220 O.2       1 GLN        -0.3945
     24 CB         25.4850   12.8320   36.7690 C.3       1 GLN         0.0045
     25 CG         25.2920   14.3280   36.9080 C.3       1 GLN         0.0412
     26 CD         26.2310   14.9670   37.9170 C.2       1 GLN         0.1737
     27 OE1        27.4240   14.6830   37.9700 O.2       1 GLN        -0.3973
     28 NE2        25.6890   15.8560   38.7390 N.am      1 GLN        -0.3009
     29 N          24.0720    9.9110   36.6260 N.am      1 ASJ        -0.2782
     30 CA         24.2150    8.5530   36.1210 C.3       1 ASJ         0.0764
     31 C          24.5950    8.5140   34.6730 C.3       1 ASJ         0.0687
     32 O          25.2810    7.4560   34.0890 O.3       1 ASJ        -0.3926
     33 CB         22.8820    7.8030   36.2590 C.3       1 ASJ         0.0254
     34 CG         22.7160    7.0770   37.5680 C.2       1 ASJ         0.0371
     35 OD1        23.7430    6.8270   38.2350 O.co2     1 ASJ        -0.5689
     36 OD2        21.5590    6.7690   37.9150 O.co2     1 ASJ        -0.5689
     37 H1         22.5904   15.7445   47.3447 H         1 ACE         0.0467
     38 H2         23.5914   14.2841   47.6474 H         1 ACE         0.0467
     39 H3         21.8178   14.2312   47.9274 H         1 ACE         0.0467
     40 H4         22.3257   16.1149   45.2898 H         1 ASP         0.1884
     41 H5         21.2152   14.1232   43.4860 H         1 ASP         0.0819
     42 H6         21.2760   16.0571   41.8521 H         1 ASP         0.0478
     43 H7         21.9261   17.0595   43.1934 H         1 ASP         0.0478
     44 H8         22.4035   12.8268   42.1459 H         1 MET         0.1883
     45 H9         25.0995   13.8734   41.3473 H         1 MET         0.0800
     46 H10        26.0651   11.6802   41.5913 H         1 MET         0.0320
     47 H11        24.4647   10.9558   41.9665 H         1 MET         0.0320
     48 H12        24.3733   12.3732   44.0330 H         1 MET         0.0378
     49 H13        26.0434   12.9292   43.6747 H         1 MET         0.0378
     50 H14        28.3162   10.1171   44.6816 H         1 MET         0.0340
     51 H15        28.0391   11.8917   44.6574 H         1 MET         0.0340
     52 H16        27.9883   10.9537   43.1263 H         1 MET         0.0340
     53 H17        25.8829   12.2833   39.4325 H         1 GLN         0.1883
     54 H18        23.5822   12.1770   37.5421 H         1 GLN         0.0801
     55 H19        25.2195   12.5479   35.7401 H         1 GLN         0.0337
     56 H20        26.5465   12.6067   36.9493 H         1 GLN         0.0337
     57 H21        24.2565   14.5177   37.2268 H         1 GLN         0.0504
     58 H22        25.4650   14.7944   35.9269 H         1 GLN         0.0504
     59 H23        26.2549   16.3118   39.4260 H         1 GLN         0.1814
     60 H24        24.7146   16.0703   38.6716 H         1 GLN         0.1814
     61 H25        23.2647   10.4290   36.3434 H         1 ASJ         0.1857
     62 H26        24.9900    8.0406   36.7099 H         1 ASJ         0.0597
     63 H27        25.2150    9.4061   34.5006 H         1 ASJ         0.0581
     64 H28        23.6533    8.6079   34.1123 H         1 ASJ         0.0581
     65 H29        26.1213    7.3491   34.5190 H         1 ASJ         0.2095
     66 H30        22.8145    7.0664   35.4448 H         1 ASJ         0.0454
     67 H31        22.0641    8.5322   36.1626 H         1 ASJ         0.0454
@<TRIPOS>BOND
     1    1    2 2  
     2    1    3 1  
     3    1    4 am 
     4    4    5 1  
     5    5    6 1  
     6    5    8 1  
     7    6    7 2  
     8    6   12 am 
     9    8    9 1  
    10    9   10 ar 
    11    9   11 ar 
    12   12   13 1  
    13   13   14 1  
    14   13   16 1  
    15   14   15 2  
    16   14   20 am 
    17   16   17 1  
    18   17   18 1  
    19   18   19 1  
    20   20   21 1  
    21   21   22 1  
    22   21   24 1  
    23   22   23 2  
    24   22   29 am 
    25   24   25 1  
    26   25   26 1  
    27   26   27 2  
    28   26   28 am 
    29   29   30 1  
    30   30   31 1  
    31   30   33 1  
    32   31   32 1  
    33   33   34 1  
    34   34   35 ar 
    35   34   36 ar 
    36    3   37 1  
    37    3   38 1  
    38    3   39 1  
    39    4   40 1  
    40    5   41 1  
    41    8   42 1  
    42    8   43 1  
    43   12   44 1  
    44   13   45 1  
    45   16   46 1  
    46   16   47 1  
    47   17   48 1  
    48   17   49 1  
    49   19   50 1  
    50   19   51 1  
    51   19   52 1  
    52   20   53 1  
    53   21   54 1  
    54   24   55 1  
    55   24   56 1  
    56   25   57 1  
    57   25   58 1  
    58   28   59 1  
    59   28   60 1  
    60   29   61 1  
    61   30   62 1  
    62   31   63 1  
    63   31   64 1  
    64   32   65 1  
    65   33   66 1  
    66   33   67 1  
@<TRIPOS>SUBSTRUCTURE
     1 ACE         1

