### 
### Created by X-TOOL on Mon Sep 10 21:12:54 2018
### 

@<TRIPOS>MOLECULE
2h65_ligand
   73    72     1     0     0
SMALL
GAST_HUCK


@<TRIPOS>ATOM
      1 C          22.3830   15.1160   48.1030 C.2       1 ACE         0.1751
      2 O          21.4390   15.7720   47.7070 O.2       1 ACE        -0.3972
      3 CH3        22.1980   14.1880   49.2800 C.3       1 ACE         0.0258
      4 N          23.6200   15.1790   47.4920 N.am      1 VAL        -0.2656
      5 CA         23.7840   15.8400   46.1940 C.3       1 VAL         0.1332
      6 C          23.4200   14.8960   45.0550 C.2       1 VAL         0.2042
      7 O          23.2870   13.6840   45.2480 O.2       1 VAL        -0.3944
      8 CB         25.2560   16.2940   45.9980 C.3       1 VAL        -0.0063
      9 CG1        25.6760   17.2440   47.1110 C.3       1 VAL        -0.0584
     10 CG2        26.1670   15.0810   45.9560 C.3       1 VAL        -0.0584
     11 N          23.2630   15.4590   43.8650 N.am      1 ASP        -0.2622
     12 CA         22.9250   14.6730   42.6950 C.3       1 ASP         0.1423
     13 C          24.1810   14.4130   41.8730 C.2       1 ASP         0.2056
     14 O          25.0250   15.2920   41.7170 O.2       1 ASP        -0.3943
     15 CB         21.8810   15.4220   41.8730 C.3       1 ASP         0.0406
     16 CG         20.6000   15.6790   42.6600 C.2       1 ASP         0.0393
     17 OD1        19.9780   14.6840   43.1200 O.co2     1 ASP        -0.5688
     18 OD2        20.2160   16.8680   42.8240 O.co2     1 ASP        -0.5688
     19 N          24.3160   13.1960   41.3640 N.am      1 VAL        -0.2634
     20 CA         25.4700   12.8470   40.5520 C.3       1 VAL         0.1333
     21 C          24.9970   12.2030   39.2580 C.2       1 VAL         0.2041
     22 O          23.8870   11.6870   39.1900 O.2       1 VAL        -0.3944
     23 CB         26.4160   11.8900   41.3100 C.3       1 VAL        -0.0063
     24 CG1        27.0100   12.6010   42.5220 C.3       1 VAL        -0.0584
     25 CG2        25.6640   10.6500   41.7560 C.3       1 VAL        -0.0584
     26 N          25.8400   12.2450   38.2330 N.am      1 ALA        -0.2640
     27 CA         25.4810   11.6810   36.9430 C.3       1 ALA         0.1282
     28 C          25.8120   10.1970   36.8530 C.2       1 ALA         0.2038
     29 O          26.6060    9.6800   37.6350 O.2       1 ALA        -0.3944
     30 CB         26.1730   12.4450   35.8340 C.3       1 ALA        -0.0244
     31 N          25.1610    9.5190   35.9120 N.am      1 ASJ        -0.2634
     32 CA         25.3630    8.0930   35.6700 C.3       1 ASJ         0.1241
     33 C          25.8750    7.8790   34.2340 C.2       1 ASJ         0.1262
     34 O          25.8190    6.4900   33.8680 O.2       1 ASJ        -0.3723
     35 CB         24.0390    7.3380   35.8430 C.3       1 ASJ         0.0393
     36 CG         23.9810    6.5340   37.1300 C.2       1 ASJ         0.0393
     37 OD1        25.0250    6.0260   37.5850 O.co2     1 ASJ        -0.5688
     38 OD2        22.8770    6.4020   37.6910 O.co2     1 ASJ        -0.5688
     39 H1         23.1484   13.6792   49.4986 H         1 ACE         0.0467
     40 H2         21.4284   13.4398   49.0396 H         1 ACE         0.0467
     41 H3         21.8826   14.7691   50.1591 H         1 ACE         0.0467
     42 H4         24.4138   14.7685   47.9408 H         1 VAL         0.1883
     43 H5         23.1249   16.7200   46.1592 H         1 VAL         0.0802
     44 H6         25.3350   16.8256   45.0382 H         1 VAL         0.0343
     45 H7         26.7199   17.5536   46.9544 H         1 VAL         0.0234
     46 H8         25.5865   16.7341   48.0816 H         1 VAL         0.0234
     47 H9         25.0252   18.1308   47.1013 H         1 VAL         0.0234
     48 H10        25.8460   14.4093   45.1462 H         1 VAL         0.0234
     49 H11        26.1132   14.5485   46.9170 H         1 VAL         0.0234
     50 H12        27.2021   15.4059   45.7743 H         1 VAL         0.0234
     51 H13        23.3804   16.4478   43.7726 H         1 ASP         0.1884
     52 H14        22.5034   13.7089   43.0155 H         1 ASP         0.0819
     53 H15        21.6354   14.8237   40.9832 H         1 ASP         0.0478
     54 H16        22.3037   16.3881   41.5600 H         1 ASP         0.0478
     55 H17        23.6128   12.5075   41.5416 H         1 VAL         0.1883
     56 H18        26.0231   13.7667   40.3109 H         1 VAL         0.0802
     57 H19        27.2320   11.5885   40.6368 H         1 VAL         0.0343
     58 H20        27.6823   11.9141   43.0569 H         1 VAL         0.0234
     59 H21        26.1995   12.9185   43.1945 H         1 VAL         0.0234
     60 H22        27.5765   13.4829   42.1885 H         1 VAL         0.0234
     61 H23        25.2389   10.1431   40.8772 H         1 VAL         0.0234
     62 H24        24.8529   10.9394   42.4403 H         1 VAL         0.0234
     63 H25        26.3550    9.9685   42.2737 H         1 VAL         0.0234
     64 H26        26.7366   12.6718   38.3508 H         1 ALA         0.1883
     65 H27        24.3944   11.7931   36.8141 H         1 ALA         0.0797
     66 H28        25.8957   12.0115   34.8618 H         1 ALA         0.0277
     67 H29        27.2628   12.3785   35.9676 H         1 ALA         0.0277
     68 H30        25.8632   13.4999   35.8668 H         1 ALA         0.0277
     69 H31        24.5012   10.0094   35.3426 H         1 ASJ         0.1886
     70 H32        26.1024    7.7041   36.3856 H         1 ASJ         0.0809
     71 H33        26.2323    8.6746   33.5818 H         1 ASJ         0.1375
     72 H34        23.9135    6.6503   34.9937 H         1 ASJ         0.0479
     73 H35        23.2165    8.0684   35.8481 H         1 ASJ         0.0479
@<TRIPOS>BOND
     1    1    2 2  
     2    1    3 1  
     3    1    4 am 
     4    4    5 1  
     5    5    6 1  
     6    5    8 1  
     7    6    7 2  
     8    6   11 am 
     9    8    9 1  
    10    8   10 1  
    11   11   12 1  
    12   12   13 1  
    13   12   15 1  
    14   13   14 2  
    15   13   19 am 
    16   15   16 1  
    17   16   17 ar 
    18   16   18 ar 
    19   19   20 1  
    20   20   21 1  
    21   20   23 1  
    22   21   22 2  
    23   21   26 am 
    24   23   24 1  
    25   23   25 1  
    26   26   27 1  
    27   27   28 1  
    28   27   30 1  
    29   28   29 2  
    30   28   31 am 
    31   31   32 1  
    32   32   33 1  
    33   32   35 1  
    34   33   34 2  
    35   35   36 1  
    36   36   37 ar 
    37   36   38 ar 
    38    3   39 1  
    39    3   40 1  
    40    3   41 1  
    41    4   42 1  
    42    5   43 1  
    43    8   44 1  
    44    9   45 1  
    45    9   46 1  
    46    9   47 1  
    47   10   48 1  
    48   10   49 1  
    49   10   50 1  
    50   11   51 1  
    51   12   52 1  
    52   15   53 1  
    53   15   54 1  
    54   19   55 1  
    55   20   56 1  
    56   23   57 1  
    57   24   58 1  
    58   24   59 1  
    59   24   60 1  
    60   25   61 1  
    61   25   62 1  
    62   25   63 1  
    63   26   64 1  
    64   27   65 1  
    65   30   66 1  
    66   30   67 1  
    67   30   68 1  
    68   31   69 1  
    69   32   70 1  
    70   33   71 1  
    71   35   72 1  
    72   35   73 1  
@<TRIPOS>SUBSTRUCTURE
     1 ACE         1

