### 
### Created by X-TOOL on Mon Sep 10 21:12:54 2018
### 

@<TRIPOS>MOLECULE
2h6b_ligand
   18    18     1     0     0
SMALL
GAST_HUCK


@<TRIPOS>ATOM
      1 O2         60.5330   83.3660   11.3130 O.co2     1 3C4        -0.5667
      2 C          61.4870   83.2680   12.1480 C.2       1 3C4         0.0446
      3 O1         62.5310   82.5720   11.9040 O.co2     1 3C4        -0.5667
      4 CG         61.2990   84.0550   13.4320 C.3       1 3C4         0.0285
      5 CA         62.4180   83.8990   14.4920 C.ar      1 3C4        -0.0403
      6 CD2        63.6360   84.4950   14.3050 C.ar      1 3C4        -0.0668
      7 CE2        64.6000   84.4000   15.1460 C.ar      1 3C4        -0.0388
      8 CZ         64.5040   83.6120   16.3990 C.ar      1 3C4         0.0951
      9 OH         65.5260   83.4780   17.3610 O.3       1 3C4        -0.3366
     10 CL         62.7560   82.0230   17.9910 Cl        1 3C4        -0.0805
     11 CE1        63.1470   82.9630   16.5560 C.ar      1 3C4         0.0615
     12 CD1        62.1830   83.1490   15.6160 C.ar      1 3C4        -0.0531
     13 H1         60.3531   83.7308   13.8905 H         1 3C4         0.0567
     14 H2         61.2319   85.1206   13.1673 H         1 3C4         0.0567
     15 H3         63.7935   85.0751   13.4029 H         1 3C4         0.0535
     16 H4         65.5270   84.9193   14.9312 H         1 3C4         0.0526
     17 H5         65.7527   84.3353   17.7021 H         1 3C4         0.2463
     18 H6         61.2087   82.6954   15.7576 H         1 3C4         0.0538
@<TRIPOS>BOND
     1    1    2 ar 
     2    2    3 ar 
     3    2    4 1  
     4    4    5 1  
     5    5    6 ar 
     6    5   12 ar 
     7    6    7 ar 
     8    7    8 ar 
     9    8    9 1  
    10    8   11 ar 
    11   11   10 1  
    12   11   12 ar 
    13    4   13 1  
    14    4   14 1  
    15    6   15 1  
    16    7   16 1  
    17    9   17 1  
    18   12   18 1  
@<TRIPOS>SUBSTRUCTURE
     1 3C4         1

