### 
### Created by X-TOOL on Mon Sep 10 21:12:54 2018
### 

@<TRIPOS>MOLECULE
2h8h_ligand
   72    77     1     0     0
SMALL
GAST_HUCK


@<TRIPOS>ATOM
      1 C1         27.1610   14.9190   60.1170 C.3       1 H8H        -0.0427
      2 N2         27.1230   16.3700   59.8410 N.4       1 H8H         0.2405
      3 C3         26.4230   16.5910   58.5480 C.3       1 H8H         0.0092
      4 C4         26.3740   18.1100   58.2720 C.3       1 H8H         0.0095
      5 N5         25.7090   18.8430   59.3760 N.4       1 H8H         0.2446
      6 C6         26.0190   20.2400   59.1190 C.3       1 H8H        -0.0027
      7 C7         24.7550   21.0440   58.8870 C.3       1 H8H         0.1117
      8 O8         23.6390   20.2030   59.0860 O.3       1 H8H        -0.3113
      9 C9         22.5160   20.8860   58.7490 C.ar      1 H8H         0.0865
     10 C10        21.3050   20.1870   58.7360 C.ar      1 H8H         0.0045
     11 C11        20.1260   20.8250   58.3890 C.ar      1 H8H         0.1147
     12 O12        18.9230   20.1760   58.3460 O.3       1 H8H        -0.3068
     13 C13        18.8930   18.9970   59.1450 C.3       1 H8H         0.0886
     14 C14        17.6710   19.1530   60.0500 C.3       1 H8H         0.0020
     15 C15        17.2150   17.8250   60.6710 C.3       1 H8H         0.0504
     16 O16        17.1820   16.7620   59.7110 O.3       1 H8H        -0.3796
     17 C17        18.3720   16.5510   58.9550 C.3       1 H8H         0.0504
     18 C18        18.7040   17.8370   58.1730 C.3       1 H8H         0.0020
     19 C19        20.1480   22.2020   58.0760 C.ar      1 H8H         0.0830
     20 C20        18.9680   22.9450   57.7350 C.ar      1 H8H         0.1537
     21 N21        17.7110   22.3300   57.6890 N.pl3     1 H8H        -0.2519
     22 C22        16.5270   23.0070   57.2880 C.ar      1 H8H         0.1046
     23 C23        16.4740   23.7090   56.0740 C.ar      1 H8H         0.1483
     24 O24        17.3970   23.9430   55.0710 O.3       1 H8H        -0.2955
     25 C25        16.9720   25.1470   54.4240 C.3       1 H8H         0.1843
     26 O26        15.5540   24.9650   54.4830 O.3       1 H8H        -0.2941
     27 C27        15.2960   24.3470   55.6850 C.ar      1 H8H         0.1156
     28 C28        14.1760   24.3080   56.4990 C.ar      1 H8H        -0.0509
     29 C29        14.2070   23.6040   57.6940 C.ar      1 H8H        -0.0757
     30 C30        15.3640   22.9490   58.0830 C.ar      1 H8H         0.0450
     31 CL3        15.3560   22.0940   59.6070 Cl        1 H8H        -0.0913
     32 N32        19.1010   24.2560   57.4940 N.ar      1 H8H        -0.2599
     33 C33        20.2600   24.8470   57.5280 C.ar      1 H8H         0.0532
     34 N34        21.3810   24.2100   57.8210 N.ar      1 H8H        -0.3053
     35 C35        21.3850   22.9060   58.1070 C.ar      1 H8H         0.0258
     36 C36        22.5640   22.2410   58.4410 C.ar      1 H8H        -0.0286
     37 C37        26.3440   18.5430   60.6840 C.3       1 H8H         0.0095
     38 C38        26.3870   17.0280   60.9570 C.3       1 H8H         0.0092
     39 H1         27.7000   14.4057   59.3071 H         1 H8H         0.0778
     40 H2         26.1338   14.5302   60.1777 H         1 H8H         0.0778
     41 H3         27.6775   14.7407   61.0717 H         1 H8H         0.0778
     42 H4         28.0597   16.7383   59.7861 H         1 H8H         0.2035
     43 H5         25.3999   16.1912   58.6066 H         1 H8H         0.0868
     44 H6         26.9691   16.0841   57.7388 H         1 H8H         0.0868
     45 H7         25.8169   18.2859   57.3400 H         1 H8H         0.0868
     46 H8         27.4017   18.4863   58.1615 H         1 H8H         0.0868
     47 H9         24.7181   18.6595   59.3977 H         1 H8H         0.2039
     48 H10        26.6575   20.3082   58.2259 H         1 H8H         0.0841
     49 H11        26.5549   20.6547   59.9855 H         1 H8H         0.0841
     50 H12        24.7470   21.4317   57.8576 H         1 H8H         0.0671
     51 H13        24.7158   21.8843   59.5957 H         1 H8H         0.0671
     52 H14        21.2890   19.1358   59.0001 H         1 H8H         0.0474
     53 H15        19.8122   18.8719   59.7361 H         1 H8H         0.0659
     54 H16        16.8430   19.5646   59.4542 H         1 H8H         0.0317
     55 H17        17.9218   19.8521   60.8613 H         1 H8H         0.0317
     56 H18        16.2058   17.9570   61.0882 H         1 H8H         0.0561
     57 H19        17.9123   17.5529   61.4770 H         1 H8H         0.0561
     58 H20        18.2190   15.7201   58.2506 H         1 H8H         0.0561
     59 H21        19.2023   16.3077   59.6343 H         1 H8H         0.0561
     60 H22        19.6302   17.6867   57.5989 H         1 H8H         0.0317
     61 H23        17.8788   18.0687   57.4836 H         1 H8H         0.0317
     62 H24        17.6407   21.3385   57.9589 H         1 H8H         0.2195
     63 H25        17.3346   25.2046   53.3871 H         1 H8H         0.0969
     64 H26        17.2930   26.0433   54.9750 H         1 H8H         0.0969
     65 H27        13.2730   24.8288   56.2016 H         1 H8H         0.0428
     66 H28        13.3254   23.5664   58.3237 H         1 H8H         0.0479
     67 H29        20.3084   25.9070   57.3066 H         1 H8H         0.1046
     68 H30        23.5075   22.7744   58.4603 H         1 H8H         0.0394
     69 H31        25.7674   19.0336   61.4820 H         1 H8H         0.0868
     70 H32        27.3719   18.9347   60.6804 H         1 H8H         0.0868
     71 H33        26.9055   16.8365   61.9080 H         1 H8H         0.0868
     72 H34        25.3626   16.6311   61.0115 H         1 H8H         0.0868
@<TRIPOS>BOND
     1    1    2 1  
     2    2    3 1  
     3    2   38 1  
     4    3    4 1  
     5    4    5 1  
     6    5    6 1  
     7    5   37 1  
     8    6    7 1  
     9    7    8 1  
    10    8    9 1  
    11    9   10 ar 
    12    9   36 ar 
    13   10   11 ar 
    14   11   12 1  
    15   11   19 ar 
    16   12   13 1  
    17   13   14 1  
    18   13   18 1  
    19   14   15 1  
    20   15   16 1  
    21   16   17 1  
    22   17   18 1  
    23   19   20 ar 
    24   19   35 ar 
    25   20   21 1  
    26   20   32 ar 
    27   21   22 1  
    28   22   23 ar 
    29   22   30 ar 
    30   23   24 1  
    31   23   27 ar 
    32   24   25 1  
    33   25   26 1  
    34   26   27 1  
    35   27   28 ar 
    36   28   29 ar 
    37   29   30 ar 
    38   30   31 1  
    39   32   33 ar 
    40   33   34 ar 
    41   34   35 ar 
    42   35   36 ar 
    43   37   38 1  
    44    1   39 1  
    45    1   40 1  
    46    1   41 1  
    47    2   42 1  
    48    3   43 1  
    49    3   44 1  
    50    4   45 1  
    51    4   46 1  
    52    5   47 1  
    53    6   48 1  
    54    6   49 1  
    55    7   50 1  
    56    7   51 1  
    57   10   52 1  
    58   13   53 1  
    59   14   54 1  
    60   14   55 1  
    61   15   56 1  
    62   15   57 1  
    63   17   58 1  
    64   17   59 1  
    65   18   60 1  
    66   18   61 1  
    67   21   62 1  
    68   25   63 1  
    69   25   64 1  
    70   28   65 1  
    71   29   66 1  
    72   33   67 1  
    73   36   68 1  
    74   37   69 1  
    75   37   70 1  
    76   38   71 1  
    77   38   72 1  
@<TRIPOS>SUBSTRUCTURE
     1 H8H         1

