### 
### Created by X-TOOL on Mon Sep 10 21:12:55 2018
### 

@<TRIPOS>MOLECULE
2h96_ligand
   44    45     1     0     0
SMALL
GAST_HUCK


@<TRIPOS>ATOM
      1 C1         20.0930  109.2770   55.8360 C.ar      1 893        -0.0479
      2 C2         19.4820  107.9870   55.2500 C.ar      1 893         0.0829
      3 C3         18.0470  108.1480   54.7120 C.ar      1 893         0.0000
      4 C4         17.4070  109.3920   54.7830 C.ar      1 893        -0.0380
      5 C5         18.0260  110.5350   55.3340 C.ar      1 893         0.0729
      6 C6         19.3510  110.4740   55.8530 C.ar      1 893        -0.0486
      7 C9         17.3070  107.0040   54.1090 C.3       1 893         0.0604
      8 N1         17.8210  106.6710   52.7820 N.am      1 893        -0.2739
      9 C8         17.0080  106.5050   51.7150 C.2       1 893         0.2277
     10 C14        17.7150  106.1700   50.4610 C.ar      1 893         0.1192
     11 N16        19.0790  106.0510   50.4560 N.ar      1 893        -0.2413
     12 C17        19.7280  105.7350   49.2910 C.ar      1 893         0.2067
     13 C18        19.0120  105.5300   48.0950 C.ar      1 893         0.1556
     14 C19        17.6070  105.6540   48.1010 C.ar      1 893        -0.0111
     15 C20        16.9420  105.9770   49.2940 C.ar      1 893        -0.0152
     16 O22        17.2690  111.7060   55.3400 O.3       1 893        -0.3301
     17 C23        17.5380  112.6010   54.2620 C.3       1 893         0.0568
     18 O27        20.1270  106.7490   55.1850 O.3       1 893        -0.3321
     19 C28        21.1780  106.6430   54.2530 C.3       1 893         0.0553
     20 C34        19.6810  105.1990   46.8790 C.1       1 893         0.1040
     21 N35        20.1900  104.9430   45.8750 N.1       1 893        -0.3320
     22 O36        21.1280  105.6140   49.3010 O.3       1 893        -0.2888
     23 C37        21.7770  105.9140   50.5270 C.3       1 893         0.0744
     24 C7         22.0220  104.6000   51.2780 C.3       1 893        -0.0362
     25 O1         15.7810  106.6240   51.7950 O.2       1 893        -0.3756
     26 H1         21.0999  109.2619   56.2372 H         1 893         0.0496
     27 H2         16.3968  109.4805   54.3999 H         1 893         0.0454
     28 H3         19.7983  111.3688   56.2704 H         1 893         0.0458
     29 H4         16.2436  107.2720   54.0231 H         1 893         0.0659
     30 H5         17.4122  106.1260   54.7633 H         1 893         0.0659
     31 H6         18.8075  106.5623   52.6593 H         1 893         0.1873
     32 H7         17.0432  105.5005   47.1880 H         1 893         0.0815
     33 H8         15.8628  106.0759   49.3195 H         1 893         0.0690
     34 H9         16.8955  113.4891   54.3538 H         1 893         0.0573
     35 H10        17.3319  112.0966   53.3065 H         1 893         0.0573
     36 H11        18.5939  112.9074   54.2946 H         1 893         0.0573
     37 H12        21.6041  105.6297   54.2946 H         1 893         0.0570
     38 H13        21.9586  107.3792   54.4953 H         1 893         0.0570
     39 H14        20.7920  106.8372   53.2414 H         1 893         0.0570
     40 H15        21.1398  106.5750   51.1328 H         1 893         0.0623
     41 H16        22.7370  106.4124   50.3271 H         1 893         0.0623
     42 H17        22.5253  104.8118   52.2329 H         1 893         0.0256
     43 H18        22.6569  103.9414   50.6672 H         1 893         0.0256
     44 H19        21.0597  104.1041   51.4729 H         1 893         0.0256
@<TRIPOS>BOND
     1    1    2 ar 
     2    1    6 ar 
     3    2    3 ar 
     4    2   18 1  
     5    3    4 ar 
     6    3    7 1  
     7    4    5 ar 
     8    5    6 ar 
     9    5   16 1  
    10    7    8 1  
    11    8    9 am 
    12    9   10 1  
    13    9   25 2  
    14   10   11 ar 
    15   10   15 ar 
    16   11   12 ar 
    17   12   13 ar 
    18   12   22 1  
    19   13   14 ar 
    20   13   20 1  
    21   14   15 ar 
    22   16   17 1  
    23   18   19 1  
    24   20   21 3  
    25   22   23 1  
    26   23   24 1  
    27    1   26 1  
    28    4   27 1  
    29    6   28 1  
    30    7   29 1  
    31    7   30 1  
    32    8   31 1  
    33   14   32 1  
    34   15   33 1  
    35   17   34 1  
    36   17   35 1  
    37   17   36 1  
    38   19   37 1  
    39   19   38 1  
    40   19   39 1  
    41   23   40 1  
    42   23   41 1  
    43   24   42 1  
    44   24   43 1  
    45   24   44 1  
@<TRIPOS>SUBSTRUCTURE
     1 893         1

