### 
### Created by X-TOOL on Mon Sep 10 21:12:54 2018
### 

@<TRIPOS>MOLECULE
2h9n_ligand
   82    81     1     0     0
SMALL
GAST_HUCK


@<TRIPOS>ATOM
      1 N           4.6750    8.9560    8.5310 N.4       1 ALA         0.2377
      2 CA          4.2180    8.3430    9.7870 C.3       1 ALA         0.0621
      3 C           4.3670    6.8480    9.6850 C.2       1 ALA         0.2264
      4 O           4.6750    6.2110   10.6790 O.2       1 ALA        -0.3907
      5 CB          2.7290    8.7210   10.0910 C.3       1 ALA        -0.0040
      6 N           4.1510    6.2910    8.4860 N.am      1 ARG        -0.2610
      7 CA          4.1060    4.8280    8.2890 C.3       1 ARG         0.1312
      8 C           5.3610    4.1590    8.8070 C.2       1 ARG         0.2040
      9 O           5.2960    3.0870    9.3970 O.2       1 ARG        -0.3944
     10 CB          3.9000    4.4560    6.8030 C.3       1 ARG        -0.0092
     11 CG          3.6480    2.9600    6.5740 C.3       1 ARG        -0.0156
     12 CD          3.4550    2.5660    5.0950 C.3       1 ARG         0.0627
     13 NE          2.2580    3.1470    4.4810 N.pl3     1 ARG        -0.2723
     14 CZ          1.0440    2.6080    4.5460 C.cat     1 ARG         0.2882
     15 NH1         0.0160    3.1940    3.9560 N.pl3     1 ARG        -0.2849
     16 NH2         0.8590    1.4640    5.1830 N.pl3     1 ARG        -0.2849
     17 N           6.5000    4.8170    8.6000 N.am      1 THR        -0.2613
     18 CA          7.8100    4.2530    8.9510 C.3       1 THR         0.1565
     19 C           8.1540    4.3110   10.4410 C.2       1 THR         0.2065
     20 O           9.2620    3.9130   10.8460 O.2       1 THR        -0.3943
     21 CB          8.9230    4.9720    8.1880 C.3       1 THR         0.0924
     22 OG1         9.0870    6.2810    8.7320 O.3       1 THR        -0.3874
     23 CG2         8.5940    5.0640    6.6920 C.3       1 THR        -0.0346
     24 N           7.2100    4.8370   11.2350 N.am      1 MLZ        -0.2637
     25 CA          7.2900    4.8990   12.6940 C.3       1 MLZ         0.1307
     26 CB          7.5380    6.3390   13.1310 C.3       1 MLZ        -0.0152
     27 CG          8.9680    6.7760   12.8300 C.3       1 MLZ        -0.0610
     28 C           5.9920    4.3860   13.2680 C.2       1 MLZ         0.2040
     29 O           4.9330    4.5780   12.6570 O.2       1 MLZ        -0.3944
     30 N           6.0560    3.7210   14.4280 N.am      1 GLN        -0.2622
     31 CA          4.8690    3.1140   15.0700 C.3       1 GLN         0.1441
     32 C           4.0730    4.0490   15.9930 C.2       1 GLN         0.2572
     33 O           4.2950    5.2700   16.0340 O.2       1 GLN        -0.3680
     34 CB          5.2440    1.8220   15.8210 C.3       1 GLN         0.0059
     35 CG          5.9870    2.0200   17.1340 C.3       1 GLN         0.0413
     36 CD          5.9370    0.7970   18.0530 C.2       1 GLN         0.1737
     37 OE1         6.9780    0.3210   18.5100 O.2       1 GLN        -0.3973
     38 NE2         4.7270    0.2920   18.3380 N.am      1 GLN        -0.3009
     39 O1          3.1212    3.5374   16.7684 O.3       1 GLN        -0.2910
     40 H1          4.5784    9.9575    8.5913 H         1 ALA         0.2015
     41 H2          4.1173    8.6102    7.7659 H         1 ALA         0.2015
     42 H3          5.6426    8.7206    8.3748 H         1 ALA         0.2015
     43 H4          4.8477    8.7101   10.6108 H         1 ALA         0.1095
     44 H5          2.4162    8.2491   11.0341 H         1 ALA         0.0310
     45 H6          2.0860    8.3657    9.2723 H         1 ALA         0.0310
     46 H7          2.6389    9.8137   10.1802 H         1 ALA         0.0310
     47 H8          4.0152    6.8878    7.6952 H         1 ARG         0.1884
     48 H9          3.2500    4.4398    8.8604 H         1 ARG         0.0800
     49 H10         4.8014    4.7465    6.2435 H         1 ARG         0.0313
     50 H11         3.0345    5.0170    6.4207 H         1 ARG         0.0313
     51 H12         2.7409    2.6751    7.1272 H         1 ARG         0.0301
     52 H13         4.5092    2.4014    6.9693 H         1 ARG         0.0301
     53 H14         3.3789    1.4703    5.0348 H         1 ARG         0.0689
     54 H15         4.3348    2.9042    4.5280 H         1 ARG         0.0689
     55 H16         2.3640    4.0319    3.9646 H         1 ARG         0.2642
     56 H17        -0.9206    2.7691    4.0118 H         1 ARG         0.2615
     57 H18         0.1518    4.0754    3.4406 H         1 ARG         0.2615
     58 H19         1.6524    0.9984    5.6463 H         1 ARG         0.2615
     59 H20        -0.0785    1.0386    5.2159 H         1 ARG         0.2615
     60 H21         6.4621    5.7286    8.1906 H         1 THR         0.1884
     61 H22         7.8021    3.1954    8.6486 H         1 THR         0.0826
     62 H23         9.8607    4.4101    8.3101 H         1 THR         0.0639
     63 H24         9.2903    6.2149    9.6576 H         1 THR         0.2101
     64 H25         9.4095    5.5845    6.1686 H         1 THR         0.0257
     65 H26         7.6561    5.6225    6.5565 H         1 THR         0.0257
     66 H27         8.4807    4.0510    6.2785 H         1 THR         0.0257
     67 H28         6.3930    5.2137   10.7983 H         1 MLZ         0.1883
     68 H29         8.1191    4.2671   13.0450 H         1 MLZ         0.0800
     69 H30         7.3599    6.4198   14.2135 H         1 MLZ         0.0310
     70 H31         6.8418    7.0003   12.5945 H         1 MLZ         0.0310
     71 H32         9.1101    7.8164   13.1576 H         1 MLZ         0.0232
     72 H33         9.1535    6.7037   11.7482 H         1 MLZ         0.0232
     73 H34         9.6717    6.1231   13.3672 H         1 MLZ         0.0232
     74 H35         6.9435    3.6306   14.8798 H         1 GLN         0.1885
     75 H36         4.1889    2.8307   14.2532 H         1 GLN         0.0818
     76 H37         5.8814    1.2178   15.1587 H         1 GLN         0.0338
     77 H38         4.3152    1.2735   16.0366 H         1 GLN         0.0338
     78 H39         5.5370    2.8725   17.6638 H         1 GLN         0.0505
     79 H40         7.0402    2.2432   16.9081 H         1 GLN         0.0505
     80 H41         4.6463   -0.5067   18.9343 H         1 GLN         0.1814
     81 H42         3.9059    0.7143   17.9541 H         1 GLN         0.1814
     82 H43         3.3290    3.7107   17.6790 H         1 GLN         0.2540
@<TRIPOS>BOND
     1    2    1 1  
     2    2    5 1  
     3    3    2 1  
     4    3    4 2  
     5    7    6 1  
     6    7   10 1  
     7    8    7 1  
     8    8    9 2  
     9   10   11 1  
    10   11   12 1  
    11   12   13 1  
    12   13   14 ar 
    13   14   16 ar 
    14   14   15 ar 
    15    6    3 am 
    16   18   17 1  
    17   18   21 1  
    18   19   18 1  
    19   19   20 2  
    20   21   23 1  
    21   21   22 1  
    22   17    8 am 
    23   30   31 1  
    24   31   34 1  
    25   31   32 1  
    26   32   33 2  
    27   34   35 1  
    28   35   36 1  
    29   36   38 am 
    30   36   37 2  
    31   25   24 1  
    32   25   26 1  
    33   28   25 1  
    34   26   27 1  
    35   28   29 2  
    36   24   19 am 
    37   28   30 am 
    38   32   39 1  
    39    1   40 1  
    40    1   41 1  
    41    1   42 1  
    42    2   43 1  
    43    5   44 1  
    44    5   45 1  
    45    5   46 1  
    46    6   47 1  
    47    7   48 1  
    48   10   49 1  
    49   10   50 1  
    50   11   51 1  
    51   11   52 1  
    52   12   53 1  
    53   12   54 1  
    54   13   55 1  
    55   15   56 1  
    56   15   57 1  
    57   16   58 1  
    58   16   59 1  
    59   17   60 1  
    60   18   61 1  
    61   21   62 1  
    62   22   63 1  
    63   23   64 1  
    64   23   65 1  
    65   23   66 1  
    66   24   67 1  
    67   25   68 1  
    68   26   69 1  
    69   26   70 1  
    70   27   71 1  
    71   27   72 1  
    72   27   73 1  
    73   30   74 1  
    74   31   75 1  
    75   34   76 1  
    76   34   77 1  
    77   35   78 1  
    78   35   79 1  
    79   38   80 1  
    80   38   81 1  
    81   39   82 1  
@<TRIPOS>SUBSTRUCTURE
     1 ALA         1

