### 
### Created by X-TOOL on Mon Sep 10 21:12:53 2018
### 

@<TRIPOS>MOLECULE
2h9p_ligand
   62    61     1     0     0
SMALL
GAST_HUCK


@<TRIPOS>ATOM
      1 N         -28.0880   21.6430    8.6720 N.4       1 ALA         0.2377
      2 CA        -27.4940   20.6720    7.6830 C.3       1 ALA         0.0621
      3 C         -26.0110   20.9460    7.4560 C.2       1 ALA         0.2264
      4 O         -25.2100   19.9990    7.3840 O.2       1 ALA        -0.3907
      5 CB        -28.2380   20.6970    6.3350 C.3       1 ALA        -0.0040
      6 N         -25.6540   22.2320    7.3380 N.am      1 ARG        -0.2610
      7 CA        -24.2510   22.6780    7.2060 C.3       1 ARG         0.1312
      8 C         -23.3270   21.9530    8.1870 C.2       1 ARG         0.2040
      9 O         -22.1840   21.5890    7.8750 O.2       1 ARG        -0.3944
     10 CB        -24.1560   24.1940    7.4520 C.3       1 ARG        -0.0092
     11 CG        -22.8120   24.7880    7.1120 C.3       1 ARG        -0.0156
     12 CD        -22.7810   26.2760    7.3220 C.3       1 ARG         0.0627
     13 NE        -23.6150   27.0360    6.3730 N.pl3     1 ARG        -0.2723
     14 CZ        -23.1740   27.5350    5.2230 C.cat     1 ARG         0.2882
     15 NH1       -23.9970   28.2350    4.4300 N.pl3     1 ARG        -0.2849
     16 NH2       -21.9020   27.3270    4.8540 N.pl3     1 ARG        -0.2849
     17 N         -23.8560   21.7390    9.3810 N.am      1 THR        -0.2613
     18 CA        -23.1180   21.1690   10.4940 C.3       1 THR         0.1565
     19 C         -22.9960   19.6360   10.4010 C.2       1 THR         0.2065
     20 O         -22.4570   18.9860   11.3190 O.2       1 THR        -0.3943
     21 CB        -23.7970   21.5750   11.8150 C.3       1 THR         0.0924
     22 OG1       -25.0750   20.9350   11.9060 O.3       1 THR        -0.3874
     23 CG2       -23.9640   23.1200   11.8870 C.3       1 THR        -0.0346
     24 N         -23.5030   19.0690    9.3030 N.am      1 M3L        -0.2626
     25 CA        -23.3600   17.6250    9.0230 C.3       1 M3L         0.1392
     26 CB        -24.7110   16.9270    8.8570 C.3       1 M3L        -0.0230
     27 C         -22.5100   17.3950    7.7990 C.2       1 M3L         0.2568
     28 O         -22.5800   18.1620    6.8220 O.2       1 M3L        -0.3680
     29 O1        -21.6756   16.3599    7.7634 O.3       1 M3L        -0.2910
     30 H1        -29.0662   21.4360    8.7999 H         1 ALA         0.2015
     31 H2        -27.9864   22.5830    8.3225 H         1 ALA         0.2015
     32 H3        -27.6086   21.5590    9.5547 H         1 ALA         0.2015
     33 H4        -27.5934   19.6619    8.1069 H         1 ALA         0.1095
     34 H5        -27.7731   19.9763    5.6462 H         1 ALA         0.0310
     35 H6        -28.1801   21.7069    5.9029 H         1 ALA         0.0310
     36 H7        -29.2922   20.4256    6.4929 H         1 ALA         0.0310
     37 H8        -26.3740   22.9260    7.3393 H         1 ARG         0.1884
     38 H9        -23.9132   22.4609    6.1819 H         1 ARG         0.0800
     39 H10       -24.3593   24.3851    8.5160 H         1 ARG         0.0313
     40 H11       -24.9199   24.6926    6.8374 H         1 ARG         0.0313
     41 H12       -22.5866   24.5742    6.0568 H         1 ARG         0.0301
     42 H13       -22.0471   24.3237    7.7518 H         1 ARG         0.0301
     43 H14       -21.7407   26.6179    7.2179 H         1 ARG         0.0689
     44 H15       -23.1366   26.4884    8.3410 H         1 ARG         0.0689
     45 H16       -24.6037   27.1902    6.6172 H         1 ARG         0.2642
     46 H17       -23.6505   28.6197    3.5396 H         1 ARG         0.2615
     47 H18       -24.9760   28.3882    4.7109 H         1 ARG         0.2615
     48 H19       -21.2702   26.7889    5.4641 H         1 ARG         0.2615
     49 H20       -21.5566   27.7053    3.9604 H         1 ARG         0.2615
     50 H21       -24.8152   21.9829    9.5244 H         1 THR         0.1884
     51 H22       -22.1016   21.5893   10.4803 H         1 THR         0.0826
     52 H23       -23.1697   21.2459   12.6565 H         1 THR         0.0639
     53 H24       -24.9601   19.9930   11.8609 H         1 THR         0.2101
     54 H25       -24.4499   23.3924   12.8355 H         1 THR         0.0257
     55 H26       -24.5850   23.4613   11.0457 H         1 THR         0.0257
     56 H27       -22.9752   23.5987   11.8308 H         1 THR         0.0257
     57 H28       -23.9963   19.6413    8.6479 H         1 M3L         0.1884
     58 H29       -22.8494   17.1686    9.8838 H         1 M3L         0.0813
     59 H30       -24.5489   15.8587    8.6511 H         1 M3L         0.0278
     60 H31       -25.2588   17.3829    8.0191 H         1 M3L         0.0278
     61 H32       -25.2968   17.0374    9.7814 H         1 M3L         0.0278
     62 H33       -21.9071   15.7928    7.0373 H         1 M3L         0.2540
@<TRIPOS>BOND
     1    2    1 1  
     2    2    5 1  
     3    3    2 1  
     4    3    4 2  
     5    7    6 1  
     6    7   10 1  
     7    8    7 1  
     8    8    9 2  
     9   10   11 1  
    10   11   12 1  
    11   12   13 1  
    12   13   14 ar 
    13   14   16 ar 
    14   14   15 ar 
    15    6    3 am 
    16   18   17 1  
    17   18   21 1  
    18   19   18 1  
    19   19   20 2  
    20   21   23 1  
    21   21   22 1  
    22   17    8 am 
    23   24   25 1  
    24   25   26 1  
    25   25   27 1  
    26   27   28 2  
    27   19   24 am 
    28   27   29 1  
    29    1   30 1  
    30    1   31 1  
    31    1   32 1  
    32    2   33 1  
    33    5   34 1  
    34    5   35 1  
    35    5   36 1  
    36    6   37 1  
    37    7   38 1  
    38   10   39 1  
    39   10   40 1  
    40   11   41 1  
    41   11   42 1  
    42   12   43 1  
    43   12   44 1  
    44   13   45 1  
    45   15   46 1  
    46   15   47 1  
    47   16   48 1  
    48   16   49 1  
    49   17   50 1  
    50   18   51 1  
    51   21   52 1  
    52   22   53 1  
    53   23   54 1  
    54   23   55 1  
    55   23   56 1  
    56   24   57 1  
    57   25   58 1  
    58   26   59 1  
    59   26   60 1  
    60   26   61 1  
    61   29   62 1  
@<TRIPOS>SUBSTRUCTURE
     1 ALA         1

