### 
### Created by X-TOOL on Mon Sep 10 21:12:54 2018
### 

@<TRIPOS>MOLECULE
2ha0_ligand
   30    29     1     0     0
SMALL
GAST_HUCK


@<TRIPOS>ATOM
      1 N1         26.8280   19.2820   14.8480 N.4       1 NWA         0.2369
      2 C2         27.5840   18.6770   13.7260 C.3       1 NWA        -0.0308
      3 C3         27.6420   17.1440   13.6630 C.3       1 NWA        -0.0101
      4 C5         28.8620   15.2690   12.3190 C.3       1 NWA         0.0526
      5 O7         29.5670   14.9070   13.4990 O.3       1 NWA        -0.3921
      6 C6         29.7540   14.9890   11.1030 C.3       1 NWA        -0.0389
      7 C8         26.9340   20.7490   14.6940 C.3       1 NWA        -0.0418
      8 C9         27.4140   18.9470   16.1360 C.3       1 NWA        -0.0418
      9 C10        25.4030   18.8860   14.8240 C.3       1 NWA        -0.0418
     10 C4         28.3850   16.7400   12.3830 C.3       1 NWA        -0.0223
     11 H1         28.6188   19.0447   13.7882 H         1 NWA         0.0815
     12 H2         27.1253   19.0292   12.7903 H         1 NWA         0.0815
     13 H3         26.6214   16.7340   13.6453 H         1 NWA         0.0318
     14 H4         28.1779   16.7560   14.5418 H         1 NWA         0.0318
     15 H5         27.9683   14.6325   12.2401 H         1 NWA         0.0590
     16 H6         29.7849   13.9829   13.4654 H         1 NWA         0.2098
     17 H7         29.2177   15.2658   10.1834 H         1 NWA         0.0254
     18 H8         30.0065   13.9188   11.0721 H         1 NWA         0.0254
     19 H9         30.6774   15.5816   11.1814 H         1 NWA         0.0254
     20 H10        26.3851   21.2438   15.5088 H         1 NWA         0.0778
     21 H11        26.5033   21.0483   13.7271 H         1 NWA         0.0778
     22 H12        27.9924   21.0461   14.7317 H         1 NWA         0.0778
     23 H13        27.3565   17.8598   16.2933 H         1 NWA         0.0778
     24 H14        26.8618   19.4628   16.9354 H         1 NWA         0.0778
     25 H15        28.4669   19.2648   16.1536 H         1 NWA         0.0778
     26 H16        24.9675   19.1427   13.8470 H         1 NWA         0.0778
     27 H17        24.8607   19.4194   15.6186 H         1 NWA         0.0778
     28 H18        25.3210   17.8015   14.9884 H         1 NWA         0.0778
     29 H19        29.2698   17.3865   12.2876 H         1 NWA         0.0292
     30 H20        27.7104   16.9137   11.5317 H         1 NWA         0.0292
@<TRIPOS>BOND
     1    2    1 1  
     2    1    7 1  
     3    1    8 1  
     4    1    9 1  
     5    3    2 1  
     6   10    3 1  
     7    4    5 1  
     8    4    6 1  
     9    4   10 1  
    10    2   11 1  
    11    2   12 1  
    12    3   13 1  
    13    3   14 1  
    14    4   15 1  
    15    5   16 1  
    16    6   17 1  
    17    6   18 1  
    18    6   19 1  
    19    7   20 1  
    20    7   21 1  
    21    7   22 1  
    22    8   23 1  
    23    8   24 1  
    24    8   25 1  
    25    9   26 1  
    26    9   27 1  
    27    9   28 1  
    28   10   29 1  
    29   10   30 1  
@<TRIPOS>SUBSTRUCTURE
     1 NWA         1

