### 
### Created by X-TOOL on Mon Sep 10 21:12:54 2018
### 

@<TRIPOS>MOLECULE
2ha2_ligand
   50    49     1     0     0
SMALL
GAST_HUCK


@<TRIPOS>ATOM
      1 O13        30.8670   23.0330   11.8530 O.2       1 SCK        -0.3702
      2 C12        29.8630   22.3520   11.7430 C.2       1 SCK         0.2363
      3 O14        28.9800   22.2070   12.8820 O.3       1 SCK        -0.2714
      4 C15        28.6210   20.9060   13.3250 C.3       1 SCK         0.1165
      5 C16        27.3260   20.9930   14.1140 C.3       1 SCK        -0.0023
      6 N17        26.8500   19.6300   14.3600 N.4       1 SCK         0.2387
      7 C20        27.6200   19.0250   15.4500 C.3       1 SCK        -0.0417
      8 C19        25.4310   19.6670   14.7190 C.3       1 SCK        -0.0417
      9 C18        27.0310   18.8390   13.1410 C.3       1 SCK        -0.0417
     10 C11        29.5360   21.6720   10.4400 C.3       1 SCK         0.0668
     11 C6         30.4120   22.2660    9.3520 C.3       1 SCK         0.0668
     12 C5         31.7770   21.6440    9.4390 C.2       1 SCK         0.2363
     13 O7         31.8980   20.4420    9.5730 O.2       1 SCK        -0.3702
     14 O4         32.9620   22.4730    9.3660 O.3       1 SCK        -0.2714
     15 C3         34.1550   21.9430    8.8010 C.3       1 SCK         0.1165
     16 C2         34.9900   23.0740    8.2180 C.3       1 SCK        -0.0023
     17 N1         35.7940   23.6760    9.2800 N.4       1 SCK         0.2387
     18 C8         36.4640   22.6120   10.0320 C.3       1 SCK        -0.0417
     19 C9         36.7930   24.5730    8.6970 C.3       1 SCK        -0.0417
     20 C10        34.9250   24.4430   10.1730 C.3       1 SCK        -0.0417
     21 H1         29.4176   20.5019   13.9669 H         1 SCK         0.0667
     22 H2         28.4800   20.2462   12.4562 H         1 SCK         0.0667
     23 H3         26.5746   21.5517   13.5367 H         1 SCK         0.0841
     24 H4         27.5065   21.5033   15.0716 H         1 SCK         0.0841
     25 H5         27.2584   18.0019   15.6304 H         1 SCK         0.0778
     26 H6         27.4952   19.6244   16.3638 H         1 SCK         0.0778
     27 H7         28.6844   18.9944   15.1741 H         1 SCK         0.0778
     28 H8         24.8569   20.1217   13.8983 H         1 SCK         0.0778
     29 H9         25.2995   20.2643   15.6333 H         1 SCK         0.0778
     30 H10        25.0705   18.6428   14.8951 H         1 SCK         0.0778
     31 H11        28.0981   18.8140   12.8752 H         1 SCK         0.0778
     32 H12        26.4592   19.2953   12.3195 H         1 SCK         0.0778
     33 H13        26.6718   17.8136   13.3125 H         1 SCK         0.0778
     34 H14        28.4765   21.8342   10.1927 H         1 SCK         0.0544
     35 H15        29.7316   20.5929   10.5256 H         1 SCK         0.0544
     36 H16        30.4914   23.3540    9.4935 H         1 SCK         0.0544
     37 H17        29.9716   22.0556    8.3662 H         1 SCK         0.0544
     38 H18        33.8973   21.2299    8.0041 H         1 SCK         0.0667
     39 H19        34.7323   21.4270    9.5823 H         1 SCK         0.0667
     40 H20        34.3256   23.8353    7.7834 H         1 SCK         0.0841
     41 H21        35.6530   22.6761    7.4356 H         1 SCK         0.0841
     42 H22        37.0717   23.0566   10.8339 H         1 SCK         0.0778
     43 H23        37.1136   22.0377    9.3551 H         1 SCK         0.0778
     44 H24        35.7097   21.9429   10.4717 H         1 SCK         0.0778
     45 H25        36.2857   25.3700    8.1335 H         1 SCK         0.0778
     46 H26        37.4461   24.0036    8.0194 H         1 SCK         0.0778
     47 H27        37.3978   25.0196    9.4999 H         1 SCK         0.0778
     48 H28        34.1715   23.7744   10.6147 H         1 SCK         0.0778
     49 H29        34.4211   25.2367    9.6018 H         1 SCK         0.0778
     50 H30        35.5290   24.8945   10.9738 H         1 SCK         0.0778
@<TRIPOS>BOND
     1    1    2 2  
     2    2    3 1  
     3    2   10 1  
     4    3    4 1  
     5    4    5 1  
     6    5    6 1  
     7    6    7 1  
     8    6    8 1  
     9    6    9 1  
    10   10   11 1  
    11   11   12 1  
    12   12   13 2  
    13   12   14 1  
    14   14   15 1  
    15   15   16 1  
    16   16   17 1  
    17   17   18 1  
    18   17   19 1  
    19   17   20 1  
    20    4   21 1  
    21    4   22 1  
    22    5   23 1  
    23    5   24 1  
    24    7   25 1  
    25    7   26 1  
    26    7   27 1  
    27    8   28 1  
    28    8   29 1  
    29    8   30 1  
    30    9   31 1  
    31    9   32 1  
    32    9   33 1  
    33   10   34 1  
    34   10   35 1  
    35   11   36 1  
    36   11   37 1  
    37   15   38 1  
    38   15   39 1  
    39   16   40 1  
    40   16   41 1  
    41   18   42 1  
    42   18   43 1  
    43   18   44 1  
    44   19   45 1  
    45   19   46 1  
    46   19   47 1  
    47   20   48 1  
    48   20   49 1  
    49   20   50 1  
@<TRIPOS>SUBSTRUCTURE
     1 SCK         1

