### 
### Created by X-TOOL on Mon Sep 10 21:12:53 2018
### 

@<TRIPOS>MOLECULE
2ha3_ligand
   21    20     1     0     0
SMALL
GAST_HUCK


@<TRIPOS>ATOM
      1 C4         25.5150   20.8110   14.2040 C.3       1 CHT         0.0841
      2 C5         26.8380   20.2910   14.7850 C.3       1 CHT        -0.0071
      3 C6         26.9790   17.9480   14.2250 C.3       1 CHT        -0.0417
      4 C7         27.7700   18.7310   16.3320 C.3       1 CHT        -0.0417
      5 C8         25.4510   18.6490   15.9330 C.3       1 CHT        -0.0417
      6 O6         24.9530   19.8920   13.2630 O.3       1 CHT        -0.3898
      7 N1         26.7450   18.9150   15.3030 N.4       1 CHT         0.2385
      8 H1         25.7002   21.7702   13.6984 H         1 CHT         0.0610
      9 H2         24.7996   20.9618   15.0258 H         1 CHT         0.0610
     10 H3         27.1427   20.9542   15.6080 H         1 CHT         0.0837
     11 H4         27.6009   20.3152   13.9929 H         1 CHT         0.0837
     12 H5         26.9064   16.9265   14.6266 H         1 CHT         0.0778
     13 H6         27.9824   18.1054   13.8026 H         1 CHT         0.0778
     14 H7         26.2237   18.0868   13.4375 H         1 CHT         0.0778
     15 H8         27.6050   19.4514   17.1468 H         1 CHT         0.0778
     16 H9         28.7647   18.8962   15.8924 H         1 CHT         0.0778
     17 H10        27.7104   17.7073   16.7300 H         1 CHT         0.0778
     18 H11        24.6489   18.7766   15.1911 H         1 CHT         0.0778
     19 H12        25.2965   19.3523   16.7646 H         1 CHT         0.0778
     20 H13        25.4349   17.6182   16.3167 H         1 CHT         0.0778
     21 H14        24.1383   20.2450   12.9252 H         1 CHT         0.2096
@<TRIPOS>BOND
     1    1    2 1  
     2    1    6 1  
     3    2    7 1  
     4    7    3 1  
     5    7    4 1  
     6    7    5 1  
     7    1    8 1  
     8    1    9 1  
     9    2   10 1  
    10    2   11 1  
    11    3   12 1  
    12    3   13 1  
    13    3   14 1  
    14    4   15 1  
    15    4   16 1  
    16    4   17 1  
    17    5   18 1  
    18    5   19 1  
    19    5   20 1  
    20    6   21 1  
@<TRIPOS>SUBSTRUCTURE
     1 CHT         1

