### 
### Created by X-TOOL on Mon Sep 10 21:12:54 2018
### 

@<TRIPOS>MOLECULE
2ha4_ligand
   26    25     1     0     0
SMALL
GAST_HUCK


@<TRIPOS>ATOM
      1 N1         36.3000   24.2130    9.1880 N.4       1 ACH         0.2387
      2 C2         35.6520   23.3870    8.1650 C.3       1 ACH        -0.0023
      3 C3         34.8950   22.2170    8.7860 C.3       1 ACH         0.1165
      4 O4         33.7500   22.7390    9.4640 O.3       1 ACH        -0.2717
      5 C5         32.4630   22.0710    9.4200 C.2       1 ACH         0.2308
      6 O7         32.4160   20.9400    8.9750 O.2       1 ACH        -0.3707
      7 C6         31.2520   22.7840    9.9280 C.3       1 ACH         0.0372
      8 C8         35.4320   25.3420    9.5620 C.3       1 ACH        -0.0417
      9 C9         37.5710   24.6940    8.6300 C.3       1 ACH        -0.0417
     10 C10        36.5760   23.4290   10.3950 C.3       1 ACH        -0.0417
     11 H1         36.4209   22.9936    7.4838 H         1 ACH         0.0841
     12 H2         34.9442   24.0100    7.5985 H         1 ACH         0.0841
     13 H3         35.5440   21.6905    9.5013 H         1 ACH         0.0667
     14 H4         34.5757   21.5191    7.9980 H         1 ACH         0.0667
     15 H5         30.3712   22.1341    9.8190 H         1 ACH         0.0483
     16 H6         31.1003   23.7072    9.3494 H         1 ACH         0.0483
     17 H7         31.3929   23.0355   10.9895 H         1 ACH         0.0483
     18 H8         35.9325   25.9508   10.3294 H         1 ACH         0.0778
     19 H9         34.4819   24.9575    9.9612 H         1 ACH         0.0778
     20 H10        35.2332   25.9612    8.6749 H         1 ACH         0.0778
     21 H11        38.2011   23.8341    8.3587 H         1 ACH         0.0778
     22 H12        38.0916   25.3080    9.3797 H         1 ACH         0.0778
     23 H13        37.3721   25.3000    7.7338 H         1 ACH         0.0778
     24 H14        35.6291   23.0645   10.8199 H         1 ACH         0.0778
     25 H15        37.0898   24.0617   11.1337 H         1 ACH         0.0778
     26 H16        37.2161   22.5723   10.1374 H         1 ACH         0.0778
@<TRIPOS>BOND
     1    1    2 1  
     2    1    8 1  
     3    1    9 1  
     4    1   10 1  
     5    2    3 1  
     6    3    4 1  
     7    4    5 1  
     8    5    6 2  
     9    5    7 1  
    10    2   11 1  
    11    2   12 1  
    12    3   13 1  
    13    3   14 1  
    14    7   15 1  
    15    7   16 1  
    16    7   17 1  
    17    8   18 1  
    18    8   19 1  
    19    8   20 1  
    20    9   21 1  
    21    9   22 1  
    22    9   23 1  
    23   10   24 1  
    24   10   25 1  
    25   10   26 1  
@<TRIPOS>SUBSTRUCTURE
     1 ACH         1

