### 
### Created by X-TOOL on Fri Sep 26 17:34:32 2014
### 

@<TRIPOS>MOLECULE
2ha5_ligand
   26    25     1     0     0
SMALL
GAST_HUCK


@<TRIPOS>ATOM
      1 N1         26.9090   18.5890   14.9250 N.4       1 AT3         0.2376
      2 C2         27.4900   19.9370   14.9680 C.3       1 AT3        -0.0192
      3 C3         28.0000   20.5080   13.6480 C.3       1 AT3         0.0535
      4 C5         29.5450   19.0820   11.8600 C.2       1 AT3         0.1612
      5 O7         28.4790   19.0370   11.3080 O.2       1 AT3        -0.3794
      6 C6         30.7480   18.3940   11.3190 C.3       1 AT3         0.0201
      7 C8         25.4720   18.6650   14.7640 C.3       1 AT3        -0.0418
      8 C9         27.4390   17.7420   13.8710 C.3       1 AT3        -0.0418
      9 C10        27.1920   17.9440   16.1990 C.3       1 AT3        -0.0418
     10 S24        29.6340   19.9520   13.2590 S.3       1 AT3        -0.0452
     11 H1         28.3370   19.9123   15.6694 H         1 AT3         0.0825
     12 H2         26.7174   20.6205   15.3500 H         1 AT3         0.0825
     13 H3         28.0076   21.6058   13.7174 H         1 AT3         0.0457
     14 H4         27.3196   20.1963   12.8419 H         1 AT3         0.0457
     15 H5         30.4841   17.8726   10.3871 H         1 AT3         0.0467
     16 H6         31.1156   17.6646   12.0557 H         1 AT3         0.0467
     17 H7         31.5337   19.1361   11.1141 H         1 AT3         0.0467
     18 H8         25.0522   17.6487   14.7336 H         1 AT3         0.0778
     19 H9         25.2353   19.1877   13.8255 H         1 AT3         0.0778
     20 H10        25.0368   19.2163   15.6106 H         1 AT3         0.0778
     21 H11        28.5318   17.6696   13.9735 H         1 AT3         0.0778
     22 H12        27.1907   18.1767   12.8915 H         1 AT3         0.0778
     23 H13        26.9961   16.7382   13.9496 H         1 AT3         0.0778
     24 H14        26.8010   18.5644   17.0189 H         1 AT3         0.0778
     25 H15        28.2792   17.8245   16.3160 H         1 AT3         0.0778
     26 H16        26.7096   16.9558   16.2249 H         1 AT3         0.0778
@<TRIPOS>BOND
     1    2    1 1  
     2    1    7 1  
     3    1    8 1  
     4    1    9 1  
     5    3    2 1  
     6   10    3 1  
     7    4    5 2  
     8    4    6 1  
     9    4   10 1  
    10    2   11 1  
    11    2   12 1  
    12    3   13 1  
    13    3   14 1  
    14    6   15 1  
    15    6   16 1  
    16    6   17 1  
    17    7   18 1  
    18    7   19 1  
    19    7   20 1  
    20    8   21 1  
    21    8   22 1  
    22    8   23 1  
    23    9   24 1  
    24    9   25 1  
    25    9   26 1  
@<TRIPOS>SUBSTRUCTURE
     1 AT3         1

