### 
### Created by X-TOOL on Mon Sep 10 21:12:53 2018
### 

@<TRIPOS>MOLECULE
2ha6_ligand
   50    49     1     0     0
SMALL
GAST_HUCK


@<TRIPOS>ATOM
      1 O13        29.8800   22.7060   11.9510 O.2       1 SCK        -0.3702
      2 C12        29.0470   21.7970   11.9270 C.2       1 SCK         0.2363
      3 O14        28.4480   21.3820   13.1960 O.3       1 SCK        -0.2714
      4 C15        27.1210   20.8690   13.3510 C.3       1 SCK         0.1165
      5 C16        27.1330   19.3310   13.2960 C.3       1 SCK        -0.0023
      6 N17        26.6560   18.7150   14.5420 N.4       1 SCK         0.2387
      7 C20        26.7300   17.2370   14.4320 C.3       1 SCK        -0.0417
      8 C19        27.5340   19.1400   15.6510 C.3       1 SCK        -0.0417
      9 C18        25.2510   19.1210   14.7480 C.3       1 SCK        -0.0417
     10 C11        28.6840   21.1190   10.6200 C.3       1 SCK         0.0668
     11 C6         29.4930   21.6940    9.4390 C.3       1 SCK         0.0668
     12 C5         30.9080   21.1880    9.5120 C.2       1 SCK         0.2363
     13 O7         31.0890   20.0260    9.8600 O.2       1 SCK        -0.3702
     14 O4         32.0310   22.0710    9.2110 O.3       1 SCK        -0.2714
     15 C3         33.3940   21.6170    9.3760 C.3       1 SCK         0.1165
     16 C2         34.4310   22.4140    8.5670 C.3       1 SCK        -0.0023
     17 N1         35.2390   23.3440    9.3830 N.4       1 SCK         0.2387
     18 C8         34.3670   24.4050    9.8950 C.3       1 SCK        -0.0417
     19 C9         35.8800   22.6350   10.4990 C.3       1 SCK        -0.0417
     20 C10        36.2890   23.9380    8.5470 C.3       1 SCK        -0.0417
     21 H1         26.4854   21.2561   12.5410 H         1 SCK         0.0667
     22 H2         26.7172   21.1942   14.3212 H         1 SCK         0.0667
     23 H3         28.1631   18.9936   13.1086 H         1 SCK         0.0841
     24 H4         26.4839   19.0033   12.4706 H         1 SCK         0.0841
     25 H5         26.3719   16.7814   15.3670 H         1 SCK         0.0778
     26 H6         27.7722   16.9344   14.2523 H         1 SCK         0.0778
     27 H7         26.1007   16.8996   13.5953 H         1 SCK         0.0778
     28 H8         27.4946   20.2347   15.7509 H         1 SCK         0.0778
     29 H9         28.5676   18.8280   15.4406 H         1 SCK         0.0778
     30 H10        27.1937   18.6739   16.5874 H         1 SCK         0.0778
     31 H11        24.6426   18.7812   13.8969 H         1 SCK         0.0778
     32 H12        25.1935   20.2168   14.8254 H         1 SCK         0.0778
     33 H13        24.8704   18.6674   15.6750 H         1 SCK         0.0778
     34 H14        27.6119   21.2695   10.4253 H         1 SCK         0.0544
     35 H15        28.8935   20.0426   10.7058 H         1 SCK         0.0544
     36 H16        29.4925   22.7926    9.4936 H         1 SCK         0.0544
     37 H17        29.0368   21.3738    8.4907 H         1 SCK         0.0544
     38 H18        33.4467   20.5645    9.0607 H         1 SCK         0.0667
     39 H19        33.6558   21.6941   10.4416 H         1 SCK         0.0667
     40 H20        33.8991   22.9975    7.8011 H         1 SCK         0.0841
     41 H21        35.1114   21.7013    8.0781 H         1 SCK         0.0841
     42 H22        34.9588   25.1037   10.5045 H         1 SCK         0.0778
     43 H23        33.5732   23.9607   10.5134 H         1 SCK         0.0778
     44 H24        33.9146   24.9469    9.0514 H         1 SCK         0.0778
     45 H25        36.5314   21.8417   10.1036 H         1 SCK         0.0778
     46 H26        35.1072   22.1883   11.1419 H         1 SCK         0.0778
     47 H27        36.4812   23.3441   11.0869 H         1 SCK         0.0778
     48 H28        35.8275   24.4741    7.7046 H         1 SCK         0.0778
     49 H29        36.9440   23.1430    8.1610 H         1 SCK         0.0778
     50 H30        36.8824   24.6421    9.1488 H         1 SCK         0.0778
@<TRIPOS>BOND
     1    1    2 2  
     2    2    3 1  
     3    2   10 1  
     4    3    4 1  
     5    4    5 1  
     6    5    6 1  
     7    6    7 1  
     8    6    8 1  
     9    6    9 1  
    10   10   11 1  
    11   11   12 1  
    12   12   13 2  
    13   12   14 1  
    14   14   15 1  
    15   15   16 1  
    16   16   17 1  
    17   17   18 1  
    18   17   19 1  
    19   17   20 1  
    20    4   21 1  
    21    4   22 1  
    22    5   23 1  
    23    5   24 1  
    24    7   25 1  
    25    7   26 1  
    26    7   27 1  
    27    8   28 1  
    28    8   29 1  
    29    8   30 1  
    30    9   31 1  
    31    9   32 1  
    32    9   33 1  
    33   10   34 1  
    34   10   35 1  
    35   11   36 1  
    36   11   37 1  
    37   15   38 1  
    38   15   39 1  
    39   16   40 1  
    40   16   41 1  
    41   18   42 1  
    42   18   43 1  
    43   18   44 1  
    44   19   45 1  
    45   19   46 1  
    46   19   47 1  
    47   20   48 1  
    48   20   49 1  
    49   20   50 1  
@<TRIPOS>SUBSTRUCTURE
     1 SCK         1

