### 
### Created by X-TOOL on Mon Sep 10 21:12:54 2018
### 

@<TRIPOS>MOLECULE
2ha7_ligand
   32    31     1     0     0
SMALL
GAST_HUCK


@<TRIPOS>ATOM
      1 C21        30.2480   22.1770   10.1840 C.3       1 BCH        -0.0631
      2 C20        31.6850   22.0450    9.7340 C.3       1 BCH        -0.0391
      3 C19        32.4640   23.3310    9.9890 C.3       1 BCH         0.0314
      4 C18        33.8420   23.3260    9.3580 C.2       1 BCH         0.1643
      5 O12        34.0920   22.6290    8.3860 O.2       1 BCH        -0.3791
      6 S17        35.0340   24.3000   10.0000 S.3       1 BCH        -0.0449
      7 C16        36.2660   24.5110    8.7490 C.3       1 BCH         0.0535
      8 C15        36.5530   26.0030    8.5430 C.3       1 BCH        -0.0192
      9 N14        37.9290   26.3160    8.0860 N.4       1 BCH         0.2376
     10 C13        38.9220   26.0530    9.1420 C.3       1 BCH        -0.0418
     11 C22        38.0050   27.7530    7.7600 C.3       1 BCH        -0.0418
     12 C11        38.2700   25.5340    6.8800 C.3       1 BCH        -0.0418
     13 H1         29.7142   21.2356    9.9871 H         1 BCH         0.0231
     14 H2         29.7642   22.9954    9.6307 H         1 BCH         0.0231
     15 H3         30.2198   22.3960   11.2616 H         1 BCH         0.0231
     16 H4         31.7045   21.8215    8.6571 H         1 BCH         0.0288
     17 H5         32.1602   21.2221   10.2880 H         1 BCH         0.0288
     18 H6         32.5768   23.4625   11.0753 H         1 BCH         0.0503
     19 H7         31.8924   24.1746    9.5749 H         1 BCH         0.0503
     20 H8         35.9055   24.0756    7.8054 H         1 BCH         0.0457
     21 H9         37.1905   24.0015    9.0583 H         1 BCH         0.0457
     22 H10        36.3850   26.5188    9.4999 H         1 BCH         0.0825
     23 H11        35.8476   26.3862    7.7910 H         1 BCH         0.0825
     24 H12        39.9277   26.2958    8.7683 H         1 BCH         0.0778
     25 H13        38.8829   24.9910    9.4259 H         1 BCH         0.0778
     26 H14        38.6970   26.6759   10.0203 H         1 BCH         0.0778
     27 H15        37.2750   27.9892    6.9717 H         1 BCH         0.0778
     28 H16        39.0179   27.9957    7.4063 H         1 BCH         0.0778
     29 H17        37.7786   28.3454    8.6588 H         1 BCH         0.0778
     30 H18        38.2164   24.4601    7.1121 H         1 BCH         0.0778
     31 H19        39.2894   25.7882    6.5542 H         1 BCH         0.0778
     32 H20        37.5581   25.7712    6.0757 H         1 BCH         0.0778
@<TRIPOS>BOND
     1    1    2 1  
     2    2    3 1  
     3    3    4 1  
     4    4    5 2  
     5    4    6 1  
     6    6    7 1  
     7    7    8 1  
     8    8    9 1  
     9    9   10 1  
    10    9   11 1  
    11    9   12 1  
    12    1   13 1  
    13    1   14 1  
    14    1   15 1  
    15    2   16 1  
    16    2   17 1  
    17    3   18 1  
    18    3   19 1  
    19    7   20 1  
    20    7   21 1  
    21    8   22 1  
    22    8   23 1  
    23   10   24 1  
    24   10   25 1  
    25   10   26 1  
    26   11   27 1  
    27   11   28 1  
    28   11   29 1  
    29   12   30 1  
    30   12   31 1  
    31   12   32 1  
@<TRIPOS>SUBSTRUCTURE
     1 BCH         1

