### 
### Created by X-TOOL on Mon Sep 10 21:12:54 2018
### 

@<TRIPOS>MOLECULE
2hai_ligand
   53    55     1     0     0
SMALL
GAST_HUCK


@<TRIPOS>ATOM
      1 F26        39.1110   11.5860   60.6420 F         1 PFI        -0.1918
      2 C23        40.2650   11.9050   60.0460 C.ar      1 PFI         0.1533
      3 C22        41.4800   11.3840   60.5740 C.ar      1 PFI         0.1178
      4 O24        41.4390   10.5910   61.6780 O.3       1 PFI        -0.3196
      5 C25        42.0300   11.0530   62.8990 C.3       1 PFI         0.0733
      6 C2         41.2620   12.2940   63.4310 C.3       1 PFI        -0.0349
      7 C1         42.0010    9.9160   63.9060 C.3       1 PFI        -0.0349
      8 C21        42.7100   11.7240   59.9480 C.ar      1 PFI        -0.0411
      9 C20        42.7740   12.5580   58.8210 C.ar      1 PFI        -0.0728
     10 C19        41.5580   13.0580   58.2960 C.ar      1 PFI        -0.0554
     11 C18        40.3320   12.7240   58.9270 C.ar      1 PFI        -0.0351
     12 C12        41.5920   13.9510   57.0900 C.3       1 PFI        -0.0220
     13 C11        41.1920   13.1240   55.8090 C.3       1 PFI        -0.0082
     14 C5         40.9750   13.9630   54.5430 C.3       1 PFI         0.1172
     15 C6         42.1770   14.8980   54.1930 C.3       1 PFI         0.0564
     16 C17        39.7950   14.9540   54.6850 C.3       1 PFI        -0.0048
     17 C13        38.4350   14.3430   55.1080 C.3       1 PFI        -0.0471
     18 C16        39.4140   15.6830   53.3670 C.3       1 PFI        -0.0471
     19 C15        38.1600   16.4720   53.8180 C.3       1 PFI        -0.0527
     20 C14        37.4910   15.4880   54.7950 C.3       1 PFI        -0.0527
     21 O4         40.6560   13.1010   53.3910 O.3       1 PFI        -0.2784
     22 C3         41.6990   12.3680   52.8820 C.2       1 PFI         0.2083
     23 O10        41.5120   11.2790   52.3380 O.2       1 PFI        -0.3945
     24 C8         43.0780   12.9270   53.0080 C.2       1 PFI         0.0193
     25 C7         43.3370   14.0930   53.7090 C.2       1 PFI         0.0968
     26 O9         44.6150   14.5000   53.9750 O.3       1 PFI        -0.3115
     27 H1         43.0752   11.3392   62.7105 H         1 PFI         0.0640
     28 H2         41.7253   12.6382   64.3674 H         1 PFI         0.0258
     29 H3         40.2126   12.0230   63.6191 H         1 PFI         0.0258
     30 H4         41.3043   13.0997   62.6833 H         1 PFI         0.0258
     31 H5         42.4513   10.2522   64.8516 H         1 PFI         0.0258
     32 H6         42.5713    9.0621   63.5115 H         1 PFI         0.0258
     33 H7         40.9594    9.6104   64.0842 H         1 PFI         0.0258
     34 H8         43.6317   11.3248   60.3557 H         1 PFI         0.0514
     35 H9         43.7250   12.8114   58.3666 H         1 PFI         0.0496
     36 H10        39.4108   13.1242   58.5191 H         1 PFI         0.0515
     37 H11        42.6069   14.3556   56.9624 H         1 PFI         0.0406
     38 H12        40.8815   14.7794   57.2276 H         1 PFI         0.0406
     39 H13        40.2577   12.5859   56.0271 H         1 PFI         0.0318
     40 H14        41.9939   12.3990   55.6056 H         1 PFI         0.0318
     41 H15        42.4742   15.4584   55.0916 H         1 PFI         0.0570
     42 H16        41.8711   15.6028   53.4058 H         1 PFI         0.0570
     43 H17        40.1003   15.6972   55.4363 H         1 PFI         0.0334
     44 H18        38.4216   14.0901   56.1784 H         1 PFI         0.0269
     45 H19        38.1934   13.4476   54.5166 H         1 PFI         0.0269
     46 H20        39.1753   14.9691   52.5649 H         1 PFI         0.0269
     47 H21        40.2162   16.3568   53.0315 H         1 PFI         0.0269
     48 H22        37.5022   16.6968   52.9655 H         1 PFI         0.0265
     49 H23        38.4384   17.4085   54.3234 H         1 PFI         0.0265
     50 H24        37.2374   16.0156   55.7263 H         1 PFI         0.0265
     51 H25        36.5734   15.0888   54.3382 H         1 PFI         0.0265
     52 H26        43.9057   12.4015   52.5340 H         1 PFI         0.0209
     53 H27        44.5916   15.3155   54.4616 H         1 PFI         0.2640
@<TRIPOS>BOND
     1    1    2 1  
     2    2    3 ar 
     3    2   11 ar 
     4    3    4 1  
     5    3    8 ar 
     6    4    5 1  
     7    5    6 1  
     8    5    7 1  
     9    8    9 ar 
    10    9   10 ar 
    11   10   11 ar 
    12   10   12 1  
    13   12   13 1  
    14   13   14 1  
    15   14   15 1  
    16   14   16 1  
    17   14   21 1  
    18   15   25 1  
    19   16   17 1  
    20   16   18 1  
    21   17   20 1  
    22   18   19 1  
    23   19   20 1  
    24   21   22 1  
    25   22   23 2  
    26   22   24 1  
    27   24   25 2  
    28   25   26 1  
    29    5   27 1  
    30    6   28 1  
    31    6   29 1  
    32    6   30 1  
    33    7   31 1  
    34    7   32 1  
    35    7   33 1  
    36    8   34 1  
    37    9   35 1  
    38   11   36 1  
    39   12   37 1  
    40   12   38 1  
    41   13   39 1  
    42   13   40 1  
    43   15   41 1  
    44   15   42 1  
    45   16   43 1  
    46   17   44 1  
    47   17   45 1  
    48   18   46 1  
    49   18   47 1  
    50   19   48 1  
    51   19   49 1  
    52   20   50 1  
    53   20   51 1  
    54   24   52 1  
    55   26   53 1  
@<TRIPOS>SUBSTRUCTURE
     1 PFI         1

