### 
### Created by X-TOOL on Mon Sep 10 21:12:53 2018
### 

@<TRIPOS>MOLECULE
2hb3_ligand
   79    82     1     0     0
SMALL
GAST_HUCK


@<TRIPOS>ATOM
      1 C11        15.2860   24.3430   19.2370 C.3       1 GRL         0.0908
      2 C12        15.3400   25.1730   17.9460 C.3       1 GRL        -0.0169
      3 O1         18.2810   23.9840   18.6050 O.3       1 GRL        -0.3762
      4 C14        18.0680   23.7320   17.2270 C.3       1 GRL         0.0484
      5 C15        16.7900   25.6890   17.7870 C.3       1 GRL        -0.0099
      6 C16        16.5030   24.8130   20.0740 C.3       1 GRL         0.0044
      7 C2         17.6260   25.0770   16.6300 C.3       1 GRL        -0.0242
      8 C1         17.5880   25.1980   19.0370 C.3       1 GRL         0.0643
      9 O13        15.5440   22.9430   18.9410 O.3       1 GRL        -0.2605
     10 C21        14.5380   22.2580   18.3170 C.2       1 GRL         0.3202
     11 C22        14.0220   20.1580   17.1490 C.3       1 GRL         0.0807
     12 C23        14.8010   19.6400   15.8920 C.3       1 GRL         0.0064
     13 C24        15.1820   20.8310   15.0260 C.ar      1 GRL        -0.0408
     14 C25        14.1900   21.5440   14.3280 C.ar      1 GRL        -0.0603
     15 C26        14.5270   22.6620   13.5120 C.ar      1 GRL        -0.0686
     16 C27        15.8810   23.0860   13.3830 C.ar      1 GRL        -0.0687
     17 C28        16.8580   22.3660   14.0850 C.ar      1 GRL        -0.0686
     18 C29        16.5190   21.2560   14.8940 C.ar      1 GRL        -0.0603
     19 O21        13.4360   22.7150   18.1930 O.2       1 GRL        -0.3775
     20 N21        14.9600   21.0490   17.8850 N.am      1 GRL        -0.2550
     21 C31        13.6620   19.0240   18.1360 C.3       1 GRL         0.0967
     22 C32        12.5810   18.0670   17.5630 C.3       1 GRL         0.0578
     23 C33        10.3020   18.4610   18.6420 C.3       1 GRL         0.0320
     24 C34        10.6550   19.1300   20.0030 C.3       1 GRL        -0.0296
     25 C35         9.6130   18.5880   21.0130 C.3       1 GRL        -0.0612
     26 C36        10.5670   20.6690   19.8890 C.3       1 GRL        -0.0612
     27 O31        14.8140   18.2040   18.4020 O.3       1 GRL        -0.3877
     28 O32        11.7380   19.3090   15.1510 O.2       1 GRL        -0.1510
     29 O33         9.6860   20.2520   16.3360 O.2       1 GRL        -0.1510
     30 N31        11.2830   18.7200   17.5740 N.am      1 GRL        -0.2320
     31 S31        10.6330   19.1580   16.1040 S.o2      1 GRL         0.0676
     32 C41         9.6140   17.8010   15.5420 C.ar      1 GRL         0.1013
     33 C42         8.2340   17.8890   15.7040 C.ar      1 GRL        -0.0419
     34 C43         7.4470   16.8220   15.2520 C.ar      1 GRL        -0.0563
     35 C44         8.0700   15.7080   14.6530 C.ar      1 GRL        -0.0177
     36 C45         9.4550   15.6570   14.5070 C.ar      1 GRL        -0.0563
     37 C46        10.2610   16.7160   14.9550 C.ar      1 GRL        -0.0419
     38 C3          7.1900   14.5760   14.1760 C.3       1 GRL         0.0782
     39 O2          7.1330   13.5880   15.1820 O.3       1 GRL        -0.3825
     40 H1         14.3309   24.4767   19.7660 H         1 GRL         0.0648
     41 H2         14.6444   26.0223   18.0158 H         1 GRL         0.0297
     42 H3         15.0677   24.5459   17.0843 H         1 GRL         0.0297
     43 H4         17.2825   22.9740   17.0912 H         1 GRL         0.0560
     44 H5         18.9974   23.3864   16.7508 H         1 GRL         0.0560
     45 H6         16.7757   26.7859   17.7061 H         1 GRL         0.0327
     46 H7         16.8614   24.0003   20.7229 H         1 GRL         0.0319
     47 H8         16.2336   25.6830   20.6908 H         1 GRL         0.0319
     48 H9         17.0129   24.9312   15.7285 H         1 GRL         0.0291
     49 H10        18.4924   25.7093   16.3860 H         1 GRL         0.0291
     50 H11        18.2843   25.9558   19.4255 H         1 GRL         0.0599
     51 H12        13.1139   20.6950   16.8375 H         1 GRL         0.0604
     52 H13        14.1610   18.9546   15.3170 H         1 GRL         0.0449
     53 H14        15.7102   19.1104   16.2128 H         1 GRL         0.0449
     54 H15        13.1535   21.2379   14.4124 H         1 GRL         0.0557
     55 H16        13.7452   23.1956   12.9838 H         1 GRL         0.0599
     56 H17        16.1465   23.9353   12.7639 H         1 GRL         0.0559
     57 H18        17.8965   22.6666   14.0061 H         1 GRL         0.0599
     58 H19        17.3016   20.7230   15.4217 H         1 GRL         0.0557
     59 H20        15.8995   20.7540   18.0593 H         1 GRL         0.1873
     60 H21        13.2976   19.4736   19.0715 H         1 GRL         0.0634
     61 H22        12.5362   17.1571   18.1795 H         1 GRL         0.0504
     62 H23        12.8442   17.7971   16.5296 H         1 GRL         0.0504
     63 H24         9.3240   18.8419   18.3128 H         1 GRL         0.0480
     64 H25        10.2388   17.3738   18.7972 H         1 GRL         0.0480
     65 H26        11.6709   18.8472   20.3158 H         1 GRL         0.0311
     66 H27         9.8037   19.0227   22.0053 H         1 GRL         0.0233
     67 H28         9.6938   17.4925   21.0709 H         1 GRL         0.0233
     68 H29         8.6016   18.8640   20.6801 H         1 GRL         0.0233
     69 H30        11.3160   21.0266   19.1671 H         1 GRL         0.0233
     70 H31        10.7609   21.1213   20.8728 H         1 GRL         0.0233
     71 H32         9.5616   20.9544   19.5459 H         1 GRL         0.0233
     72 H33        15.1063   17.7988   17.5940 H         1 GRL         0.2100
     73 H34         7.7814   18.7585   16.1668 H         1 GRL         0.0619
     74 H35         6.3690   16.8525   15.3617 H         1 GRL         0.0558
     75 H36         9.9145   14.7916   14.0432 H         1 GRL         0.0558
     76 H37        11.3395   16.6903   14.8487 H         1 GRL         0.0619
     77 H38         7.6107   14.1431   13.2565 H         1 GRL         0.0721
     78 H39         6.1776   14.9553   13.9729 H         1 GRL         0.0721
     79 H40         6.5812   12.8719   14.8901 H         1 GRL         0.2126
@<TRIPOS>BOND
     1    1    2 1  
     2    1    6 1  
     3    9    1 1  
     4    2    5 1  
     5    3    4 1  
     6    8    3 1  
     7    7    4 1  
     8    5    7 1  
     9    8    5 1  
    10    6    8 1  
    11   10    9 1  
    12   10   19 2  
    13   20   10 am 
    14   11   12 1  
    15   11   20 1  
    16   21   11 1  
    17   12   13 1  
    18   13   14 ar 
    19   13   18 ar 
    20   14   15 ar 
    21   15   16 ar 
    22   17   16 ar 
    23   18   17 ar 
    24   22   21 1  
    25   21   27 1  
    26   30   22 1  
    27   23   24 1  
    28   30   23 1  
    29   24   25 1  
    30   24   26 1  
    31   31   28 2  
    32   31   29 2  
    33   30   31 am 
    34   31   32 1  
    35   32   33 ar 
    36   32   37 ar 
    37   33   34 ar 
    38   34   35 ar 
    39   35   36 ar 
    40   35   38 1  
    41   36   37 ar 
    42   38   39 1  
    43    1   40 1  
    44    2   41 1  
    45    2   42 1  
    46    4   43 1  
    47    4   44 1  
    48    5   45 1  
    49    6   46 1  
    50    6   47 1  
    51    7   48 1  
    52    7   49 1  
    53    8   50 1  
    54   11   51 1  
    55   12   52 1  
    56   12   53 1  
    57   14   54 1  
    58   15   55 1  
    59   16   56 1  
    60   17   57 1  
    61   18   58 1  
    62   20   59 1  
    63   21   60 1  
    64   22   61 1  
    65   22   62 1  
    66   23   63 1  
    67   23   64 1  
    68   24   65 1  
    69   25   66 1  
    70   25   67 1  
    71   25   68 1  
    72   26   69 1  
    73   26   70 1  
    74   26   71 1  
    75   27   72 1  
    76   33   73 1  
    77   34   74 1  
    78   36   75 1  
    79   37   76 1  
    80   38   77 1  
    81   38   78 1  
    82   39   79 1  
@<TRIPOS>SUBSTRUCTURE
     1 GRL         1

