### 
### Created by X-TOOL on Mon Sep 10 21:12:55 2018
### 

@<TRIPOS>MOLECULE
2hb9_ligand
   24    25     1     0     0
SMALL
GAST_HUCK


@<TRIPOS>ATOM
      1 N14        11.1150   28.9820   30.8130 N.pl3     1 L13        -0.2576
      2 N5         12.2480   29.6670   30.6620 N.pl3     1 L13        -0.1210
      3 C1         12.6460   30.7230   31.3580 C.2       1 L13         0.2156
      4 S6         11.7670   31.5530   32.6420 S.3       1 L13        -0.0557
      5 N2         13.8390   31.1480   30.9240 N.2       1 L13        -0.2571
      6 N3         14.1670   30.2500   29.8740 N.2       1 L13        -0.2666
      7 C4         13.1580   29.3370   29.7590 C.2       1 L13         0.1717
      8 C7         12.9880   28.2210   28.7970 C.ar      1 L13         0.0336
      9 C12        12.3790   28.5770   27.5860 C.ar      1 L13        -0.0534
     10 C11        12.1300   27.6210   26.6050 C.ar      1 L13        -0.0658
     11 C10        12.4880   26.2970   26.8700 C.ar      1 L13        -0.0665
     12 C9         13.0770   25.9390   28.0880 C.ar      1 L13        -0.0571
     13 C8         13.3250   26.9050   29.0710 C.ar      1 L13        -0.0298
     14 C13        13.9620   26.5020   30.3820 C.3       1 L13        -0.0284
     15 H1         10.4306   29.2695   31.5270 H         1 L13         0.1743
     16 H2         10.9236   28.1650   30.2157 H         1 L13         0.1743
     17 H3         10.8943   31.9028   32.2784 H         1 L13         0.1321
     18 H4         12.0984   29.6093   27.4110 H         1 L13         0.0624
     19 H5         11.6713   27.8963   25.6622 H         1 L13         0.0566
     20 H6         12.3068   25.5350   26.1206 H         1 L13         0.0615
     21 H7         13.3437   24.9046   28.2721 H         1 L13         0.0561
     22 H8         14.0767   27.3893   31.0220 H         1 L13         0.0402
     23 H9         14.9502   26.0592   30.1887 H         1 L13         0.0402
     24 H10        13.3225   25.7645   30.8890 H         1 L13         0.0402
@<TRIPOS>BOND
     1    1    2 1  
     2    2    3 1  
     3    2    7 1  
     4    3    4 1  
     5    3    5 2  
     6    5    6 1  
     7    6    7 2  
     8    7    8 1  
     9    8    9 ar 
    10    8   13 ar 
    11    9   10 ar 
    12   10   11 ar 
    13   11   12 ar 
    14   12   13 ar 
    15   13   14 1  
    16    1   15 1  
    17    1   16 1  
    18    4   17 1  
    19    9   18 1  
    20   10   19 1  
    21   11   20 1  
    22   12   21 1  
    23   14   22 1  
    24   14   23 1  
    25   14   24 1  
@<TRIPOS>SUBSTRUCTURE
     1 L13         1

