### 
### Created by X-TOOL on Mon Sep 10 21:12:54 2018
### 

@<TRIPOS>MOLECULE
2hd1_ligand
   30    31     1     0     0
SMALL
GAST_HUCK


@<TRIPOS>ATOM
      1 N9         75.2400   51.9130   40.7980 N.2       1 IBM        -0.2860
      2 C8         74.3200   52.7130   41.4380 C.2       1 IBM         0.0953
      3 N7         74.5170   52.8150   42.7300 N.pl3     1 IBM        -0.2657
      4 C5         75.6370   52.0260   42.9590 C.2       1 IBM         0.1602
      5 C4         76.0960   51.4650   41.7820 C.2       1 IBM         0.1379
      6 N3         77.1620   50.6430   41.6220 N.am      1 IBM        -0.1992
      7 C2         77.8550   50.3790   42.7720 C.2       1 IBM         0.3179
      8 N1         77.4620   50.8930   44.0110 N.am      1 IBM        -0.1740
      9 C6         76.3520   51.7100   44.1130 C.2       1 IBM         0.2295
     10 O6         75.9920   52.1470   45.2100 O.2       1 IBM        -0.4007
     11 O2         78.8500   49.6620   42.7170 O.2       1 IBM        -0.3873
     12 C10        78.2260   50.5590   45.2030 C.3       1 IBM         0.0477
     13 C11        77.5140   50.0460   40.3350 C.3       1 IBM         0.0580
     14 C12        78.5750   50.8980   39.6280 C.3       1 IBM        -0.0214
     15 C13        78.4320   50.7430   38.1130 C.3       1 IBM        -0.0604
     16 C14        79.9940   50.5280   40.0580 C.3       1 IBM        -0.0604
     17 H1         73.5044   53.2144   40.9190 H         1 IBM         0.1261
     18 H2         73.9691   53.3544   43.4154 H         1 IBM         0.2315
     19 H3         79.0665   49.9047   44.9284 H         1 IBM         0.0539
     20 H4         77.5757   50.0385   45.9215 H         1 IBM         0.0539
     21 H5         78.6136   51.4812   45.6605 H         1 IBM         0.0539
     22 H6         76.6152   49.9877   39.7036 H         1 IBM         0.0587
     23 H7         77.9121   49.0340   40.5007 H         1 IBM         0.0587
     24 H8         78.4011   51.9516   39.8918 H         1 IBM         0.0320
     25 H9         79.1940   51.3550   37.6083 H         1 IBM         0.0233
     26 H10        77.4304   51.0758   37.8033 H         1 IBM         0.0233
     27 H11        78.5688   49.6868   37.8379 H         1 IBM         0.0233
     28 H12        80.0883   50.6421   41.1480 H         1 IBM         0.0233
     29 H13        80.7139   51.1913   39.5563 H         1 IBM         0.0233
     30 H14        80.2012   49.4843   39.7793 H         1 IBM         0.0233
@<TRIPOS>BOND
     1    1    5 1  
     2    1    2 2  
     3    2    3 1  
     4    3    4 1  
     5    4    9 1  
     6    4    5 2  
     7    5    6 am 
     8    6   13 1  
     9    6    7 am 
    10    7   11 2  
    11    7    8 am 
    12    8   12 1  
    13    8    9 am 
    14    9   10 2  
    15   13   14 1  
    16   14   16 1  
    17   14   15 1  
    18    2   17 1  
    19    3   18 1  
    20   12   19 1  
    21   12   20 1  
    22   12   21 1  
    23   13   22 1  
    24   13   23 1  
    25   14   24 1  
    26   15   25 1  
    27   15   26 1  
    28   15   27 1  
    29   16   28 1  
    30   16   29 1  
    31   16   30 1  
@<TRIPOS>SUBSTRUCTURE
     1 IBM         1

