### 
### Created by X-TOOL on Mon Sep 10 21:12:54 2018
### 

@<TRIPOS>MOLECULE
2hd6_ligand
   32    33     1     0     0
SMALL
GAST_HUCK


@<TRIPOS>ATOM
      1 N1         -5.3400   -0.5360   15.9860 N.am      1 BOS        -0.2625
      2 S1         -5.9140    0.8420   16.6720 S.o2      1 BOS         0.0591
      3 O1         -5.3600    0.8590   17.9970 O.2       1 BOS        -0.1524
      4 O2         -7.3280    0.8260   16.5340 O.2       1 BOS        -0.1524
      5 C1         -5.2400    2.1820   15.7720 C.ar      1 BOS         0.0924
      6 C2         -3.8790    2.1650   15.4100 C.ar      1 BOS        -0.0489
      7 C3         -3.3290    3.2450   14.6960 C.ar      1 BOS        -0.0394
      8 C4         -4.1410    4.3630   14.3340 C.ar      1 BOS         0.0659
      9 C5         -5.5120    4.3620   14.7060 C.ar      1 BOS        -0.0394
     10 C6         -6.0560    3.2780   15.4200 C.ar      1 BOS        -0.0489
     11 N2         -3.6230    5.4800   13.6190 N.am      1 BOS        -0.2343
     12 C7         -2.3490    5.7700   13.1940 C.2       1 BOS         0.2284
     13 O3         -1.3650    5.0690   13.3650 O.2       1 BOS        -0.3768
     14 C8         -2.2570    7.0880   12.4680 C.ar      1 BOS         0.0677
     15 C9         -1.5670    8.1470   13.1110 C.ar      1 BOS        -0.0472
     16 C10        -1.4390    9.4050   12.5000 C.ar      1 BOS        -0.0630
     17 C11        -1.9990    9.6430   11.2200 C.ar      1 BOS        -0.0634
     18 C12        -2.6890    8.6060   10.5610 C.ar      1 BOS        -0.0441
     19 C13        -2.8330    7.3230   11.1610 C.ar      1 BOS         0.0335
     20 S2         -3.7220    6.0140   10.2970 S.3       1 BOS        -0.1132
     21 H1         -4.3569   -0.7186   15.9781 H         1 BOS         0.1633
     22 H2         -5.9738   -1.1921   15.5763 H         1 BOS         0.1633
     23 H3         -3.2559    1.3205   15.6813 H         1 BOS         0.0596
     24 H4         -2.2813    3.2287   14.4185 H         1 BOS         0.0503
     25 H5         -6.1433    5.2016   14.4382 H         1 BOS         0.0503
     26 H6         -7.1032    3.2851   15.6999 H         1 BOS         0.0596
     27 H7         -4.3045    6.1736   13.3857 H         1 BOS         0.2251
     28 H8         -1.1313    7.9828   14.0899 H         1 BOS         0.0651
     29 H9         -0.9080   10.1998   13.0112 H         1 BOS         0.0571
     30 H10        -1.8973   10.6152   10.7515 H         1 BOS         0.0635
     31 H11        -3.1169    8.7881    9.5818 H         1 BOS         0.0577
     32 H12        -3.2650    5.8218    9.4193 H         1 BOS         0.1239
@<TRIPOS>BOND
     1    1    2 am 
     2    2    3 2  
     3    2    4 2  
     4    2    5 1  
     5    5    6 ar 
     6    5   10 ar 
     7    6    7 ar 
     8    7    8 ar 
     9    8    9 ar 
    10    8   11 1  
    11    9   10 ar 
    12   11   12 am 
    13   12   13 2  
    14   12   14 1  
    15   14   15 ar 
    16   14   19 ar 
    17   15   16 ar 
    18   16   17 ar 
    19   17   18 ar 
    20   18   19 ar 
    21   19   20 1  
    22    1   21 1  
    23    1   22 1  
    24    6   23 1  
    25    7   24 1  
    26    9   25 1  
    27   10   26 1  
    28   11   27 1  
    29   15   28 1  
    30   16   29 1  
    31   17   30 1  
    32   18   31 1  
    33   20   32 1  
@<TRIPOS>SUBSTRUCTURE
     1 BOS         1

