### 
### Created by X-TOOL on Mon Sep 10 21:12:54 2018
### 

@<TRIPOS>MOLECULE
2hdq_ligand
   11    11     1     0     0
SMALL
GAST_HUCK


@<TRIPOS>ATOM
      1 O8         30.8320   11.4570   22.1070 O.co2     1 C21        -0.5629
      2 C6         30.5120   10.2720   21.8270 C.2       1 C21         0.0679
      3 O7         31.2790    9.3350   22.0920 O.co2     1 C21        -0.5629
      4 C4         29.1990    9.9330   21.1810 C.2       1 C21         0.0610
      5 S5         28.1280   11.2510   20.8230 S.3       1 C21        -0.0322
      6 C3         28.6190    8.7280   20.7780 C.2       1 C21        -0.0626
      7 C2         27.3500    8.8930   20.2100 C.2       1 C21        -0.0715
      8 C1         26.9380   10.2120   20.1370 C.2       1 C21        -0.0028
      9 H1         29.1039    7.7598   20.8937 H         1 C21         0.0473
     10 H2         26.7431    8.0601   19.8581 H         1 C21         0.0423
     11 H3         25.9949   10.5458   19.7067 H         1 C21         0.0764
@<TRIPOS>BOND
     1    1    2 ar 
     2    2    3 ar 
     3    2    4 1  
     4    4    5 1  
     5    4    6 2  
     6    5    8 1  
     7    6    7 1  
     8    7    8 2  
     9    6    9 1  
    10    7   10 1  
    11    8   11 1  
@<TRIPOS>SUBSTRUCTURE
     1 C21         1

