### 
### Created by X-TOOL on Mon Sep 10 21:12:54 2018
### 

@<TRIPOS>MOLECULE
2hdr_ligand
   17    17     1     0     0
SMALL
GAST_HUCK


@<TRIPOS>ATOM
      1 C3         19.9420   -8.7900    4.2420 C.ar      1 4A3        -0.0487
      2 C5         18.1030   -7.2850    4.7000 C.ar      1 4A3        -0.0123
      3 C8         17.4990   -5.9130    4.6980 C.2       1 4A3         0.0517
      4 O9         17.1540  -10.6860    5.6590 O.3       1 4A3        -0.3382
      5 C2         19.1820   -9.8580    4.7230 C.ar      1 4A3         0.0688
      6 C4         19.4040   -7.5010    4.2310 C.ar      1 4A3        -0.0704
      7 C6         17.3530   -8.3590    5.1800 C.ar      1 4A3        -0.0306
      8 C7         17.8940   -9.6410    5.1860 C.ar      1 4A3         0.1088
      9 O10        16.3350   -5.7700    5.1300 O.co2     1 4A3        -0.5643
     10 O11        18.1630   -4.9450    4.2690 O.co2     1 4A3        -0.5643
     11 N1         19.6990  -11.1110    4.7370 N.pl3     1 4A3        -0.3383
     12 H1         20.9485   -8.9610    3.8775 H         1 4A3         0.0490
     13 H2         16.3017  -10.3698    5.9348 H         1 4A3         0.2436
     14 H3         19.9927   -6.6698    3.8601 H         1 4A3         0.0525
     15 H4         16.3471   -8.1945    5.5489 H         1 4A3         0.0533
     16 H5         20.6559  -11.2772    4.3939 H         1 4A3         0.1697
     17 H6         19.1350  -11.8969    5.0907 H         1 4A3         0.1697
@<TRIPOS>BOND
     1    5    1 ar 
     2    1    6 ar 
     3    2    3 1  
     4    6    2 ar 
     5    2    7 ar 
     6    3    9 ar 
     7    3   10 ar 
     8    8    4 1  
     9    5    8 ar 
    10    5   11 1  
    11    7    8 ar 
    12    1   12 1  
    13    4   13 1  
    14    6   14 1  
    15    7   15 1  
    16   11   16 1  
    17   11   17 1  
@<TRIPOS>SUBSTRUCTURE
     1 4A3         1

