### 
### Created by X-TOOL on Mon Sep 10 21:12:53 2018
### 

@<TRIPOS>MOLECULE
2hds_ligand
   22    22     1     0     0
SMALL
GAST_HUCK


@<TRIPOS>ATOM
      1 C3         27.3900    9.1420   20.1840 C.ar      1 4MB        -0.0415
      2 C5         29.2650   10.3480   21.0530 C.ar      1 4MB        -0.0075
      3 N1         25.6570   10.2090   18.9640 N.am      1 4MB        -0.1895
      4 C2         26.8580   10.2810   19.6600 C.ar      1 4MB         0.0657
      5 C4         28.6120    9.1760   20.8460 C.ar      1 4MB        -0.0635
      6 C6         30.5540   10.4580   21.7800 C.2       1 4MB         0.0515
      7 C9         28.7150   11.5380   20.5230 C.ar      1 4MB        -0.0635
      8 C12        24.1780   12.1270   20.0940 C.3       1 4MB         0.0790
      9 C10        27.5350   11.4980   19.7960 C.ar      1 4MB        -0.0415
     10 O7         31.1890    9.3810   22.0130 O.co2     1 4MB        -0.5654
     11 O8         31.0120   11.5810   22.1260 O.co2     1 4MB        -0.5654
     12 S11        24.6950   11.4380   18.5990 S.o2      1 4MB         0.0580
     13 O14        25.4200   12.4650   17.9240 O.2       1 4MB        -0.1499
     14 O13        23.5570   10.8780   17.9000 O.2       1 4MB        -0.1499
     15 H1         26.8573    8.2032   20.0843 H         1 4MB         0.0491
     16 H2         25.3646    9.3018   18.6614 H         1 4MB         0.2176
     17 H3         29.0507    8.2512   21.2029 H         1 4MB         0.0606
     18 H4         29.2175   12.4846   20.6856 H         1 4MB         0.0606
     19 H5         23.5117   12.9791   19.8940 H         1 4MB         0.0488
     20 H6         25.0549   12.4725   20.6612 H         1 4MB         0.0488
     21 H7         23.6378   11.3688   20.6798 H         1 4MB         0.0488
     22 H8         27.1417   12.3986   19.3385 H         1 4MB         0.0491
@<TRIPOS>BOND
     1    1    4 ar 
     2    1    5 ar 
     3    5    2 ar 
     4    2    6 1  
     5    2    7 ar 
     6    4    3 1  
     7    3   12 am 
     8    4    9 ar 
     9    6   10 ar 
    10    6   11 ar 
    11    7    9 ar 
    12   12    8 1  
    13   12   13 2  
    14   12   14 2  
    15    1   15 1  
    16    3   16 1  
    17    5   17 1  
    18    7   18 1  
    19    8   19 1  
    20    8   20 1  
    21    8   21 1  
    22    9   22 1  
@<TRIPOS>SUBSTRUCTURE
     1 4MB         1

