### 
### Created by X-TOOL on Sun Sep  9 21:50:20 2018
### 

@<TRIPOS>MOLECULE
2hdu_ligand
   18    18     1     0     0
SMALL
GAST_HUCK


@<TRIPOS>ATOM
      1 O9         21.9940    6.2380   16.6280 O.co2     1 NON        -0.5761
      2 C7         20.7940    6.6220   16.6310 C.2       1 NON         0.0293
      3 O8         20.1930    7.0820   17.6430 O.co2     1 NON        -0.5761
      4 C3         20.0070    6.5430   15.3580 C.2       1 NON         0.0070
      5 C4         18.6730    6.9590   15.2620 C.2       1 NON        -0.0927
      6 C5         18.0900    6.8180   14.0060 C.2       1 NON        -0.0284
      7 S6         19.2030    6.1690   12.8640 S.3       1 NON        -0.0185
      8 C2         20.4540    6.0510   14.0270 C.2       1 NON         0.1441
      9 N1         21.6860    5.5730   13.7410 N.am      1 NON        -0.2128
     10 C13        22.0820    5.1270   12.5400 C.2       1 NON         0.2088
     11 O14        21.3800    5.0920   11.5450 O.2       1 NON        -0.3813
     12 C12        23.4960    4.6360   12.4920 C.3       1 NON         0.0334
     13 H1         18.1285    7.3655   16.1130 H         1 NON         0.0355
     14 H2         17.0598    7.0846   13.7748 H         1 NON         0.0483
     15 H3         22.3549    5.5503   14.4840 H         1 NON         0.2374
     16 H4         23.7304    4.2922   11.4737 H         1 NON         0.0474
     17 H5         23.6186    3.8015   13.1980 H         1 NON         0.0474
     18 H6         24.1777    5.4537   12.7688 H         1 NON         0.0474
@<TRIPOS>BOND
     1    1    2 ar 
     2    2    3 ar 
     3    2    4 1  
     4    4    5 1  
     5    4    8 2  
     6    5    6 2  
     7    6    7 1  
     8    7    8 1  
     9    8    9 1  
    10    9   10 am 
    11   10   11 2  
    12   10   12 1  
    13    5   13 1  
    14    6   14 1  
    15    9   15 1  
    16   12   16 1  
    17   12   17 1  
    18   12   18 1  
@<TRIPOS>SUBSTRUCTURE
     1 NON         1

