### 
### Created by X-TOOL on Mon Sep 10 21:12:54 2018
### 

@<TRIPOS>MOLECULE
2hfp_ligand
   63    67     1     0     0
SMALL
GAST_HUCK


@<TRIPOS>ATOM
      1 O52        18.6300  -12.1930    2.2430 O.2       1 NSI        -0.1456
      2 S48        19.8850  -12.8410    2.3100 S.o2      1 NSI         0.0901
      3 O50        19.6860  -14.1030    2.9310 O.2       1 NSI        -0.1456
      4 C51        20.3800  -12.9830    0.7680 C.ar      1 NSI         0.1131
      5 C55        20.0170  -12.0190   -0.1920 C.ar      1 NSI        -0.0347
      6 C56        20.4520  -12.1560   -1.5110 C.ar      1 NSI        -0.0599
      7 C53        21.2590  -13.2390   -1.9100 C.ar      1 NSI        -0.0616
      8 C57        21.6340  -14.1850   -0.9550 C.ar      1 NSI        -0.0599
      9 C54        21.1880  -14.0430    0.3650 C.ar      1 NSI        -0.0347
     10 N17        21.0210  -12.0120    2.9340 N.am      1 NSI        -0.1524
     11 C15        21.2540  -11.9070    4.2260 C.2       1 NSI         0.2470
     12 O16        20.3150  -11.8370    5.0300 O.2       1 NSI        -0.3838
     13 C13        22.5620  -11.3060    4.6190 C.2       1 NSI         0.1470
     14 N10        22.7430  -10.3940    5.6120 N.pl3     1 NSI        -0.2391
     15 C12        21.6530   -9.7380    6.3450 C.3       1 NSI         0.0921
     16 C34        21.4350   -8.3340    5.8210 C.ar      1 NSI         0.0149
     17 C37        22.1530   -7.8060    4.7660 C.ar      1 NSI        -0.0290
     18 C38        21.9180   -6.4880    4.3520 C.ar      1 NSI        -0.0377
     19 C36        20.4830   -7.5450    6.4930 C.ar      1 NSI        -0.0282
     20 C39        20.2240   -6.2510    6.0640 C.ar      1 NSI         0.0410
     21 C43        19.2010   -5.4210    6.7960 C.3       1 NSI         0.3750
     22 F47        18.1640   -6.0570    7.2290 F         1 NSI        -0.2204
     23 F46        19.7160   -4.9140    7.8500 F         1 NSI        -0.2204
     24 F45        18.8200   -4.4300    6.0920 F         1 NSI        -0.2204
     25 C35        20.9260   -5.7280    4.9950 C.ar      1 NSI        -0.0377
     26 C6         24.0480  -10.1710    5.7600 C.ar      1 NSI         0.0743
     27 C2         24.7620   -9.3550    6.6540 C.ar      1 NSI        -0.0393
     28 C5         26.1510   -9.3320    6.6300 C.ar      1 NSI        -0.0734
     29 C4         26.8200  -10.1560    5.7320 C.ar      1 NSI        -0.0757
     30 C1         26.1190  -10.9990    4.8420 C.ar      1 NSI        -0.0696
     31 C7         23.7910  -11.7290    4.1010 C.2       1 NSI         0.0031
     32 C3         24.7210  -10.9780    4.8370 C.ar      1 NSI        -0.0075
     33 C14        24.0360  -12.7150    3.0990 C.ar      1 NSI        -0.0412
     34 C20        24.6700  -12.3090    1.9430 C.ar      1 NSI        -0.0677
     35 C21        25.0560  -13.2180    0.9460 C.ar      1 NSI        -0.0353
     36 C19        23.7830  -14.1030    3.2470 C.ar      1 NSI        -0.0677
     37 C22        24.1610  -15.0320    2.2410 C.ar      1 NSI        -0.0353
     38 C18        24.8180  -14.5680    1.0780 C.ar      1 NSI         0.0888
     39 O27        25.2390  -15.3930    0.0480 O.3       1 NSI        -0.3224
     40 C28        25.0830  -16.7950    0.2370 C.3       1 NSI         0.0591
     41 H1         19.4016  -11.1732    0.0925 H         1 NSI         0.0637
     42 H2         20.1623  -11.4124   -2.2446 H         1 NSI         0.0618
     43 H3         21.5829  -13.3360   -2.9399 H         1 NSI         0.0618
     44 H4         22.2646  -15.0219   -1.2323 H         1 NSI         0.0618
     45 H5         21.4822  -14.7845    1.0989 H         1 NSI         0.0637
     46 H6         21.6275  -11.5161    2.3125 H         1 NSI         0.2133
     47 H7         21.9117   -9.6902    7.4131 H         1 NSI         0.0771
     48 H8         20.7285  -10.3202    6.2173 H         1 NSI         0.0771
     49 H9         22.8969   -8.4099    4.2591 H         1 NSI         0.0804
     50 H10        22.4967   -6.0582    3.5424 H         1 NSI         0.0683
     51 H11        19.9512   -7.9487    7.3470 H         1 NSI         0.0781
     52 H12        20.7099   -4.7235    4.6495 H         1 NSI         0.0802
     53 H13        24.2255   -8.7395    7.3670 H         1 NSI         0.0552
     54 H14        26.7034   -8.6829    7.2997 H         1 NSI         0.0554
     55 H15        27.9039  -10.1512    5.7146 H         1 NSI         0.0524
     56 H16        26.6592  -11.6556    4.1696 H         1 NSI         0.0562
     57 H17        24.8765  -11.2545    1.8003 H         1 NSI         0.0564
     58 H18        25.5512  -12.8504    0.0545 H         1 NSI         0.0539
     59 H19        23.2920  -14.4614    4.1445 H         1 NSI         0.0564
     60 H20        23.9476  -16.0877    2.3638 H         1 NSI         0.0539
     61 H21        25.4547  -17.3282   -0.6504 H         1 NSI         0.0577
     62 H22        24.0185  -17.0287    0.3860 H         1 NSI         0.0577
     63 H23        25.6552  -17.1117    1.1214 H         1 NSI         0.0577
@<TRIPOS>BOND
     1    1    2 2  
     2    2    3 2  
     3    2    4 1  
     4    2   10 am 
     5    4    5 ar 
     6    4    9 ar 
     7    5    6 ar 
     8    6    7 ar 
     9    7    8 ar 
    10    8    9 ar 
    11   10   11 am 
    12   11   12 2  
    13   11   13 1  
    14   13   14 1  
    15   13   31 2  
    16   14   15 1  
    17   14   26 1  
    18   15   16 1  
    19   16   17 ar 
    20   16   19 ar 
    21   17   18 ar 
    22   18   25 ar 
    23   19   20 ar 
    24   20   21 1  
    25   20   25 ar 
    26   21   22 1  
    27   21   23 1  
    28   21   24 1  
    29   26   27 ar 
    30   26   32 ar 
    31   27   28 ar 
    32   28   29 ar 
    33   29   30 ar 
    34   30   32 ar 
    35   31   32 1  
    36   31   33 1  
    37   33   34 ar 
    38   33   36 ar 
    39   34   35 ar 
    40   35   38 ar 
    41   36   37 ar 
    42   37   38 ar 
    43   38   39 1  
    44   39   40 1  
    45    5   41 1  
    46    6   42 1  
    47    7   43 1  
    48    8   44 1  
    49    9   45 1  
    50   10   46 1  
    51   15   47 1  
    52   15   48 1  
    53   17   49 1  
    54   18   50 1  
    55   19   51 1  
    56   25   52 1  
    57   27   53 1  
    58   28   54 1  
    59   29   55 1  
    60   30   56 1  
    61   34   57 1  
    62   35   58 1  
    63   36   59 1  
    64   37   60 1  
    65   40   61 1  
    66   40   62 1  
    67   40   63 1  
@<TRIPOS>SUBSTRUCTURE
     1 NSI         1

