### 
### Created by X-TOOL on Mon Sep 10 21:12:53 2018
### 

@<TRIPOS>MOLECULE
2hh5_ligand
   70    72     1     0     0
SMALL
GAST_HUCK


@<TRIPOS>ATOM
      1 O5         14.6730   -1.1680   -4.4990 O.2       1 GNQ        -0.1721
      2 S          14.4340   -2.2650   -5.3770 S.o2      1 GNQ        -0.0172
      3 O4         13.3910   -2.1160   -6.3140 O.2       1 GNQ        -0.1721
      4 C17        14.2960   -3.7040   -4.5030 C.3       1 GNQ         0.0995
      5 C18        13.1660   -3.6720   -3.5070 C.ar      1 GNQ        -0.0221
      6 C20        11.9170   -4.2050   -3.8220 C.ar      1 GNQ        -0.0588
      7 C21        10.8990   -4.1590   -2.8810 C.ar      1 GNQ        -0.0685
      8 C22        11.1390   -3.5950   -1.6420 C.ar      1 GNQ        -0.0687
      9 C23        12.3780   -3.0770   -1.3200 C.ar      1 GNQ        -0.0685
     10 C19        13.4000   -3.1050   -2.2650 C.ar      1 GNQ        -0.0588
     11 C16        15.8400   -2.4890   -6.3140 C.3       1 GNQ         0.1077
     12 CA         15.6420   -3.2530   -7.6340 C.3       1 GNQ         0.1505
     13 N          15.5470   -4.6770   -7.3600 N.am      1 GNQ        -0.2501
     14 C11        15.2180   -5.4600   -8.3910 C.2       1 GNQ         0.2623
     15 O3         14.9720   -4.9440   -9.4720 O.2       1 GNQ        -0.4005
     16 N3         15.1590   -6.7850   -8.3010 N.am      1 GNQ        -0.2550
     17 C15        14.7600   -7.5830   -9.4650 C.3       1 GNQ         0.0577
     18 C14        15.6370   -8.8070   -9.5840 C.3       1 GNQ         0.0678
     19 O2         15.4990   -9.5630   -8.3880 O.3       1 GNQ        -0.3758
     20 C13        16.0570   -8.8220   -7.2860 C.3       1 GNQ         0.0678
     21 C12        15.3570   -7.5040   -7.0510 C.3       1 GNQ         0.0577
     22 C          16.8260   -3.0280   -8.5700 C.2       1 GNQ         0.2033
     23 O          17.9360   -3.4500   -8.2840 O.2       1 GNQ        -0.3945
     24 N2         16.5950   -2.3290   -9.7040 N.am      1 GNQ        -0.2804
     25 C9         17.6370   -2.0440  -10.6530 C.3       1 GNQ         0.0582
     26 C10        17.9450   -3.2960  -11.4550 C.3       1 GNQ        -0.0402
     27 C8         17.2050   -0.9100  -11.5950 C.3       1 GNQ         0.0444
     28 N1         16.5480    0.2570  -10.9340 N.pl3     1 GNQ        -0.3265
     29 C7         16.0730    1.1760  -11.8060 C.ar      1 GNQ         0.0269
     30 C6         14.7270    1.5080  -11.8150 C.ar      1 GNQ        -0.0526
     31 C5         14.2200    2.4400  -12.7070 C.ar      1 GNQ        -0.0440
     32 C4         16.9100    1.7530  -12.7660 C.ar      1 GNQ        -0.0526
     33 C3         16.3960    2.6880  -13.6650 C.ar      1 GNQ        -0.0440
     34 C2         15.0300    3.0280  -13.6450 C.ar      1 GNQ         0.0869
     35 O1         14.4170    3.8990  -14.5290 O.3       1 GNQ        -0.2348
     36 C1         15.0880    4.9340  -15.2010 C.3       1 GNQ         0.5439
     37 F1         15.8910    4.3830  -16.1210 F         1 GNQ        -0.1403
     38 F2         14.1960    5.7470  -15.7220 F         1 GNQ        -0.1403
     39 F3         15.7390    5.6490  -14.3110 F         1 GNQ        -0.1403
     40 H1         15.2375   -3.8789   -3.9618 H         1 GNQ         0.0663
     41 H2         14.1200   -4.5292   -5.2088 H         1 GNQ         0.0663
     42 H3         11.7428   -4.6517   -4.7942 H         1 GNQ         0.0557
     43 H4          9.9209   -4.5630   -3.1158 H         1 GNQ         0.0599
     44 H5         10.3403   -3.5587   -0.9100 H         1 GNQ         0.0559
     45 H6         12.5535   -2.6517   -0.3385 H         1 GNQ         0.0599
     46 H7         14.3719   -2.6861   -2.0305 H         1 GNQ         0.0557
     47 H8         16.5673   -3.0467   -5.7057 H         1 GNQ         0.0550
     48 H9         16.2482   -1.4964   -6.5551 H         1 GNQ         0.0550
     49 H10        14.7183   -2.9051   -8.1195 H         1 GNQ         0.0814
     50 H11        15.7187   -5.0507   -6.4485 H         1 GNQ         0.1878
     51 H12        14.8612   -6.9737  -10.3752 H         1 GNQ         0.0542
     52 H13        13.7122   -7.8968   -9.3485 H         1 GNQ         0.0542
     53 H14        16.6861   -8.5035   -9.7150 H         1 GNQ         0.0580
     54 H15        15.3197   -9.4114  -10.4465 H         1 GNQ         0.0580
     55 H16        17.1180   -8.6233   -7.4977 H         1 GNQ         0.0580
     56 H17        15.9729   -9.4317   -6.3743 H         1 GNQ         0.0580
     57 H18        14.3779   -7.6950   -6.5876 H         1 GNQ         0.0542
     58 H19        15.9686   -6.8880   -6.3753 H         1 GNQ         0.0542
     59 H20        15.6691   -1.9994   -9.8888 H         1 GNQ         0.1855
     60 H21        18.5415   -1.7321  -10.1103 H         1 GNQ         0.0572
     61 H22        18.7421   -3.0792  -12.1814 H         1 GNQ         0.0252
     62 H23        17.0402   -3.6209  -11.9896 H         1 GNQ         0.0252
     63 H24        18.2759   -4.0949  -10.7751 H         1 GNQ         0.0252
     64 H25        16.4980   -1.3276  -12.3269 H         1 GNQ         0.0529
     65 H26        18.1006   -0.5437  -12.1181 H         1 GNQ         0.0529
     66 H27        16.4645    0.3531   -9.9119 H         1 GNQ         0.1723
     67 H28        14.0573    1.0289  -11.1100 H         1 GNQ         0.0489
     68 H29        13.1705    2.7075  -12.6628 H         1 GNQ         0.0511
     69 H30        17.9566    1.4743  -12.8117 H         1 GNQ         0.0489
     70 H31        17.0552    3.1574  -14.3862 H         1 GNQ         0.0511
@<TRIPOS>BOND
     1    1    2 2  
     2    2    3 2  
     3    2    4 1  
     4    2   11 1  
     5    4    5 1  
     6    5    6 ar 
     7    5   10 ar 
     8    6    7 ar 
     9    7    8 ar 
    10    8    9 ar 
    11    9   10 ar 
    12   11   12 1  
    13   12   13 1  
    14   12   22 1  
    15   13   14 am 
    16   14   15 2  
    17   14   16 am 
    18   16   17 1  
    19   16   21 1  
    20   17   18 1  
    21   18   19 1  
    22   19   20 1  
    23   20   21 1  
    24   22   23 2  
    25   22   24 am 
    26   24   25 1  
    27   25   26 1  
    28   25   27 1  
    29   27   28 1  
    30   28   29 1  
    31   29   30 ar 
    32   29   32 ar 
    33   30   31 ar 
    34   31   34 ar 
    35   32   33 ar 
    36   33   34 ar 
    37   34   35 1  
    38   35   36 1  
    39   36   37 1  
    40   36   38 1  
    41   36   39 1  
    42    4   40 1  
    43    4   41 1  
    44    6   42 1  
    45    7   43 1  
    46    8   44 1  
    47    9   45 1  
    48   10   46 1  
    49   11   47 1  
    50   11   48 1  
    51   12   49 1  
    52   13   50 1  
    53   17   51 1  
    54   17   52 1  
    55   18   53 1  
    56   18   54 1  
    57   20   55 1  
    58   20   56 1  
    59   21   57 1  
    60   21   58 1  
    61   24   59 1  
    62   25   60 1  
    63   26   61 1  
    64   26   62 1  
    65   26   63 1  
    66   27   64 1  
    67   27   65 1  
    68   28   66 1  
    69   30   67 1  
    70   31   68 1  
    71   32   69 1  
    72   33   70 1  
@<TRIPOS>SUBSTRUCTURE
     1 GNQ         1

