### 
### Created by X-TOOL on Mon Sep 10 21:12:54 2018
### 

@<TRIPOS>MOLECULE
2hha_ligand
   45    47     1     0     0
SMALL
GAST_HUCK


@<TRIPOS>ATOM
      1 C2         38.4020   51.0630   35.1160 C.3       1 3TP         0.1052
      2 C3         37.0120   51.0180   35.8440 C.2       1 3TP         0.3052
      3 O5         36.6180   51.9990   36.4760 O.2       1 3TP        -0.3464
      4 C10        36.6780   48.6550   34.9980 C.2       1 3TP         0.0411
      5 C11        35.5290   47.6620   35.1590 C.2       1 3TP        -0.0900
      6 C12        34.4530   48.3520   36.0060 C.2       1 3TP        -0.0900
      7 C13        34.9680   49.7490   36.3440 C.2       1 3TP         0.0411
      8 C20        40.0500   50.3780   36.8840 C.2       1 3TP         0.2288
      9 C22        40.6580   49.0770   38.4290 C.2       1 3TP         0.1087
     10 C25        40.9620   48.5040   39.7470 C.ar      1 3TP         0.0008
     11 C26        40.0550   48.7580   40.8130 C.ar      1 3TP        -0.0511
     12 C27        40.2580   48.1900   42.0740 C.ar      1 3TP        -0.0365
     13 C29        42.3150   47.1040   41.2420 C.ar      1 3TP        -0.0365
     14 C30        42.0990   47.6780   39.9640 C.ar      1 3TP        -0.0511
     15 C1         39.5680   51.5510   36.0190 C.3       1 3TP         0.1148
     16 N4         36.2740   49.8650   35.7310 N.am      1 3TP        -0.1918
     17 N6         38.1850   51.9180   33.9660 N.4       1 3TP         0.2418
     18 N21        40.2190   50.3410   38.2170 N.2       1 3TP        -0.2731
     19 N23        40.7570   48.3590   37.2740 N.2       1 3TP        -0.1213
     20 O24        40.3510   49.2300   36.2410 O.3       1 3TP        -0.1317
     21 C28        41.3770   47.3580   42.2880 C.ar      1 3TP         0.0876
     22 S34        41.5720   46.6140   43.8760 S.o2      1 3TP        -0.0060
     23 O35        41.7080   45.2180   43.7070 O.2       1 3TP        -0.1697
     24 O36        40.4330   47.0260   44.6760 O.2       1 3TP        -0.1697
     25 C37        43.0480   47.3780   44.5050 C.3       1 3TP         0.0596
     26 C44        40.7430   52.1060   35.1530 C.3       1 3TP        -0.0357
     27 H1         38.6568   50.0505   34.7698 H         1 3TP         0.1157
     28 H2         37.6072   48.4992   34.4518 H         1 3TP         0.0802
     29 H3         35.4826   46.6540   34.7495 H         1 3TP         0.0232
     30 H4         33.4985   47.9248   36.3101 H         1 3TP         0.0232
     31 H5         34.4538   50.5087   36.9309 H         1 3TP         0.0802
     32 H6         39.1970   49.3990   40.6456 H         1 3TP         0.0623
     33 H7         39.5614   48.3872   42.8808 H         1 3TP         0.0636
     34 H8         43.1823   46.4794   41.4230 H         1 3TP         0.0636
     35 H9         42.7968   47.4883   39.1565 H         1 3TP         0.0623
     36 H10        39.2018   52.3550   36.6743 H         1 3TP         0.0659
     37 H11        37.4206   51.5560   33.4177 H         1 3TP         0.2018
     38 H12        39.0206   51.9421   33.4028 H         1 3TP         0.2018
     39 H13        37.9628   52.8505   34.2777 H         1 3TP         0.2018
     40 H14        43.2676   46.9814   45.5073 H         1 3TP         0.0468
     41 H15        42.9003   48.4663   44.5656 H         1 3TP         0.0468
     42 H16        43.8898   47.1591   43.8316 H         1 3TP         0.0468
     43 H17        41.5558   52.4451   35.8120 H         1 3TP         0.0267
     44 H18        40.3848   52.9517   34.5477 H         1 3TP         0.0267
     45 H19        41.1162   51.3121   34.4893 H         1 3TP         0.0267
@<TRIPOS>BOND
     1    1    2 1  
     2   15    1 1  
     3    1   17 1  
     4    2    3 2  
     5    2   16 am 
     6    4    5 2  
     7   16    4 am 
     8    6    5 1  
     9    7    6 2  
    10   16    7 am 
    11    8   15 1  
    12   18    8 2  
    13    8   20 1  
    14    9   10 1  
    15    9   18 1  
    16    9   19 2  
    17   10   11 ar 
    18   10   14 ar 
    19   11   12 ar 
    20   12   21 ar 
    21   14   13 ar 
    22   13   21 ar 
    23   15   26 1  
    24   19   20 1  
    25   21   22 1  
    26   22   23 2  
    27   22   24 2  
    28   22   25 1  
    29    1   27 1  
    30    4   28 1  
    31    5   29 1  
    32    6   30 1  
    33    7   31 1  
    34   11   32 1  
    35   12   33 1  
    36   13   34 1  
    37   14   35 1  
    38   15   36 1  
    39   17   37 1  
    40   17   38 1  
    41   17   39 1  
    42   25   40 1  
    43   25   41 1  
    44   25   42 1  
    45   26   43 1  
    46   26   44 1  
    47   26   45 1  
@<TRIPOS>SUBSTRUCTURE
     1 3TP         1

