### 
### Created by X-TOOL on Mon Sep 10 21:12:55 2018
### 

@<TRIPOS>MOLECULE
2hhn_ligand
   70    72     1     0     0
SMALL
GAST_HUCK


@<TRIPOS>ATOM
      1 O5         34.1220   27.9400   19.3370 O.2       1 GNQ        -0.1721
      2 S          33.9880   28.4750   18.0000 S.o2      1 GNQ        -0.0172
      3 O4         34.0520   29.9080   17.8990 O.2       1 GNQ        -0.1721
      4 C17        32.6020   27.8750   17.2930 C.3       1 GNQ         0.0995
      5 C18        31.3200   28.3370   17.9180 C.ar      1 GNQ        -0.0221
      6 C20        30.7470   29.5180   17.4540 C.ar      1 GNQ        -0.0588
      7 C21        29.5420   29.9710   17.9850 C.ar      1 GNQ        -0.0685
      8 C22        28.9300   29.2080   18.9620 C.ar      1 GNQ        -0.0687
      9 C23        29.5020   28.0230   19.4190 C.ar      1 GNQ        -0.0685
     10 C19        30.7110   27.5610   18.8970 C.ar      1 GNQ        -0.0588
     11 C16        35.2280   27.7880   17.1020 C.3       1 GNQ         0.1077
     12 CA         35.5670   28.5690   15.8250 C.3       1 GNQ         0.1505
     13 N          34.5390   28.3870   14.7760 N.am      1 GNQ        -0.2501
     14 C11        34.6030   29.1490   13.6610 C.2       1 GNQ         0.2623
     15 O3         35.5030   29.9920   13.5350 O.2       1 GNQ        -0.4005
     16 N3         33.7260   28.9910   12.6560 N.am      1 GNQ        -0.2550
     17 C15        33.8170   29.8720   11.4820 C.3       1 GNQ         0.0577
     18 C14        33.5300   29.0900   10.2090 C.3       1 GNQ         0.0678
     19 O2         32.2310   28.5240   10.3400 O.3       1 GNQ        -0.3758
     20 C13        32.2790   27.4860   11.3390 C.3       1 GNQ         0.0678
     21 C12        32.5760   28.0830   12.7180 C.3       1 GNQ         0.0577
     22 C          36.8460   28.0560   15.2090 C.2       1 GNQ         0.2033
     23 O          36.8530   26.9900   14.6090 O.2       1 GNQ        -0.3945
     24 N2         37.9390   28.8090   15.3160 N.am      1 GNQ        -0.2804
     25 C9         39.1680   28.3760   14.6600 C.3       1 GNQ         0.0582
     26 C10        39.2250   29.1560   13.3420 C.3       1 GNQ        -0.0402
     27 C8         40.3760   28.6320   15.5440 C.3       1 GNQ         0.0444
     28 N1         41.2080   29.5600   14.7840 N.pl3     1 GNQ        -0.3265
     29 C7         42.5290   29.6450   15.0440 C.ar      1 GNQ         0.0269
     30 C6         42.9240   29.4380   16.3410 C.ar      1 GNQ        -0.0526
     31 C5         44.2510   29.5220   16.6440 C.ar      1 GNQ        -0.0440
     32 C4         43.4830   29.9300   14.0630 C.ar      1 GNQ        -0.0526
     33 C3         44.8400   30.0120   14.4000 C.ar      1 GNQ        -0.0440
     34 C2         45.2510   29.7860   15.7140 C.ar      1 GNQ         0.0869
     35 O1         46.5770   29.8530   16.1350 O.3       1 GNQ        -0.2348
     36 C1         47.6720   28.9570   15.8070 C.3       1 GNQ         0.5439
     37 F1         47.5130   27.7430   16.3110 F         1 GNQ        -0.1403
     38 F2         47.7860   28.8460   14.4970 F         1 GNQ        -0.1403
     39 F3         48.8070   29.4480   16.2940 F         1 GNQ        -0.1403
     40 H1         32.6353   26.7773   17.3547 H         1 GNQ         0.0663
     41 H2         32.5970   28.1829   16.2370 H         1 GNQ         0.0663
     42 H3         31.2413   30.0877   16.6755 H         1 GNQ         0.0557
     43 H4         29.0958   30.8972   17.6414 H         1 GNQ         0.0599
     44 H5         27.9863   29.5385   19.3807 H         1 GNQ         0.0559
     45 H6         29.0006   27.4512   20.1915 H         1 GNQ         0.0599
     46 H7         31.1568   26.6348   19.2411 H         1 GNQ         0.0557
     47 H8         34.9277   26.7689   16.8170 H         1 GNQ         0.0550
     48 H9         36.1291   27.7423   17.7312 H         1 GNQ         0.0550
     49 H10        35.6653   29.6356   16.0753 H         1 GNQ         0.0814
     50 H11        33.8098   27.7122   14.8899 H         1 GNQ         0.1878
     51 H12        34.8299   30.2973   11.4255 H         1 GNQ         0.0542
     52 H13        33.0829   30.6851   11.5812 H         1 GNQ         0.0542
     53 H14        34.2764   28.2921   10.0817 H         1 GNQ         0.0580
     54 H15        33.5607   29.7630    9.3395 H         1 GNQ         0.0580
     55 H16        33.0701   26.7679   11.0773 H         1 GNQ         0.0580
     56 H17        31.3091   26.9680   11.3700 H         1 GNQ         0.0580
     57 H18        31.6945   28.6409   13.0668 H         1 GNQ         0.0542
     58 H19        32.7973   27.2685   13.4234 H         1 GNQ         0.0542
     59 H20        37.9177   29.6607   15.8395 H         1 GNQ         0.1855
     60 H21        39.1167   27.2982   14.4462 H         1 GNQ         0.0572
     61 H22        40.1346   28.8770   12.7899 H         1 GNQ         0.0252
     62 H23        39.2419   30.2351   13.5549 H         1 GNQ         0.0252
     63 H24        38.3395   28.9158   12.7352 H         1 GNQ         0.0252
     64 H25        40.9191   27.6953   15.7379 H         1 GNQ         0.0529
     65 H26        40.0680   29.0819   16.4994 H         1 GNQ         0.0529
     66 H27        40.7874   30.1486   14.0508 H         1 GNQ         0.1723
     67 H28        42.1951   29.2119   17.1108 H         1 GNQ         0.0489
     68 H29        44.5455   29.3734   17.6766 H         1 GNQ         0.0511
     69 H30        43.1713   30.0883   13.0369 H         1 GNQ         0.0489
     70 H31        45.5728   30.2517   13.6380 H         1 GNQ         0.0511
@<TRIPOS>BOND
     1    1    2 2  
     2    2    3 2  
     3    2    4 1  
     4    2   11 1  
     5    4    5 1  
     6    5    6 ar 
     7    5   10 ar 
     8    6    7 ar 
     9    7    8 ar 
    10    8    9 ar 
    11    9   10 ar 
    12   11   12 1  
    13   12   13 1  
    14   12   22 1  
    15   13   14 am 
    16   14   15 2  
    17   14   16 am 
    18   16   17 1  
    19   16   21 1  
    20   17   18 1  
    21   18   19 1  
    22   19   20 1  
    23   20   21 1  
    24   22   23 2  
    25   22   24 am 
    26   24   25 1  
    27   25   26 1  
    28   25   27 1  
    29   27   28 1  
    30   28   29 1  
    31   29   30 ar 
    32   29   32 ar 
    33   30   31 ar 
    34   31   34 ar 
    35   32   33 ar 
    36   33   34 ar 
    37   34   35 1  
    38   35   36 1  
    39   36   37 1  
    40   36   38 1  
    41   36   39 1  
    42    4   40 1  
    43    4   41 1  
    44    6   42 1  
    45    7   43 1  
    46    8   44 1  
    47    9   45 1  
    48   10   46 1  
    49   11   47 1  
    50   11   48 1  
    51   12   49 1  
    52   13   50 1  
    53   17   51 1  
    54   17   52 1  
    55   18   53 1  
    56   18   54 1  
    57   20   55 1  
    58   20   56 1  
    59   21   57 1  
    60   21   58 1  
    61   24   59 1  
    62   25   60 1  
    63   26   61 1  
    64   26   62 1  
    65   26   63 1  
    66   27   64 1  
    67   27   65 1  
    68   28   66 1  
    69   30   67 1  
    70   31   68 1  
    71   32   69 1  
    72   33   70 1  
@<TRIPOS>SUBSTRUCTURE
     1 GNQ         1

