### 
### Created by X-TOOL on Mon Sep 10 21:12:55 2018
### 

@<TRIPOS>MOLECULE
2hiw_ligand
   52    55     1     0     0
SMALL
GAST_HUCK


@<TRIPOS>ATOM
      1 OAK        -0.7650    8.9120   34.6580 O.2       1 7MP        -0.3777
      2 CAH        -1.6310    8.0410   34.8830 C.2       1 7MP         0.3284
      3 NAG        -2.5920    8.1240   35.9480 N.am      1 7MP        -0.1845
      4 CAT        -2.5750    9.2780   36.8440 C.3       1 7MP         0.0505
      5 C4         -3.5800    7.0960   36.1450 C.ar      1 7MP         0.1500
      6 N3         -4.5140    7.1230   37.1120 N.ar      1 7MP        -0.2490
      7 C2         -5.3970    6.1060   37.2150 C.ar      1 7MP         0.1594
      8 NAS        -6.3110    6.1660   38.2060 N.pl3     1 7MP        -0.3106
      9 N1         -5.3860    5.0410   36.3630 N.ar      1 7MP        -0.2868
     10 C6         -4.4700    4.9620   35.3810 C.ar      1 7MP        -0.0010
     11 C5         -3.5640    6.0090   35.2800 C.ar      1 7MP         0.0428
     12 CAJ        -2.6130    6.2280   34.4880 C.3       1 7MP         0.0896
     13 NAI        -1.6620    6.9720   34.0960 N.am      1 7MP        -0.1960
     14 CAL        -0.7630    6.8270   33.0290 C.ar      1 7MP         0.0614
     15 CAQ        -1.0840    7.3470   31.7760 C.ar      1 7MP        -0.0384
     16 CAR        -2.4090    8.0310   31.5470 C.3       1 7MP        -0.0418
     17 CAP        -0.1760    7.2250   30.7230 C.ar      1 7MP        -0.0861
     18 CAO         1.0460    6.5970   30.9390 C.ar      1 7MP        -0.0628
     19 CAM         0.4590    6.2070   33.2470 C.ar      1 7MP        -0.0276
     20 CAN         1.3660    6.0800   32.1970 C.ar      1 7MP         0.0453
     21 NAU         2.5670    5.4710   32.3770 N.am      1 7MP        -0.2397
     22 CAV         3.0230    4.9250   33.5120 C.2       1 7MP         0.2375
     23 OAW         2.3800    4.9250   34.5490 O.2       1 7MP        -0.3731
     24 CAX         4.3950    4.2870   33.4570 C.ar      1 7MP         0.0849
     25 CBC         4.6880    3.1220   34.1780 C.ar      1 7MP        -0.0107
     26 CAY         5.3770    4.8680   32.6520 C.ar      1 7MP        -0.0141
     27 CAZ         6.6440    4.3040   32.5710 C.ar      1 7MP        -0.0272
     28 CBA         6.9270    3.1480   33.2970 C.ar      1 7MP        -0.0278
     29 CBB         5.9630    2.5480   34.1070 C.ar      1 7MP         0.0540
     30 CBD         6.3000    1.2910   34.8840 C.3       1 7MP         0.3783
     31 FBE         6.1140    1.5190   36.1700 F         1 7MP        -0.2197
     32 FBF         7.5780    0.9680   34.7170 F         1 7MP        -0.2197
     33 FBG         5.5250    0.2770   34.4930 F         1 7MP        -0.2197
     34 H1         -1.7618    9.9581   36.5505 H         1 7MP         0.0561
     35 H2         -2.4132    8.9375   37.8774 H         1 7MP         0.0561
     36 H3         -3.5371    9.8072   36.7787 H         1 7MP         0.0561
     37 H4         -6.3203    6.9698   38.8500 H         1 7MP         0.1803
     38 H5         -6.9993    5.4080   38.3184 H         1 7MP         0.1803
     39 H6         -4.4407    4.1193   34.6997 H         1 7MP         0.0758
     40 H7         -3.1657    6.1520   33.5400 H         1 7MP         0.0716
     41 H8         -2.0419    5.3028   34.6546 H         1 7MP         0.0716
     42 H9         -2.4713    8.3691   30.5021 H         1 7MP         0.0336
     43 H10        -2.4951    8.8979   32.2186 H         1 7MP         0.0336
     44 H11        -3.2267    7.3248   31.7532 H         1 7MP         0.0336
     45 H12        -0.4218    7.6173   29.7428 H         1 7MP         0.0479
     46 H13         1.7560    6.5079   30.1247 H         1 7MP         0.0363
     47 H14         0.7070    5.8231   34.2300 H         1 7MP         0.0361
     48 H15         3.1717    5.4258   31.5818 H         1 7MP         0.2228
     49 H16         3.9235    2.6626   34.7941 H         1 7MP         0.0912
     50 H17         5.1493    5.7646   32.0869 H         1 7MP         0.0902
     51 H18         7.4061    4.7589   31.9486 H         1 7MP         0.0708
     52 H19         7.9151    2.7071   33.2307 H         1 7MP         0.0883
@<TRIPOS>BOND
     1    1    2 2  
     2    2    3 am 
     3    2   13 am 
     4    3    4 1  
     5    3    5 1  
     6    5    6 ar 
     7    5   11 ar 
     8    6    7 ar 
     9    7    8 1  
    10    7    9 ar 
    11    9   10 ar 
    12   10   11 ar 
    13   11   12 1  
    14   12   13 1  
    15   13   14 1  
    16   14   15 ar 
    17   14   19 ar 
    18   15   16 1  
    19   15   17 ar 
    20   17   18 ar 
    21   18   20 ar 
    22   19   20 ar 
    23   20   21 1  
    24   21   22 am 
    25   22   23 2  
    26   22   24 1  
    27   24   25 ar 
    28   24   26 ar 
    29   25   29 ar 
    30   26   27 ar 
    31   27   28 ar 
    32   28   29 ar 
    33   29   30 1  
    34   30   31 1  
    35   30   32 1  
    36   30   33 1  
    37    4   34 1  
    38    4   35 1  
    39    4   36 1  
    40    8   37 1  
    41    8   38 1  
    42   10   39 1  
    43   12   40 1  
    44   12   41 1  
    45   16   42 1  
    46   16   43 1  
    47   16   44 1  
    48   17   45 1  
    49   18   46 1  
    50   19   47 1  
    51   21   48 1  
    52   25   49 1  
    53   26   50 1  
    54   27   51 1  
    55   28   52 1  
@<TRIPOS>SUBSTRUCTURE
     1 7MP         1

