### 
### Created by X-TOOL on Mon Sep 10 21:12:55 2018
### 

@<TRIPOS>MOLECULE
2hj4_ligand
   20    20     1     0     0
SMALL
GAST_HUCK


@<TRIPOS>ATOM
      1 C6         23.1590   17.2320   27.8430 C.ar      1 PNZ         0.1925
      2 C7         23.1590   17.2890   29.2170 C.ar      1 PNZ        -0.0251
      3 C8         22.5560   15.9930   30.0170 C.ar      1 PNZ        -0.0467
      4 C9         22.0930   14.9220   29.2740 C.ar      1 PNZ         0.0072
      5 C4         22.1270   14.9870   27.8600 C.ar      1 PNZ        -0.0467
      6 C5         22.6490   16.0970   27.1630 C.ar      1 PNZ        -0.0251
      7 N2         20.0630   13.7590   30.3510 N.4       1 PNZ         0.2317
      8 C3         21.4910   13.7370   29.9720 C.3       1 PNZ         0.0010
      9 N10        23.6300   18.3080   27.1660 N.2       1 PNZ         0.3095
     10 O11        24.0060   19.2560   27.8080 O.2       1 PNZ         0.1751
     11 O12        23.6740   18.2840   25.9630 O.2       1 PNZ         0.1751
     12 H1         23.5413   18.1536   29.7474 H         1 PNZ         0.0676
     13 H2         22.5207   15.9751   31.1003 H         1 PNZ         0.0576
     14 H3         21.7367   14.1512   27.2907 H         1 PNZ         0.0576
     15 H4         22.6605   16.0818   26.0792 H         1 PNZ         0.0676
     16 H5         19.8230   12.8926   30.8068 H         1 PNZ         0.2009
     17 H6         19.4976   13.8715   29.5241 H         1 PNZ         0.2009
     18 H7         19.8943   14.5279   30.9806 H         1 PNZ         0.2009
     19 H8         22.0647   13.5869   30.8984 H         1 PNZ         0.0992
     20 H9         21.6318   12.8706   29.3090 H         1 PNZ         0.0992
@<TRIPOS>BOND
     1    1    2 ar 
     2    1    6 ar 
     3    1    9 1  
     4    2    3 ar 
     5    3    4 ar 
     6    4    5 ar 
     7    4    8 1  
     8    5    6 ar 
     9    8    7 1  
    10    9   10 2  
    11    9   11 2  
    12    2   12 1  
    13    3   13 1  
    14    5   14 1  
    15    6   15 1  
    16    7   16 1  
    17    7   17 1  
    18    7   18 1  
    19    8   19 1  
    20    8   20 1  
@<TRIPOS>SUBSTRUCTURE
     1 PNZ         1

