### 
### Created by X-TOOL on Sun Sep  9 21:50:33 2018
### 

@<TRIPOS>MOLECULE
2hjb_ligand
   22    22     1     0     0
SMALL
GAST_HUCK


@<TRIPOS>ATOM
      1 N1         53.8730   22.3300   28.2520 N.4       1 NON         0.2294
      2 CB         52.4950   21.8040   28.4060 C.3       1 NON        -0.0065
      3 CG         51.6170   22.3080   29.5140 C.ar      1 NON        -0.0095
      4 CD1        50.4170   22.9920   29.2560 C.ar      1 NON        -0.0637
      5 CE1        49.5770   23.4960   30.3030 C.ar      1 NON        -0.0394
      6 CZ         49.9260   23.3390   31.6580 C.ar      1 NON         0.0837
      7 CE2        51.0920   22.6960   31.9910 C.ar      1 NON        -0.0394
      8 CD2        52.0260   22.1390   30.8160 C.ar      1 NON        -0.0637
      9 O1         49.1370   23.8450   32.7260 O.3       1 NON        -0.3257
     10 CF1        48.4520   25.0640   32.5330 C.3       1 NON         0.0579
     11 H1         54.3162   21.8852   27.4635 H         1 NON         0.2006
     12 H2         54.4019   22.1365   29.0880 H         1 NON         0.2006
     13 H3         53.8375   23.3258   28.0998 H         1 NON         0.2006
     14 H4         52.5841   20.7161   28.5419 H         1 NON         0.0957
     15 H5         51.9682   22.0139   27.4635 H         1 NON         0.0957
     16 H6         50.1148   23.1444   28.2262 H         1 NON         0.0532
     17 H7         48.6562   24.0074   30.0466 H         1 NON         0.0525
     18 H8         51.3750   22.5678   33.0295 H         1 NON         0.0525
     19 H9         52.9610   21.6392   31.0420 H         1 NON         0.0532
     20 H10        47.8911   25.3177   33.4446 H         1 NON         0.0575
     21 H11        47.7537   24.9626   31.6892 H         1 NON         0.0575
     22 H12        49.1773   25.8617   32.3149 H         1 NON         0.0575
@<TRIPOS>BOND
     1    1    2 1  
     2    2    3 1  
     3    3    4 ar 
     4    3    8 ar 
     5    4    5 ar 
     6    5    6 ar 
     7    6    7 ar 
     8    6    9 1  
     9    7    8 ar 
    10    9   10 1  
    11    1   11 1  
    12    1   12 1  
    13    1   13 1  
    14    2   14 1  
    15    2   15 1  
    16    4   16 1  
    17    5   17 1  
    18    7   18 1  
    19    8   19 1  
    20   10   20 1  
    21   10   21 1  
    22   10   22 1  
@<TRIPOS>SUBSTRUCTURE
     1 NON         1

