### 
### Created by X-TOOL on Mon Sep 10 21:12:54 2018
### 

@<TRIPOS>MOLECULE
2hk5_ligand
   62    65     1     0     0
SMALL
GAST_HUCK


@<TRIPOS>ATOM
      1 O21        50.8600    8.9450    2.0930 O.3       1 1BM        -0.3404
      2 C17        49.9570    9.8340    1.6810 C.ar      1 1BM         0.0711
      3 C13        49.1740   10.5830    2.5600 C.ar      1 1BM        -0.0515
      4 C16        48.2310   11.4750    2.0540 C.ar      1 1BM        -0.0780
      5 C15        48.0640   11.6020    0.6760 C.ar      1 1BM        -0.0323
      6 C19        47.0630   12.5630    0.0980 C.3       1 1BM        -0.0385
      7 C14        49.7910    9.9970    0.3110 C.ar      1 1BM        -0.0168
      8 C11        48.8480   10.8740   -0.2050 C.ar      1 1BM         0.0569
      9 N3         48.7100   10.9980   -1.5470 N.pl3     1 1BM        -0.2643
     10 C2         48.1220   10.0520   -2.3110 C.ar      1 1BM         0.1220
     11 N1         48.0070   10.3040   -3.6290 N.ar      1 1BM        -0.2415
     12 C9         47.6200    8.8480   -1.8150 C.ar      1 1BM         0.0157
     13 C8         47.0360    7.9120   -2.6660 C.ar      1 1BM         0.1048
     14 N10        46.5400    6.7210   -2.2460 N.pl3     1 1BM        -0.3015
     15 C27        46.5130    6.2580   -0.8700 C.3       1 1BM         0.0683
     16 C30        47.8170    5.7050   -0.2950 C.3       1 1BM        -0.0112
     17 N34        48.0730    4.3820   -0.8520 N.4       1 1BM         0.2363
     18 C36        47.8700    3.2180    0.0070 C.3       1 1BM        -0.0347
     19 C42        47.7360    1.9020   -0.7310 C.3       1 1BM        -0.0245
     20 C35        48.5400    4.2820   -2.2280 C.3       1 1BM        -0.0347
     21 C38        49.8750    4.9660   -2.4050 C.3       1 1BM        -0.0245
     22 N6         46.9420    8.2130   -3.9820 N.ar      1 1BM        -0.2445
     23 C5         47.4250    9.3900   -4.4400 C.ar      1 1BM         0.2188
     24 N7         47.3700    9.7520   -5.7880 N.pl3     1 1BM        -0.1636
     25 C49        46.7260    9.1750   -6.8850 C.ar      1 1BM         0.1087
     26 C54        45.9370    8.0330   -6.9750 C.ar      1 1BM        -0.0344
     27 C53        46.9940    9.9570   -7.9950 C.ar      1 1BM         0.0402
     28 N51        47.7500   11.0340   -7.6980 N.2       1 1BM        -0.2990
     29 C50        48.0310   10.9430   -6.2840 C.2       1 1BM         0.1290
     30 C55        46.4960    9.6290   -9.2480 C.ar      1 1BM        -0.0593
     31 C56        45.7160    8.4790   -9.3500 C.ar      1 1BM        -0.0747
     32 C58        45.4430    7.6880   -8.2310 C.ar      1 1BM        -0.0727
     33 H1         50.4289    8.2722    2.6068 H         1 1BM         0.2456
     34 H2         49.2987   10.4715    3.6310 H         1 1BM         0.0430
     35 H3         47.6281   12.0694    2.7309 H         1 1BM         0.0499
     36 H4         46.5208   13.0627    0.9143 H         1 1BM         0.0348
     37 H5         46.3495   12.0135   -0.5336 H         1 1BM         0.0348
     38 H6         47.5862   13.3161   -0.5095 H         1 1BM         0.0348
     39 H7         50.4122    9.4262   -0.3697 H         1 1BM         0.0438
     40 H8         49.0683   11.8489   -2.0036 H         1 1BM         0.2131
     41 H9         47.6853    8.6382   -0.7535 H         1 1BM         0.0493
     42 H10        46.1500    6.0928   -2.9631 H         1 1BM         0.1834
     43 H11        45.7575    5.4613   -0.8033 H         1 1BM         0.0575
     44 H12        46.2073    7.1069   -0.2408 H         1 1BM         0.0575
     45 H13        47.7330    5.6318    0.7993 H         1 1BM         0.0835
     46 H14        48.6468    6.3787   -0.5548 H         1 1BM         0.0835
     47 H15        47.1194    4.3136   -1.1713 H         1 1BM         0.2034
     48 H16        46.9513    3.3787    0.5903 H         1 1BM         0.0812
     49 H17        48.7292    3.1420    0.6896 H         1 1BM         0.0812
     50 H18        47.5871    1.0884   -0.0058 H         1 1BM         0.0281
     51 H19        48.6507    1.7125   -1.3119 H         1 1BM         0.0281
     52 H20        46.8728    1.9493   -1.4112 H         1 1BM         0.0281
     53 H21        47.8030    4.7572   -2.8921 H         1 1BM         0.0812
     54 H22        48.6433    3.2200   -2.4952 H         1 1BM         0.0812
     55 H23        50.1988    4.8726   -3.4521 H         1 1BM         0.0281
     56 H24        50.6193    4.4931   -1.7475 H         1 1BM         0.0281
     57 H25        49.7791    6.0304   -2.1444 H         1 1BM         0.0281
     58 H26        45.7146    7.4334   -6.0997 H         1 1BM         0.0563
     59 H27        48.6289   11.6402   -5.6988 H         1 1BM         0.1390
     60 H28        46.7060   10.2446  -10.1152 H         1 1BM         0.0562
     61 H29        45.3136    8.1927  -10.3150 H         1 1BM         0.0532
     62 H30        44.8392    6.7946   -8.3416 H         1 1BM         0.0550
@<TRIPOS>BOND
     1    1    2 1  
     2    2    3 ar 
     3    2    7 ar 
     4    3    4 ar 
     5    4    5 ar 
     6    5    6 1  
     7    5    8 ar 
     8    7    8 ar 
     9    8    9 1  
    10    9   10 1  
    11   10   11 ar 
    12   10   12 ar 
    13   11   23 ar 
    14   12   13 ar 
    15   13   14 1  
    16   13   22 ar 
    17   14   15 1  
    18   15   16 1  
    19   16   17 1  
    20   17   18 1  
    21   17   20 1  
    22   18   19 1  
    23   20   21 1  
    24   22   23 ar 
    25   23   24 1  
    26   24   25 1  
    27   24   29 1  
    28   25   26 ar 
    29   25   27 ar 
    30   26   32 ar 
    31   27   28 1  
    32   27   30 ar 
    33   28   29 2  
    34   30   31 ar 
    35   31   32 ar 
    36    1   33 1  
    37    3   34 1  
    38    4   35 1  
    39    6   36 1  
    40    6   37 1  
    41    6   38 1  
    42    7   39 1  
    43    9   40 1  
    44   12   41 1  
    45   14   42 1  
    46   15   43 1  
    47   15   44 1  
    48   16   45 1  
    49   16   46 1  
    50   17   47 1  
    51   18   48 1  
    52   18   49 1  
    53   19   50 1  
    54   19   51 1  
    55   19   52 1  
    56   20   53 1  
    57   20   54 1  
    58   21   55 1  
    59   21   56 1  
    60   21   57 1  
    61   26   58 1  
    62   29   59 1  
    63   30   60 1  
    64   31   61 1  
    65   32   62 1  
@<TRIPOS>SUBSTRUCTURE
     1 1BM         1

