### 
### Created by X-TOOL on Mon Sep 10 21:12:55 2018
### 

@<TRIPOS>MOLECULE
2hkf_ligand
  113   114     1     0     0
SMALL
GAST_HUCK


@<TRIPOS>ATOM
      1 N           4.3020   30.9080  -12.0530 N.4       1 LEU         0.2357
      2 CA          2.8850   31.1490  -12.4730 C.3       1 LEU         0.0547
      3 C           1.9690   31.3410  -11.2730 C.2       1 LEU         0.2261
      4 O           1.9880   32.4100  -10.6550 O.2       1 LEU        -0.3908
      5 N           1.1550   30.3130  -10.9290 N.am      1 PRO        -0.2474
      6 CA          1.0210   29.0170  -11.6210 C.3       1 PRO         0.1339
      7 C           0.3310   29.0110  -12.9990 C.2       1 PRO         0.2039
      8 O           0.3710   27.9900  -13.6880 O.2       1 PRO        -0.3944
      9 CB          0.2270   28.1690  -10.6230 C.3       1 PRO        -0.0104
     10 CG         -0.5050   29.1030   -9.7980 C.3       1 PRO        -0.0281
     11 CD          0.3110   30.3730   -9.7200 C.3       1 PRO         0.0370
     12 N          -0.2960   30.1230  -13.3890 N.am      1 GLY        -0.2664
     13 CA         -1.0570   30.2060  -14.6460 C.3       1 GLY         0.1201
     14 C          -2.4780   29.6780  -14.5420 C.2       1 GLY         0.2007
     15 O          -2.9080   29.1850  -13.4770 O.2       1 GLY        -0.3947
     16 N          -3.2030   29.7620  -15.6550 N.am      1 GLU        -0.2639
     17 CA         -4.5790   29.2660  -15.7590 C.3       1 GLU         0.1324
     18 C          -4.6670   27.7540  -15.5850 C.2       1 GLU         0.2040
     19 O          -3.8460   27.0210  -16.1250 O.2       1 GLU        -0.3944
     20 CB         -5.2080   29.6870  -17.0990 C.3       1 GLU        -0.0008
     21 CG         -5.4880   31.1830  -17.1480 C.3       1 GLU         0.0044
     22 CD         -5.7990   31.7290  -18.5400 C.2       1 GLU         0.0350
     23 OE1        -6.6890   31.1830  -19.2400 O.co2     1 GLU        -0.5690
     24 OE2        -5.1590   32.7490  -18.9050 O.co2     1 GLU        -0.5690
     25 N          -5.6630   27.3000  -14.8250 N.am      1 GLU        -0.2636
     26 CA         -5.9300   25.8620  -14.6830 C.3       1 GLU         0.1325
     27 C          -6.0760   25.1470  -16.0380 C.2       1 GLU         0.2041
     28 O          -6.9810   25.4420  -16.8320 O.2       1 GLU        -0.3944
     29 CB         -7.1660   25.6090  -13.8070 C.3       1 GLU        -0.0008
     30 CG         -7.3930   24.1270  -13.4760 C.3       1 GLU         0.0044
     31 CD         -8.7670   23.8700  -12.8450 C.2       1 GLU         0.0350
     32 OE1        -9.6430   24.7630  -12.9280 O.co2     1 GLU        -0.5690
     33 OE2        -8.9580   22.7820  -12.2490 O.co2     1 GLU        -0.5690
     34 N          -5.1830   24.2010  -16.2950 N.am      1 ASP        -0.2622
     35 CA         -5.1810   23.5410  -17.5880 C.3       1 ASP         0.1423
     36 C          -6.1240   22.3350  -17.5790 C.2       1 ASP         0.2056
     37 O          -5.7090   21.1930  -17.7250 O.2       1 ASP        -0.3943
     38 CB         -3.7560   23.1980  -18.0350 C.3       1 ASP         0.0406
     39 CG         -3.7170   22.5640  -19.4150 C.2       1 ASP         0.0393
     40 OD1        -2.8400   21.6980  -19.6290 O.co2     1 ASP        -0.5688
     41 OD2        -4.5740   22.9090  -20.2690 O.co2     1 ASP        -0.5688
     42 N          -7.4030   22.6370  -17.4010 N.am      1 LEU        -0.2636
     43 CA         -8.4720   21.6570  -17.4380 C.3       1 LEU         0.1314
     44 C          -9.6800   22.3400  -18.0690 C.2       1 LEU         0.2064
     45 O          -9.8420   23.5670  -17.9410 O.2       1 LEU        -0.3942
     46 CB         -8.8090   21.1100  -16.0290 C.3       1 LEU        -0.0101
     47 CG         -7.8940   20.0310  -15.4230 C.3       1 LEU        -0.0425
     48 CD1        -8.3720   19.6760  -14.0060 C.3       1 LEU        -0.0625
     49 CD2        -7.8590   18.7520  -16.2950 C.3       1 LEU        -0.0625
     50 N         -10.5310   21.5500  -18.7480 N.am      1 PRO        -0.2498
     51 CA        -11.6600   22.0980  -19.4830 C.3       1 PRO         0.1337
     52 C         -12.6940   22.8210  -18.6070 C.2       1 PRO         0.2033
     53 O         -12.8140   22.5370  -17.4070 O.2       1 PRO        -0.3944
     54 CB        -12.2810   20.8610  -20.1500 C.3       1 PRO        -0.0104
     55 CG        -11.7920   19.7050  -19.3750 C.3       1 PRO        -0.0281
     56 CD        -10.4610   20.0810  -18.8540 C.3       1 PRO         0.0369
     57 N         -13.4260   23.7520  -19.2250 N.am      1 GLY        -0.2722
     58 CA        -14.6130   24.3800  -18.6170 C.3       1 GLY         0.0833
     59 C         -15.6090   23.3560  -18.0960 C.2       1 GLY         0.0570
     60 O         -16.2140   23.5170  -17.0230 O.co2     1 GLY        -0.5669
     61 OXT       -15.8270   22.3110  -18.7200 O.co2     1 GLY        -0.5669
     62 H1          4.8786   30.7856  -12.8707 H         1 LEU         0.2012
     63 H2          4.3470   30.0779  -11.4829 H         1 LEU         0.2012
     64 H3          4.6343   31.6982  -11.5228 H         1 LEU         0.2012
     65 H4          2.5335   30.2846  -13.0554 H         1 LEU         0.1061
     66 H5          2.8471   32.0527  -13.0989 H         1 LEU         0.1061
     67 H6          2.0255   28.5910  -11.7603 H         1 PRO         0.0802
     68 H7          0.9097   27.5673  -10.0050 H         1 PRO         0.0313
     69 H8         -0.4684   27.5035  -11.1556 H         1 PRO         0.0313
     70 H9         -0.6462   28.6844   -8.7906 H         1 PRO         0.0287
     71 H10        -1.4862   29.3137  -10.2484 H         1 PRO         0.0287
     72 H11        -0.3392   31.2601   -9.7376 H         1 PRO         0.0524
     73 H12         0.9282   30.3888   -8.8096 H         1 PRO         0.0524
     74 H13        -0.2467   30.9322  -12.8035 H         1 GLY         0.1881
     75 H14        -0.5257   29.6216  -15.4117 H         1 GLY         0.0763
     76 H15        -1.1013   31.2608  -14.9549 H         1 GLY         0.0763
     77 H16        -2.7885   30.1847  -16.4609 H         1 GLU         0.1883
     78 H17        -5.1616   29.7296  -14.9493 H         1 GLU         0.0801
     79 H18        -6.1545   29.1432  -17.2343 H         1 GLU         0.0330
     80 H19        -4.5163   29.4276  -17.9140 H         1 GLU         0.0330
     81 H20        -4.6025   31.7101  -16.7633 H         1 GLU         0.0433
     82 H21        -6.3503   31.3917  -16.4977 H         1 GLU         0.0433
     83 H22        -6.2430   27.9540  -14.3393 H         1 GLU         0.1883
     84 H23        -5.0627   25.4197  -14.1709 H         1 GLU         0.0801
     85 H24        -8.0520   25.9860  -14.3388 H         1 GLU         0.0330
     86 H25        -7.0422   26.1608  -12.8635 H         1 GLU         0.0330
     87 H26        -6.6144   23.7996  -12.7713 H         1 GLU         0.0433
     88 H27        -7.3164   23.5424  -14.4046 H         1 GLU         0.0433
     89 H28        -4.5124   23.9428  -15.5996 H         1 ASP         0.1884
     90 H29        -5.5814   24.2555  -18.3222 H         1 ASP         0.0819
     91 H30        -3.3186   22.4947  -17.3111 H         1 ASP         0.0478
     92 H31        -3.1600   24.1223  -18.0543 H         1 ASP         0.0478
     93 H32        -7.6438   23.5928  -17.2320 H         1 LEU         0.1883
     94 H33        -8.1626   20.8116  -18.0701 H         1 LEU         0.0800
     95 H34        -9.8226   20.6857  -16.0790 H         1 LEU         0.0315
     96 H35        -8.8035   21.9660  -15.3382 H         1 LEU         0.0315
     97 H36        -6.8736   20.4371  -15.3612 H         1 LEU         0.0298
     98 H37        -7.7138   18.9048  -13.5795 H         1 LEU         0.0232
     99 H38        -9.4026   19.2941  -14.0516 H         1 LEU         0.0232
    100 H39        -8.3417   20.5750  -13.3728 H         1 LEU         0.0232
    101 H40        -7.5167   19.0085  -17.3084 H         1 LEU         0.0232
    102 H41        -8.8678   18.3166  -16.3480 H         1 LEU         0.0232
    103 H42        -7.1677   18.0224  -15.8482 H         1 LEU         0.0232
    104 H43       -11.2990   22.8047  -20.2447 H         1 PRO         0.0802
    105 H44       -11.9557   20.7859  -21.1981 H         1 PRO         0.0313
    106 H45       -13.3790   20.9135  -20.1097 H         1 PRO         0.0313
    107 H46       -11.7100   18.8202  -20.0234 H         1 PRO         0.0287
    108 H47       -12.4781   19.4877  -18.5431 H         1 PRO         0.0287
    109 H48       -10.2817   19.6245  -17.8694 H         1 PRO         0.0524
    110 H49        -9.6663   19.7751  -19.5503 H         1 PRO         0.0524
    111 H50       -13.1556   24.0367  -20.1447 H         1 GLY         0.1873
    112 H51       -15.1106   25.0024  -19.3753 H         1 GLY         0.0689
    113 H52       -14.2870   25.0135  -17.7789 H         1 GLY         0.0689
@<TRIPOS>BOND
     1    1    2 1  
     2    2    3 1  
     3    3    4 2  
     4    3    5 am 
     5    5    6 1  
     6    5   11 1  
     7    6    7 1  
     8    6    9 1  
     9    7    8 2  
    10    7   12 am 
    11    9   10 1  
    12   10   11 1  
    13   12   13 1  
    14   13   14 1  
    15   14   15 2  
    16   14   16 am 
    17   16   17 1  
    18   17   18 1  
    19   17   20 1  
    20   18   19 2  
    21   18   25 am 
    22   20   21 1  
    23   21   22 1  
    24   22   23 ar 
    25   22   24 ar 
    26   25   26 1  
    27   26   27 1  
    28   26   29 1  
    29   27   28 2  
    30   27   34 am 
    31   29   30 1  
    32   30   31 1  
    33   31   32 ar 
    34   31   33 ar 
    35   34   35 1  
    36   35   36 1  
    37   35   38 1  
    38   36   37 2  
    39   36   42 am 
    40   38   39 1  
    41   39   40 ar 
    42   39   41 ar 
    43   42   43 1  
    44   43   44 1  
    45   43   46 1  
    46   44   45 2  
    47   44   50 am 
    48   46   47 1  
    49   47   48 1  
    50   47   49 1  
    51   50   51 1  
    52   50   56 1  
    53   51   52 1  
    54   51   54 1  
    55   52   53 2  
    56   52   57 am 
    57   54   55 1  
    58   55   56 1  
    59   57   58 1  
    60   58   59 1  
    61   59   60 ar 
    62   59   61 ar 
    63    1   62 1  
    64    1   63 1  
    65    1   64 1  
    66    2   65 1  
    67    2   66 1  
    68    6   67 1  
    69    9   68 1  
    70    9   69 1  
    71   10   70 1  
    72   10   71 1  
    73   11   72 1  
    74   11   73 1  
    75   12   74 1  
    76   13   75 1  
    77   13   76 1  
    78   16   77 1  
    79   17   78 1  
    80   20   79 1  
    81   20   80 1  
    82   21   81 1  
    83   21   82 1  
    84   25   83 1  
    85   26   84 1  
    86   29   85 1  
    87   29   86 1  
    88   30   87 1  
    89   30   88 1  
    90   34   89 1  
    91   35   90 1  
    92   38   91 1  
    93   38   92 1  
    94   42   93 1  
    95   43   94 1  
    96   46   95 1  
    97   46   96 1  
    98   47   97 1  
    99   48   98 1  
   100   48   99 1  
   101   48  100 1  
   102   49  101 1  
   103   49  102 1  
   104   49  103 1  
   105   51  104 1  
   106   54  105 1  
   107   54  106 1  
   108   55  107 1  
   109   55  108 1  
   110   56  109 1  
   111   56  110 1  
   112   57  111 1  
   113   58  112 1  
   114   58  113 1  
@<TRIPOS>SUBSTRUCTURE
     1 LEU         1

