### 
### Created by X-TOOL on Mon Sep 10 21:12:55 2018
### 

@<TRIPOS>MOLECULE
2hl4_ligand
   40    41     1     0     0
SMALL
GAST_HUCK


@<TRIPOS>ATOM
      1 S1         -5.9720    0.9500   16.6870 S.o2      1 BO1         0.0600
      2 O1         -5.4260    1.0860   18.0080 O.2       1 BO1        -0.1522
      3 O2         -7.3950    1.0440   16.5180 O.2       1 BO1        -0.1522
      4 N1         -5.4870   -0.4620   16.1140 N.am      1 BO1        -0.2623
      5 C1         -5.2420    2.2240   15.7260 C.ar      1 BO1         0.0945
      6 C2         -6.0080    3.3220   15.2590 C.ar      1 BO1        -0.0471
      7 C3         -5.4050    4.3220   14.5030 C.ar      1 BO1        -0.0426
      8 C4         -4.0030    4.2580   14.1840 C.ar      1 BO1         0.0397
      9 C5         -3.2600    3.1490   14.6640 C.ar      1 BO1        -0.0426
     10 C6         -3.8660    2.1560   15.4160 C.ar      1 BO1        -0.0471
     11 N2         -3.3500    5.2310   13.4360 N.pl3     1 BO1        -0.2956
     12 C7         -3.8590    6.5120   13.1010 C.3       1 BO1         0.1661
     13 C8         -2.8340    7.3080   12.2910 C.3       1 BO1         0.1301
     14 C9         -3.4220    8.6770   11.9380 C.3       1 BO1         0.1137
     15 C10        -4.6740    8.4710   11.1120 C.3       1 BO1         0.1119
     16 C11        -5.6970    7.6530   11.9440 C.3       1 BO1         0.1127
     17 C12        -6.9700    7.3730   11.1970 C.3       1 BO1         0.0730
     18 O3         -5.1070    6.3680   12.3240 O.3       1 BO1        -0.3443
     19 O4         -1.6550    7.4390   13.0930 O.3       1 BO1        -0.3845
     20 O5         -2.4590    9.4140   11.1850 O.3       1 BO1        -0.3864
     21 O6         -5.2430    9.7390   10.7680 O.3       1 BO1        -0.3865
     22 O7         -6.7370    6.4480   10.1410 O.3       1 BO1        -0.3924
     23 H1         -4.5184   -0.7084   16.1457 H         1 BO1         0.1633
     24 H2         -6.1524   -1.0986   15.7240 H         1 BO1         0.1633
     25 H3         -7.0651    3.3823   15.4914 H         1 BO1         0.0602
     26 H4         -5.9975    5.1585   14.1503 H         1 BO1         0.0515
     27 H5         -2.2020    3.0776   14.4389 H         1 BO1         0.0515
     28 H6         -3.2775    1.3175   15.7704 H         1 BO1         0.0602
     29 H7         -2.4069    4.9998   13.0924 H         1 BO1         0.1781
     30 H8         -4.0779    7.0593   14.0297 H         1 BO1         0.0888
     31 H9         -2.5893    6.7696   11.3635 H         1 BO1         0.0667
     32 H10        -3.6711    9.2259   12.8581 H         1 BO1         0.0647
     33 H11        -4.4222    7.9216   10.1929 H         1 BO1         0.0647
     34 H12        -5.9401    8.2247   12.8518 H         1 BO1         0.0647
     35 H13        -7.3564    8.3128   10.7758 H         1 BO1         0.0584
     36 H14        -7.7112    6.9502   11.8912 H         1 BO1         0.0584
     37 H15        -1.8706    7.8928   13.8993 H         1 BO1         0.2101
     38 H16        -2.8224   10.2596   10.9496 H         1 BO1         0.2100
     39 H17        -6.0314    9.6026   10.2558 H         1 BO1         0.2100
     40 H18        -7.5514    6.2831    9.6805 H         1 BO1         0.2095
@<TRIPOS>BOND
     1    1    2 2  
     2    1    3 2  
     3    1    4 am 
     4    1    5 1  
     5    5    6 ar 
     6    5   10 ar 
     7    6    7 ar 
     8    7    8 ar 
     9    8    9 ar 
    10    8   11 1  
    11    9   10 ar 
    12   11   12 1  
    13   12   13 1  
    14   12   18 1  
    15   13   14 1  
    16   13   19 1  
    17   14   15 1  
    18   14   20 1  
    19   15   16 1  
    20   15   21 1  
    21   16   17 1  
    22   16   18 1  
    23   17   22 1  
    24    4   23 1  
    25    4   24 1  
    26    6   25 1  
    27    7   26 1  
    28    9   27 1  
    29   10   28 1  
    30   11   29 1  
    31   12   30 1  
    32   13   31 1  
    33   14   32 1  
    34   15   33 1  
    35   16   34 1  
    36   17   35 1  
    37   17   36 1  
    38   19   37 1  
    39   20   38 1  
    40   21   39 1  
    41   22   40 1  
@<TRIPOS>SUBSTRUCTURE
     1 BO1         1

