### 
### Created by X-TOOL on Mon Sep 10 21:12:56 2018
### 

@<TRIPOS>MOLECULE
2hm1_ligand
   88    90     1     0     0
SMALL
GAST_HUCK


@<TRIPOS>ATOM
      1 C7          8.9890   -1.3060   16.7700 C.3       1 LIQ         0.0660
      2 C10        12.9980   -2.6930   18.4070 C.3       1 LIQ         0.1497
      3 N12        14.0650   -4.3850   16.9370 N.am      1 LIQ        -0.2773
      4 C13        14.7490   -5.5930   16.4430 C.3       1 LIQ         0.0822
      5 C15        12.3400   -6.4720   16.1240 C.ar      1 LIQ        -0.0445
      6 C17         9.7520   -6.2670   16.1600 C.ar      1 LIQ         0.1242
      7 C20        12.2540   -7.2140   17.4890 C.ar      1 LIQ        -0.0310
      8 C21        16.1010   -5.2850   15.7960 C.3       1 LIQ         0.1193
      9 C22        17.0230   -4.7990   16.8000 C.3       1 LIQ        -0.0033
     10 C24        19.2000   -4.0780   17.5270 C.3       1 LIQ        -0.0014
     11 C26        19.8080   -6.7000   17.7130 C.ar      1 LIQ        -0.0542
     12 C28        20.3670   -9.1630   17.9000 C.3       1 LIQ        -0.0236
     13 C1          8.8770   -3.1350   13.4440 C.3       1 LIQ        -0.0559
     14 C1A        10.1860   -3.1440   12.6670 C.3       1 LIQ        -0.0653
     15 C2          8.9550   -2.0370   14.5040 C.3       1 LIQ        -0.0518
     16 C3          8.8600   -2.5460   15.9570 C.3       1 LIQ        -0.0336
     17 S8         10.5910   -1.3750   17.7340 S.o2      1 LIQ        -0.0267
     18 O1         11.4130   -0.2940   17.2680 O.2       1 LIQ        -0.1741
     19 O2         10.2240   -1.1580   19.1310 O.2       1 LIQ        -0.1741
     20 C9         11.6870   -2.8160   17.5990 C.3       1 LIQ         0.1058
     21 C11        13.7550   -3.9860   18.2150 C.2       1 LIQ         0.2037
     22 O3         14.0480   -4.6490   19.2360 O.2       1 LIQ        -0.3945
     23 C14        13.7070   -6.1790   15.3980 C.3       1 LIQ         0.0048
     24 C16        11.0730   -6.0150   15.4920 C.ar      1 LIQ        -0.0310
     25 C18         9.6600   -6.9930   17.5000 C.ar      1 LIQ        -0.0019
     26 C19        10.9280   -7.4610   18.1510 C.ar      1 LIQ         0.1242
     27 O4         16.6300   -6.5100   15.3430 O.3       1 LIQ        -0.3841
     28 N23        18.4280   -4.4640   16.3520 N.4       1 LIQ         0.2409
     29 C25        19.4410   -5.3110   18.3870 C.ar      1 LIQ        -0.0055
     30 C27        20.0110   -7.8510   18.5870 C.ar      1 LIQ        -0.0499
     31 C29        19.9210   -7.9030   20.0340 C.ar      1 LIQ        -0.0673
     32 C30        19.5690   -6.5760   20.7210 C.ar      1 LIQ        -0.0750
     33 C31        19.3300   -5.2900   19.9130 C.ar      1 LIQ        -0.0622
     34 C32        19.1470   -9.8580   17.3090 C.3       1 LIQ        -0.0555
     35 N40        12.6720   -2.3500   19.8250 N.am      1 LIQ        -0.2622
     36 C41        13.3510   -1.3590   20.5580 C.2       1 LIQ         0.2152
     37 O5         14.3490   -0.7900   20.1000 O.2       1 LIQ        -0.3814
     38 F19        10.8890   -8.0870   19.2920 F         1 LIQ        -0.1863
     39 F17         8.7010   -5.8520   15.5710 F         1 LIQ        -0.1863
     40 C43        12.8470   -0.9920   21.9400 C.ar      1 LIQ         0.0780
     41 C45        13.5210   -0.0310   22.6710 C.ar      1 LIQ         0.0313
     42 N44        13.0710    0.3040   23.9330 N.ar      1 LIQ        -0.2903
     43 C46        11.9270   -0.2890   24.5550 C.ar      1 LIQ         0.0155
     44 C47        11.2130   -1.2890   23.8110 C.ar      1 LIQ        -0.0284
     45 C48        11.6730   -1.6540   22.4870 C.ar      1 LIQ        -0.0224
     46 H1          8.1416   -1.2322   17.4675 H         1 LIQ         0.0500
     47 H2          8.9952   -0.4287   16.1065 H         1 LIQ         0.0500
     48 H3         13.6062   -1.8742   17.9951 H         1 LIQ         0.0816
     49 H4         13.7779   -3.7480   16.2216 H         1 LIQ         0.1857
     50 H5         14.9101   -6.3047   17.2661 H         1 LIQ         0.0606
     51 H6         13.1633   -7.5574   17.9689 H         1 LIQ         0.0508
     52 H7         15.9892   -4.5612   14.9753 H         1 LIQ         0.0672
     53 H8         17.1007   -5.5724   17.5784 H         1 LIQ         0.0840
     54 H9         16.5883   -3.8858   17.2325 H         1 LIQ         0.0840
     55 H10        18.6411   -3.3279   18.1058 H         1 LIQ         0.0979
     56 H11        20.1647   -3.6537   17.2118 H         1 LIQ         0.0979
     57 H12        19.9049   -6.7910   16.6372 H         1 LIQ         0.0496
     58 H13        20.8327   -9.8332   18.6376 H         1 LIQ         0.0422
     59 H14        21.0821   -8.9553   17.0904 H         1 LIQ         0.0422
     60 H15         8.7260   -4.1104   13.9295 H         1 LIQ         0.0263
     61 H16         8.0398   -2.9325   12.7598 H         1 LIQ         0.0263
     62 H17        10.1501   -3.9291   11.8974 H         1 LIQ         0.0230
     63 H18        11.0200   -3.3437   13.3559 H         1 LIQ         0.0230
     64 H19        10.3338   -2.1658   12.1862 H         1 LIQ         0.0230
     65 H20         8.1278   -1.3328   14.3314 H         1 LIQ         0.0266
     66 H21         9.9143   -1.5119   14.3855 H         1 LIQ         0.0266
     67 H22         7.8923   -3.0364   16.1391 H         1 LIQ         0.0281
     68 H23         9.6755   -3.2494   16.1810 H         1 LIQ         0.0281
     69 H24        11.1408   -3.6997   17.9604 H         1 LIQ         0.0549
     70 H25        11.9468   -2.9536   16.5390 H         1 LIQ         0.0549
     71 H26        14.1022   -7.1124   14.9708 H         1 LIQ         0.0448
     72 H27        13.5446   -5.4472   14.5930 H         1 LIQ         0.0448
     73 H28        11.1038   -5.4956   14.5410 H         1 LIQ         0.0508
     74 H29         8.6991   -7.1666   17.9709 H         1 LIQ         0.0532
     75 H30        16.0580   -6.8739   14.6775 H         1 LIQ         0.2101
     76 H31        18.4036   -3.7010   15.6938 H         1 LIQ         0.2029
     77 H32        18.8488   -5.2699   15.9167 H         1 LIQ         0.2029
     78 H33        20.0907   -8.8166   20.5921 H         1 LIQ         0.0499
     79 H34        19.4870   -6.5450   21.8015 H         1 LIQ         0.0582
     80 H35        19.0825   -4.3672   20.4250 H         1 LIQ         0.0501
     81 H36        19.4575  -10.7965   16.8266 H         1 LIQ         0.0252
     82 H37        18.6760   -9.2008   16.5632 H         1 LIQ         0.0252
     83 H38        18.4266  -10.0786   18.1104 H         1 LIQ         0.0252
     84 H39        11.9332   -2.8507   20.2761 H         1 LIQ         0.1879
     85 H40        14.3963    0.4559   22.2565 H         1 LIQ         0.0879
     86 H41        11.6113    0.0051   25.5494 H         1 LIQ         0.0858
     87 H42        10.3377   -1.7662   24.2367 H         1 LIQ         0.0722
     88 H43        11.1499   -2.4096   21.9121 H         1 LIQ         0.0789
@<TRIPOS>BOND
     1    1   16 1  
     2   17    1 1  
     3   20    2 1  
     4    2   21 1  
     5    2   35 1  
     6    3    4 1  
     7   21    3 am 
     8    4    8 1  
     9    4   23 1  
    10    5    7 ar 
    11   23    5 1  
    12    5   24 ar 
    13   24    6 ar 
    14    6   25 ar 
    15    6   39 1  
    16    7   26 ar 
    17    8    9 1  
    18    8   27 1  
    19    9   28 1  
    20   28   10 1  
    21   10   29 1  
    22   29   11 ar 
    23   11   30 ar 
    24   30   12 1  
    25   12   34 1  
    26   13   14 1  
    27   15   13 1  
    28   16   15 1  
    29   17   18 2  
    30   17   19 2  
    31   17   20 1  
    32   21   22 2  
    33   25   26 ar 
    34   26   38 1  
    35   29   33 ar 
    36   30   31 ar 
    37   31   32 ar 
    38   32   33 ar 
    39   35   36 am 
    40   36   37 2  
    41   36   40 1  
    42   40   41 ar 
    43   40   45 ar 
    44   41   42 ar 
    45   42   43 ar 
    46   43   44 ar 
    47   44   45 ar 
    48    1   46 1  
    49    1   47 1  
    50    2   48 1  
    51    3   49 1  
    52    4   50 1  
    53    7   51 1  
    54    8   52 1  
    55    9   53 1  
    56    9   54 1  
    57   10   55 1  
    58   10   56 1  
    59   11   57 1  
    60   12   58 1  
    61   12   59 1  
    62   13   60 1  
    63   13   61 1  
    64   14   62 1  
    65   14   63 1  
    66   14   64 1  
    67   15   65 1  
    68   15   66 1  
    69   16   67 1  
    70   16   68 1  
    71   20   69 1  
    72   20   70 1  
    73   23   71 1  
    74   23   72 1  
    75   24   73 1  
    76   25   74 1  
    77   27   75 1  
    78   28   76 1  
    79   28   77 1  
    80   31   78 1  
    81   32   79 1  
    82   33   80 1  
    83   34   81 1  
    84   34   82 1  
    85   34   83 1  
    86   35   84 1  
    87   41   85 1  
    88   43   86 1  
    89   44   87 1  
    90   45   88 1  
@<TRIPOS>SUBSTRUCTURE
     1 LIQ         1

