### 
### Created by X-TOOL on Mon Sep 10 21:12:45 2018
### 

@<TRIPOS>MOLECULE
2hmb_ligand
   49    48     1     0     0
SMALL
GAST_HUCK


@<TRIPOS>ATOM
      1 C1         19.6970   33.9740   53.5800 C.2       1 PLM         0.0348
      2 O1         19.6530   34.9550   52.8820 O.co2     1 PLM        -0.5690
      3 O2         19.2260   32.8230   53.2130 O.co2     1 PLM        -0.5690
      4 C2         20.3350   33.9660   54.9600 C.3       1 PLM         0.0002
      5 C3         21.4940   34.9450   55.0220 C.3       1 PLM        -0.0414
      6 C4         22.3710   34.8190   56.2570 C.3       1 PLM        -0.0516
      7 C5         23.5050   35.8330   56.2400 C.3       1 PLM        -0.0530
      8 C6         24.0490   36.2020   57.6130 C.3       1 PLM        -0.0531
      9 C7         23.8200   35.1500   58.6860 C.3       1 PLM        -0.0531
     10 C8         23.1690   35.7290   59.9310 C.3       1 PLM        -0.0531
     11 C9         22.6830   34.6630   60.8930 C.3       1 PLM        -0.0531
     12 CA         21.5650   35.1480   61.7950 C.3       1 PLM        -0.0531
     13 CB         20.2070   34.6720   61.3310 C.3       1 PLM        -0.0531
     14 CC         19.5470   35.7190   60.4620 C.3       1 PLM        -0.0531
     15 CD         18.1690   35.3270   59.9830 C.3       1 PLM        -0.0531
     16 CE         17.7080   36.2150   58.8510 C.3       1 PLM        -0.0533
     17 CF         18.0490   35.6100   57.5020 C.3       1 PLM        -0.0559
     18 CG         19.3970   36.0460   56.9540 C.3       1 PLM        -0.0653
     19 H1         20.7052   32.9540   55.1806 H         1 PLM         0.0430
     20 H2         19.5808   34.2517   55.7080 H         1 PLM         0.0430
     21 H3         21.0820   35.9646   54.9978 H         1 PLM         0.0283
     22 H4         22.1258   34.7836   54.1361 H         1 PLM         0.0283
     23 H5         22.7978   33.8058   56.2907 H         1 PLM         0.0266
     24 H6         21.7543   34.9871   57.1522 H         1 PLM         0.0266
     25 H7         23.1364   36.7512   55.7594 H         1 PLM         0.0265
     26 H8         24.3304   35.4140   55.6457 H         1 PLM         0.0265
     27 H9         23.5621   37.1339   57.9363 H         1 PLM         0.0265
     28 H10        25.1325   36.3675   57.5200 H         1 PLM         0.0265
     29 H11        24.7898   34.7121   58.9649 H         1 PLM         0.0265
     30 H12        23.1668   34.3647   58.2779 H         1 PLM         0.0265
     31 H13        22.3094   36.3431   59.6243 H         1 PLM         0.0265
     32 H14        23.9046   36.3610   60.4501 H         1 PLM         0.0265
     33 H15        23.5282   34.3455   61.5214 H         1 PLM         0.0265
     34 H16        22.3166   33.8050   60.3103 H         1 PLM         0.0265
     35 H17        21.5701   36.2479   61.8047 H         1 PLM         0.0265
     36 H18        21.7431   34.7714   62.8131 H         1 PLM         0.0265
     37 H19        19.5725   34.4774   62.2082 H         1 PLM         0.0265
     38 H20        20.3269   33.7444   60.7521 H         1 PLM         0.0265
     39 H21        20.1843   35.8929   59.5825 H         1 PLM         0.0265
     40 H22        19.4616   36.6493   61.0427 H         1 PLM         0.0265
     41 H23        17.4602   35.4158   60.8195 H         1 PLM         0.0265
     42 H24        18.1944   34.2845   59.6330 H         1 PLM         0.0265
     43 H25        18.2016   37.1940   58.9397 H         1 PLM         0.0265
     44 H26        16.6180   36.3463   58.9196 H         1 PLM         0.0265
     45 H27        17.2709   35.9062   56.7831 H         1 PLM         0.0263
     46 H28        18.0551   34.5149   57.6053 H         1 PLM         0.0263
     47 H29        19.5688   35.5666   55.9790 H         1 PLM         0.0230
     48 H30        20.1913   35.7479   57.6542 H         1 PLM         0.0230
     49 H31        19.4070   37.1392   56.8320 H         1 PLM         0.0230
@<TRIPOS>BOND
     1    1    2 ar 
     2    1    3 ar 
     3    1    4 1  
     4    4    5 1  
     5    5    6 1  
     6    6    7 1  
     7    7    8 1  
     8    8    9 1  
     9    9   10 1  
    10   10   11 1  
    11   11   12 1  
    12   12   13 1  
    13   13   14 1  
    14   14   15 1  
    15   15   16 1  
    16   16   17 1  
    17   17   18 1  
    18    4   19 1  
    19    4   20 1  
    20    5   21 1  
    21    5   22 1  
    22    6   23 1  
    23    6   24 1  
    24    7   25 1  
    25    7   26 1  
    26    8   27 1  
    27    8   28 1  
    28    9   29 1  
    29    9   30 1  
    30   10   31 1  
    31   10   32 1  
    32   11   33 1  
    33   11   34 1  
    34   12   35 1  
    35   12   36 1  
    36   13   37 1  
    37   13   38 1  
    38   14   39 1  
    39   14   40 1  
    40   15   41 1  
    41   15   42 1  
    42   16   43 1  
    43   16   44 1  
    44   17   45 1  
    45   17   46 1  
    46   18   47 1  
    47   18   48 1  
    48   18   49 1  
@<TRIPOS>SUBSTRUCTURE
     1 PLM         1

