### 
### Created by X-TOOL on Mon Sep 10 21:12:54 2018
### 

@<TRIPOS>MOLECULE
2hnc_ligand
   15    15     1     0     0
SMALL
GAST_HUCK


@<TRIPOS>ATOM
      1 S1         -5.8090    0.9480   16.5740 S.o2      1 1SA         0.1566
      2 O1         -7.2360    1.0700   16.4500 O.2       1 1SA        -0.1315
      3 O2         -5.3720    1.1730   17.9280 O.2       1 1SA        -0.1315
      4 N1         -5.3340   -0.4610   16.0850 N.am      1 1SA        -0.2451
      5 N2         -3.8050    2.3790   15.3710 N.2       1 1SA         0.0510
      6 N3         -3.5520    3.4730   14.5830 N.pl3     1 1SA        -0.1247
      7 S2         -6.0920    3.5030   14.9420 S.3       1 1SA         0.1147
      8 C1         -5.1120    2.1980   15.5310 C.2       1 1SA         0.4163
      9 C2         -4.6210    4.2310   14.4250 C.cat     1 1SA         0.2343
     10 N4         -4.5850    5.3490   13.6810 N.pl3     1 1SA        -0.3301
     11 H1         -5.5576   -0.7711   15.1610 H         1 1SA         0.1650
     12 H2         -4.8069   -1.0510   16.6966 H         1 1SA         0.1650
     13 H3         -2.6342    3.6791   14.1633 H         1 1SA         0.2977
     14 H4         -5.4331    5.9235   13.5733 H         1 1SA         0.1812
     15 H5         -3.7093    5.6317   13.2183 H         1 1SA         0.1812
@<TRIPOS>BOND
     1    1    2 2  
     2    1    3 2  
     3    1    4 am 
     4    8    1 1  
     5    5    6 1  
     6    5    8 2  
     7    6    9 ar 
     8    8    7 1  
     9    7    9 1  
    10    9   10 ar 
    11    4   11 1  
    12    4   12 1  
    13    6   13 1  
    14   10   14 1  
    15   10   15 1  
@<TRIPOS>SUBSTRUCTURE
     1 1SA         1

