### 
### Created by X-TOOL on Mon Sep 10 21:12:53 2018
### 

@<TRIPOS>MOLECULE
2hnx_ligand
   49    48     1     0     0
SMALL
GAST_HUCK


@<TRIPOS>ATOM
      1 C1         26.2330   48.3590   15.4780 C.2       1 PLM         0.0348
      2 O1         26.4050   49.5320   15.0820 O.co2     1 PLM        -0.5690
      3 O2         26.9170   47.4610   14.9330 O.co2     1 PLM        -0.5690
      4 C2         25.2380   48.0670   16.5860 C.3       1 PLM         0.0002
      5 C3         25.4140   46.6810   17.2120 C.3       1 PLM        -0.0414
      6 C4         25.0650   46.7170   18.7000 C.3       1 PLM        -0.0516
      7 C5         26.0510   45.9340   19.5640 C.3       1 PLM        -0.0530
      8 C6         25.5740   45.9000   21.0160 C.3       1 PLM        -0.0531
      9 C7         26.7110   45.7960   22.0350 C.3       1 PLM        -0.0531
     10 C8         26.6710   47.0280   22.9370 C.3       1 PLM        -0.0531
     11 C9         27.9860   47.3890   23.6280 C.3       1 PLM        -0.0531
     12 CA         29.2110   47.5290   22.7240 C.3       1 PLM        -0.0531
     13 CB         28.9680   48.4640   21.5430 C.3       1 PLM        -0.0531
     14 CC         30.1730   48.4630   20.6190 C.3       1 PLM        -0.0531
     15 CD         30.1480   49.6910   19.7130 C.3       1 PLM        -0.0531
     16 CE         31.0070   49.4950   18.4690 C.3       1 PLM        -0.0533
     17 CF         30.5450   48.3090   17.6230 C.3       1 PLM        -0.0559
     18 CG         29.1260   48.5050   17.1040 C.3       1 PLM        -0.0653
     19 H1         24.2223   48.1348   16.1692 H         1 PLM         0.0430
     20 H2         25.3621   48.8239   17.3745 H         1 PLM         0.0430
     21 H3         26.4595   46.3603   17.0932 H         1 PLM         0.0283
     22 H4         24.7510   45.9666   16.7020 H         1 PLM         0.0283
     23 H5         24.0619   46.2862   18.8352 H         1 PLM         0.0266
     24 H6         25.0621   47.7651   19.0340 H         1 PLM         0.0266
     25 H7         27.0378   46.4178   19.5176 H         1 PLM         0.0265
     26 H8         26.1289   44.9048   19.1836 H         1 PLM         0.0265
     27 H9         24.9125   45.0305   21.1439 H         1 PLM         0.0265
     28 H10        25.0101   46.8226   21.2180 H         1 PLM         0.0265
     29 H11        27.6765   45.7525   21.5098 H         1 PLM         0.0265
     30 H12        26.5826   44.8878   22.6422 H         1 PLM         0.0265
     31 H13        25.9170   46.8503   23.7180 H         1 PLM         0.0265
     32 H14        26.3661   47.8872   22.3216 H         1 PLM         0.0265
     33 H15        28.2029   46.6034   24.3667 H         1 PLM         0.0265
     34 H16        27.8401   48.3487   24.1454 H         1 PLM         0.0265
     35 H17        29.4778   46.5347   22.3364 H         1 PLM         0.0265
     36 H18        30.0453   47.9258   23.3210 H         1 PLM         0.0265
     37 H19        28.7969   49.4845   21.9163 H         1 PLM         0.0265
     38 H20        28.0825   48.1239   20.9861 H         1 PLM         0.0265
     39 H21        30.1540   47.5545   19.9991 H         1 PLM         0.0265
     40 H22        31.0927   48.4761   21.2223 H         1 PLM         0.0265
     41 H23        30.5286   50.5562   20.2756 H         1 PLM         0.0265
     42 H24        29.1104   49.8831   19.4024 H         1 PLM         0.0265
     43 H25        32.0473   49.3219   18.7817 H         1 PLM         0.0265
     44 H26        30.9552   50.4072   17.8565 H         1 PLM         0.0265
     45 H27        30.5765   47.3981   18.2389 H         1 PLM         0.0263
     46 H28        31.2254   48.1960   16.7661 H         1 PLM         0.0263
     47 H29        28.8321   47.6326   16.5019 H         1 PLM         0.0230
     48 H30        29.0852   49.4108   16.4813 H         1 PLM         0.0230
     49 H31        28.4363   48.6130   17.9541 H         1 PLM         0.0230
@<TRIPOS>BOND
     1    1    2 ar 
     2    1    3 ar 
     3    1    4 1  
     4    4    5 1  
     5    5    6 1  
     6    6    7 1  
     7    7    8 1  
     8    8    9 1  
     9    9   10 1  
    10   10   11 1  
    11   11   12 1  
    12   12   13 1  
    13   13   14 1  
    14   14   15 1  
    15   15   16 1  
    16   16   17 1  
    17   17   18 1  
    18    4   19 1  
    19    4   20 1  
    20    5   21 1  
    21    5   22 1  
    22    6   23 1  
    23    6   24 1  
    24    7   25 1  
    25    7   26 1  
    26    8   27 1  
    27    8   28 1  
    28    9   29 1  
    29    9   30 1  
    30   10   31 1  
    31   10   32 1  
    32   11   33 1  
    33   11   34 1  
    34   12   35 1  
    35   12   36 1  
    36   13   37 1  
    37   13   38 1  
    38   14   39 1  
    39   14   40 1  
    40   15   41 1  
    41   15   42 1  
    42   16   43 1  
    43   16   44 1  
    44   17   45 1  
    45   17   46 1  
    46   18   47 1  
    47   18   48 1  
    48   18   49 1  
@<TRIPOS>SUBSTRUCTURE
     1 PLM         1

