### 
### Created by X-TOOL on Mon Sep 10 21:12:54 2018
### 

@<TRIPOS>MOLECULE
2hny_ligand
   34    37     1     0     0
SMALL
GAST_HUCK


@<TRIPOS>ATOM
      1 N1          2.1040  -37.6880   21.2250 N.pl3     1 NVP        -0.2309
      2 CA          2.6920  -38.9130   20.6210 C.3       1 NVP         0.0595
      3 CB          2.9380  -40.0510   21.5440 C.3       1 NVP        -0.0234
      4 CC          1.8250  -40.1150   20.5580 C.3       1 NVP        -0.0234
      5 N3          4.3470  -36.8340   21.4840 N.ar      1 NVP        -0.3059
      6 C4          5.2440  -36.1100   22.1910 C.ar      1 NVP        -0.0267
      7 C5          4.8730  -35.3660   23.3280 C.ar      1 NVP        -0.0598
      8 C6          3.5410  -35.3710   23.7370 C.ar      1 NVP        -0.0147
      9 CD          3.1300  -34.6360   24.9900 C.3       1 NVP        -0.0317
     10 C2          3.0490  -36.8370   21.8870 C.ar      1 NVP         0.1549
     11 C7          2.5990  -36.1020   22.9950 C.ar      1 NVP         0.1203
     12 N8          1.1940  -36.0450   23.3340 N.am      1 NVP        -0.2340
     13 C9          0.0590  -36.0960   22.6100 C.2       1 NVP         0.2331
     14 OE         -1.0460  -36.0110   23.1520 O.2       1 NVP        -0.3735
     15 C10         0.1020  -36.2530   21.0870 C.ar      1 NVP         0.1056
     16 C15         1.1100  -37.0070   20.4260 C.ar      1 NVP         0.1557
     17 C11        -0.9060  -35.6800   20.3150 C.ar      1 NVP        -0.0327
     18 C12        -0.8970  -35.8500   18.9270 C.ar      1 NVP        -0.0419
     19 C13         0.1390  -36.5980   18.3420 C.ar      1 NVP         0.0012
     20 N14         1.1260  -37.1670   19.0800 N.ar      1 NVP        -0.2750
     21 H1          3.3916  -38.6657   19.8089 H         1 NVP         0.0606
     22 H2          2.7177  -39.9472   22.6167 H         1 NVP         0.0292
     23 H3          3.8275  -40.6845   21.4119 H         1 NVP         0.0292
     24 H4          1.8914  -40.7965   19.6971 H         1 NVP         0.0292
     25 H5          0.7817  -40.0592   20.9020 H         1 NVP         0.0292
     26 H6          6.2803  -36.1020   21.8730 H         1 NVP         0.0624
     27 H7          5.6140  -34.7970   23.8777 H         1 NVP         0.0509
     28 H8          4.0056  -34.1290   25.4216 H         1 NVP         0.0379
     29 H9          2.7249  -35.3528   25.7194 H         1 NVP         0.0379
     30 H10         2.3601  -33.8905   24.7420 H         1 NVP         0.0379
     31 H11         1.0301  -35.9467   24.3156 H         1 NVP         0.2208
     32 H12        -1.6938  -35.1049   20.7880 H         1 NVP         0.0750
     33 H13        -1.6757  -35.4124   18.3129 H         1 NVP         0.0614
     34 H14         0.1503  -36.7248   17.2655 H         1 NVP         0.0817
@<TRIPOS>BOND
     1    1    2 1  
     2   10    1 1  
     3    1   16 1  
     4    2    3 1  
     5    2    4 1  
     6    4    3 1  
     7    5    6 ar 
     8    5   10 ar 
     9    6    7 ar 
    10    7    8 ar 
    11    8    9 1  
    12    8   11 ar 
    13   10   11 ar 
    14   11   12 1  
    15   12   13 am 
    16   13   14 2  
    17   13   15 1  
    18   15   16 ar 
    19   15   17 ar 
    20   16   20 ar 
    21   17   18 ar 
    22   18   19 ar 
    23   19   20 ar 
    24    2   21 1  
    25    3   22 1  
    26    3   23 1  
    27    4   24 1  
    28    4   25 1  
    29    6   26 1  
    30    7   27 1  
    31    9   28 1  
    32    9   29 1  
    33    9   30 1  
    34   12   31 1  
    35   17   32 1  
    36   18   33 1  
    37   19   34 1  
@<TRIPOS>SUBSTRUCTURE
     1 NVP         1

