### 
### Created by X-TOOL on Mon Sep 10 21:12:56 2018
### 

@<TRIPOS>MOLECULE
2hob_ligand
  102   104     1     0     0
SMALL
GAST_HUCK


@<TRIPOS>ATOM
      1 N1          0.6530   -9.6070  109.9890 N.4       1 02J         0.4253
      2 C1          0.6670  -10.5700  109.2020 C.3       1 02J         0.1047
      3 C2          0.2280   -9.7530  107.8000 C.2       1 02J        -0.0162
      4 C3         -0.0330   -8.4530  108.1650 C.2       1 02J         0.1071
      5 O1          0.1880   -8.2880  109.4960 O.3       1 02J        -0.2663
      6 C4          1.9130  -11.5160  108.9050 C.2       1 02J         0.2295
      7 O2          2.4720  -11.8300  107.8030 O.2       1 02J        -0.3898
      8 N2          1.9400  -12.3320  110.0110 N.am      1 ALA        -0.2607
      9 C5          2.5870  -13.6670  110.0360 C.3       1 ALA         0.1283
     10 C6          2.4560  -14.3370  111.4210 C.3       1 ALA        -0.0244
     11 C7          1.9520  -14.5840  108.9940 C.2       1 ALA         0.2036
     12 O3          0.7180  -14.6670  108.9110 O.2       1 ALA        -0.3944
     13 N3          3.2200  -14.9890  108.1440 N.am      1 VAL        -0.2635
     14 C8          2.9070  -15.9860  107.1330 C.3       1 VAL         0.1332
     15 C9          3.2340  -15.4410  105.7050 C.3       1 VAL        -0.0063
     16 C10         2.9150  -16.4460  104.6250 C.3       1 VAL        -0.0584
     17 C11         2.4350  -14.1560  105.4470 C.3       1 VAL        -0.0584
     18 C12         3.6910  -17.2490  107.4470 C.2       1 VAL         0.2041
     19 O4          4.9210  -17.2150  107.5630 O.2       1 VAL        -0.3944
     20 N4          2.9780  -18.3650  107.5800 N.am      1 LEU        -0.2637
     21 C13         3.6140  -19.6400  107.8710 C.3       1 LEU         0.1311
     22 C14         2.5160  -20.6330  108.2780 C.3       1 LEU        -0.0101
     23 C15         2.3550  -21.0870  109.7450 C.3       1 LEU        -0.0425
     24 C16         2.7690  -20.0230  110.7630 C.3       1 LEU        -0.0625
     25 C17         0.8840  -21.4830  109.9620 C.3       1 LEU        -0.0625
     26 C19         6.4320  -20.8310  105.5770 C.3       1 PJE         0.0466
     27 C20         6.9230  -22.2750  105.6200 C.3       1 PJE        -0.0115
     28 C21         5.6880  -22.8090  104.8740 C.3       1 PJE         0.0510
     29 C22         6.0400  -24.1120  104.1880 C.2       1 PJE         0.2358
     30 O6          7.0100  -24.8500  104.1000 O.2       1 PJE        -0.3702
     31 O7          4.8260  -24.2830  103.6470 O.3       1 010        -0.2636
     32 C23         4.3700  -25.4360  102.9740 C.3       1 010         0.1108
     33 C24         2.8510  -25.3490  102.8070 C.ar      1 010        -0.0128
     34 C25         7.8980  -20.1870  105.1080 C.3       1 PJE        -0.0099
     35 C26         7.6540  -18.7310  104.6630 C.3       1 PJE         0.0525
     36 C27         7.1630  -18.5590  103.2070 C.3       1 PJE        -0.0129
     37 C28         7.7740  -17.2400  102.6890 C.3       1 PJE         0.0332
     38 N6          8.8980  -17.0440  103.5950 N.am      1 PJE        -0.2866
     39 C29         8.8630  -17.8360  104.6860 C.2       1 PJE         0.1792
     40 O8          9.6950  -17.7670  105.5900 O.2       1 PJE        -0.3968
     41 C30         2.0890  -24.4520  103.6450 C.ar      1 010        -0.0578
     42 C31         0.6780  -24.3090  103.5350 C.ar      1 010        -0.0685
     43 C32        -0.0470  -25.0790  102.5690 C.ar      1 010        -0.0687
     44 C33         0.6620  -26.0070  101.6840 C.ar      1 010        -0.0685
     45 C34         2.1190  -26.1500  101.8020 C.ar      1 010        -0.0578
     46 C35        -0.4980   -7.3570  107.2390 C.3       1 02J        -0.0042
     47 C18         4.3500  -20.1020  106.6190 C.2       1 LEU         0.2019
     48 O5          3.7160  -20.1980  105.5520 O.2       1 LEU        -0.3945
     49 N5          5.6690  -20.3740  106.7520 N.am      1 PJE        -0.2817
     50 H1          1.5962   -9.4829  110.3221 H         1 02J         0.2433
     51 H2          0.0554   -9.8627  110.7594 H         1 02J         0.2433
     52 H3         -0.1373  -11.2515  109.5161 H         1 02J         0.1152
     53 H4          0.1629  -10.1720  106.7969 H         1 02J         0.0216
     54 H5          1.4980  -12.0070  110.8471 H         1 ALA         0.1885
     55 H6          3.6544  -13.5412  109.8019 H         1 ALA         0.0797
     56 H7          2.9463  -15.3215  111.3999 H         1 ALA         0.0277
     57 H8          1.3916  -14.4627  111.6683 H         1 ALA         0.0277
     58 H9          2.9369  -13.7042  112.1814 H         1 ALA         0.0277
     59 H10         4.1323  -14.6044  108.2848 H         1 VAL         0.1883
     60 H11         1.8323  -16.2164  107.1777 H         1 VAL         0.0802
     61 H12         4.3084  -15.2095  105.6598 H         1 VAL         0.0343
     62 H13         3.1611  -16.0183  103.6419 H         1 VAL         0.0234
     63 H14         1.8438  -16.6936  104.6593 H         1 VAL         0.0234
     64 H15         3.5077  -17.3585  104.7866 H         1 VAL         0.0234
     65 H16         2.6630  -13.4189  106.2310 H         1 VAL         0.0234
     66 H17         1.3591  -14.3843  105.4602 H         1 VAL         0.0234
     67 H18         2.7104  -13.7439  104.4650 H         1 VAL         0.0234
     68 H19         1.9840  -18.3259  107.4777 H         1 LEU         0.1883
     69 H20         4.3316  -19.5266  108.6970 H         1 LEU         0.0800
     70 H21         2.6842  -21.5446  107.6858 H         1 LEU         0.0315
     71 H22         1.5586  -20.1771  107.9854 H         1 LEU         0.0315
     72 H23         2.9901  -21.9710  109.9039 H         1 LEU         0.0298
     73 H24         2.6279  -20.4150  111.7810 H         1 LEU         0.0232
     74 H25         2.1492  -19.1245  110.6270 H         1 LEU         0.0232
     75 H26         3.8276  -19.7644  110.6132 H         1 LEU         0.0232
     76 H27         0.5977  -22.2479  109.2251 H         1 LEU         0.0232
     77 H28         0.2437  -20.5971  109.8386 H         1 LEU         0.0232
     78 H29         0.7590  -21.8872  110.9774 H         1 LEU         0.0232
     79 H30         5.7292  -20.7075  104.7399 H         1 PJE         0.0559
     80 H31         7.0212  -22.6721  106.6411 H         1 PJE         0.0313
     81 H32         7.8645  -22.4321  105.0733 H         1 PJE         0.0313
     82 H33         5.3669  -22.0733  104.1219 H         1 PJE         0.0519
     83 H34         4.8717  -22.9806  105.5911 H         1 PJE         0.0519
     84 H35         4.6256  -26.3306  103.5608 H         1 010         0.0778
     85 H36         4.8466  -25.4980  101.9846 H         1 010         0.0778
     86 H37         8.3118  -20.7693  104.2715 H         1 PJE         0.0315
     87 H38         8.6025  -20.2068  105.9525 H         1 PJE         0.0315
     88 H39         6.8951  -18.3222  105.3464 H         1 PJE         0.0539
     89 H40         6.0647  -18.5046  103.1807 H         1 PJE         0.0312
     90 H41         7.5033  -19.4032  102.5894 H         1 PJE         0.0312
     91 H42         7.0541  -16.4115  102.7618 H         1 PJE         0.0521
     92 H43         8.1140  -17.3400  101.6477 H         1 PJE         0.0521
     93 H44         9.6284  -16.3829  103.4236 H         1 PJE         0.1851
     94 H45         2.6144  -23.8635  104.3885 H         1 010         0.0557
     95 H46         0.1513  -23.6172  104.1823 H         1 010         0.0599
     96 H47        -1.1233  -24.9749  102.4924 H         1 010         0.0559
     97 H48         0.1149  -26.5840  100.9472 H         1 010         0.0599
     98 H49         2.6540  -26.8377  101.1571 H         1 010         0.0557
     99 H50        -0.6241   -6.4245  107.8088 H         1 02J         0.0415
    100 H51        -1.4589   -7.6427  106.7861 H         1 02J         0.0415
    101 H52         0.2498   -7.2044  106.4469 H         1 02J         0.0415
    102 H53         6.1208  -20.2661  107.6376 H         1 PJE         0.1855
@<TRIPOS>BOND
     1    2    1 1  
     2    1    5 1  
     3    2    3 1  
     4    6    2 1  
     5    3    4 2  
     6    4    5 1  
     7    4   46 1  
     8    6    7 2  
     9    8    6 am 
    10    9    8 1  
    11    9   10 1  
    12   11    9 1  
    13   11   12 2  
    14   13   11 am 
    15   14   13 1  
    16   14   15 1  
    17   18   14 1  
    18   15   16 1  
    19   15   17 1  
    20   18   19 2  
    21   20   18 am 
    22   21   20 1  
    23   21   22 1  
    24   47   21 1  
    25   22   23 1  
    26   23   24 1  
    27   23   25 1  
    28   26   27 1  
    29   26   34 1  
    30   49   26 1  
    31   27   28 1  
    32   28   29 1  
    33   29   30 2  
    34   29   31 1  
    35   31   32 1  
    36   32   33 1  
    37   33   41 ar 
    38   33   45 ar 
    39   34   35 1  
    40   35   36 1  
    41   35   39 1  
    42   36   37 1  
    43   38   37 1  
    44   39   38 am 
    45   39   40 2  
    46   41   42 ar 
    47   42   43 ar 
    48   44   43 ar 
    49   45   44 ar 
    50   47   48 2  
    51   47   49 am 
    52    1   50 1  
    53    1   51 1  
    54    2   52 1  
    55    3   53 1  
    56    8   54 1  
    57    9   55 1  
    58   10   56 1  
    59   10   57 1  
    60   10   58 1  
    61   13   59 1  
    62   14   60 1  
    63   15   61 1  
    64   16   62 1  
    65   16   63 1  
    66   16   64 1  
    67   17   65 1  
    68   17   66 1  
    69   17   67 1  
    70   20   68 1  
    71   21   69 1  
    72   22   70 1  
    73   22   71 1  
    74   23   72 1  
    75   24   73 1  
    76   24   74 1  
    77   24   75 1  
    78   25   76 1  
    79   25   77 1  
    80   25   78 1  
    81   26   79 1  
    82   27   80 1  
    83   27   81 1  
    84   28   82 1  
    85   28   83 1  
    86   32   84 1  
    87   32   85 1  
    88   34   86 1  
    89   34   87 1  
    90   35   88 1  
    91   36   89 1  
    92   36   90 1  
    93   37   91 1  
    94   37   92 1  
    95   38   93 1  
    96   41   94 1  
    97   42   95 1  
    98   43   96 1  
    99   44   97 1  
   100   45   98 1  
   101   46   99 1  
   102   46  100 1  
   103   46  101 1  
   104   49  102 1  
@<TRIPOS>SUBSTRUCTURE
     1 02J         1

