### 
### Created by X-TOOL on Mon Sep 10 21:12:54 2018
### 

@<TRIPOS>MOLECULE
2hoc_ligand
   29    30     1     0     0
SMALL
GAST_HUCK


@<TRIPOS>ATOM
      1 S1         -5.7200    0.8180   16.6140 S.o2      1 1CN         0.0983
      2 O1         -7.1140    0.9350   16.5620 O.2       1 1CN        -0.1454
      3 O2         -5.2540    1.0250   17.9420 O.2       1 1CN        -0.1454
      4 N1         -5.2880   -0.6130   16.1320 N.am      1 1CN        -0.2566
      5 N2         -3.7220    2.3480   15.4350 N.2       1 1CN        -0.2520
      6 N3         -3.5280    3.4480   14.6020 N.2       1 1CN        -0.2658
      7 S2         -5.9640    3.3760   15.0470 S.3       1 1CN         0.0830
      8 C1         -5.0080    2.0370   15.5080 C.2       1 1CN         0.2540
      9 C2         -4.6940    3.9880   14.2070 C.2       1 1CN         0.2194
     10 N4         -4.9220    5.2840   13.9070 N.am      1 1CN        -0.1439
     11 S3         -4.4080    6.0460   12.8690 S.o2      1 1CN         0.0916
     12 O3         -5.4360    6.7450   12.2210 O.2       1 1CN        -0.1447
     13 O4         -3.7210    5.1780   11.9160 O.2       1 1CN        -0.1447
     14 C4         -3.0410    7.3160   14.9540 C.ar      1 1CN        -0.0125
     15 C8         -2.3750    8.0070   12.6680 C.ar      1 1CN        -0.0365
     16 C5         -2.2490    8.3410   15.5060 C.ar      1 1CN         0.1505
     17 C7         -1.4530    9.1750   14.6500 C.ar      1 1CN         0.0840
     18 C6         -1.5770    9.0420   13.2100 C.ar      1 1CN         0.0566
     19 C3         -3.1560    7.1570   13.5310 C.ar      1 1CN         0.1013
     20 F          -2.1650    8.4320   16.8040 F         1 1CN        -0.1927
     21 CL         -0.7470    9.9220   12.2730 Cl        1 1CN        -0.0829
     22 N5         -0.6150   10.1360   15.2440 N.pl3     1 1CN        -0.3361
     23 H1         -5.5339   -0.9271   15.2150 H         1 1CN         0.1638
     24 H2         -4.7671   -1.2100   16.7421 H         1 1CN         0.1638
     25 H3         -5.5506    5.7623   14.5202 H         1 1CN         0.2340
     26 H4         -3.5714    6.6373   15.6121 H         1 1CN         0.0589
     27 H5         -2.3992    7.8521   11.5954 H         1 1CN         0.0574
     28 H6         -0.5524   10.2011   16.2700 H         1 1CN         0.1712
     29 H7         -0.0639   10.7746   14.6529 H         1 1CN         0.1712
@<TRIPOS>BOND
     1    1    2 2  
     2    1    3 2  
     3    1    4 am 
     4    8    1 1  
     5    6    5 1  
     6    8    5 2  
     7    9    6 2  
     8    7    8 1  
     9    9    7 1  
    10   10    9 1  
    11   11   10 am 
    12   11   12 2  
    13   11   13 2  
    14   19   11 1  
    15   14   16 ar 
    16   19   14 ar 
    17   15   18 ar 
    18   15   19 ar 
    19   16   17 ar 
    20   16   20 1  
    21   17   18 ar 
    22   17   22 1  
    23   18   21 1  
    24    4   23 1  
    25    4   24 1  
    26   10   25 1  
    27   14   26 1  
    28   15   27 1  
    29   22   28 1  
    30   22   29 1  
@<TRIPOS>SUBSTRUCTURE
     1 1CN         1

