### 
### Created by X-TOOL on Mon Sep 10 21:12:56 2018
### 

@<TRIPOS>MOLECULE
2hog_ligand
   58    63     1     0     0
SMALL
GAST_HUCK


@<TRIPOS>ATOM
      1 C          14.1590   -2.6780   11.8960 C.ar      1 710        -0.0628
      2 C1         12.9890   -1.8780   11.7570 C.ar      1 710        -0.0262
      3 C2         13.0200   -0.7140   10.9040 C.ar      1 710        -0.0576
      4 C3         15.3630   -2.3500   11.2170 C.ar      1 710        -0.0556
      5 C4         15.4060   -1.1850   10.3740 C.ar      1 710         0.0263
      6 C5         14.2370   -0.4080   10.2400 C.ar      1 710        -0.0065
      7 N          14.5730    0.6110    9.3930 N.2       1 710        -0.3075
      8 N6         15.8420    0.5770    8.9690 N.pl3     1 710        -0.2384
      9 C7         16.3620   -0.5080    9.5570 C.2       1 710         0.1520
     10 C8         17.7760   -0.8610    9.3190 C.2       1 710         0.1053
     11 N9         18.6860   -0.0870    8.6610 N.pl3     1 710        -0.2752
     12 C10        18.4150   -2.0180    9.7130 C.2       1 710        -0.0464
     13 C11        19.7480   -1.9530    9.2840 C.ar      1 710        -0.0248
     14 C12        19.9020   -0.7210    8.6150 C.ar      1 710         0.0599
     15 C13        21.1360   -0.3100    8.0400 C.ar      1 710        -0.0455
     16 C14        22.2370   -1.2020    8.1480 C.ar      1 710        -0.0667
     17 C15        22.1150   -2.4550    8.8120 C.ar      1 710        -0.0141
     18 C16        20.8650   -2.8340    9.3850 C.ar      1 710        -0.0665
     19 C17        23.2870   -3.3990    8.8850 C.3       1 710        -0.0037
     20 N18        23.6250   -4.0830    7.5290 N.4       1 710         0.2458
     21 C19        24.6910   -5.1640    7.7260 C.3       1 710        -0.0307
     22 C20        25.0370   -5.8460    6.3840 C.3       1 710        -0.0123
     23 C21        23.7880   -6.4160    5.6990 C.3       1 710        -0.0434
     24 C22        22.7200   -5.3410    5.5140 C.3       1 710        -0.0123
     25 C23        22.3620   -4.6780    6.8490 C.3       1 710        -0.0307
     26 C24        11.7680   -2.2430   12.4990 C.2       1 710         0.0719
     27 C25        10.6950   -1.4370   13.0310 C.2       1 710         0.1306
     28 N26         9.8060   -2.2310   13.6370 N.pl3     1 710        -0.1748
     29 N27        10.3510   -3.4310   13.4570 N.2       1 710        -0.1047
     30 N28        11.5060   -3.5230   12.7970 N.2       1 710        -0.2279
     31 C29        10.4630    0.0350   13.0030 C.3       1 710         0.1135
     32 O           9.8800    0.5140   14.2080 O.3       1 710        -0.3765
     33 H1         14.1303   -3.5548   12.5327 H         1 710         0.0560
     34 H2         12.1412   -0.0927   10.7744 H         1 710         0.0563
     35 H3         16.2426   -2.9728   11.3332 H         1 710         0.0608
     36 H4         16.3127    1.2369    8.3335 H         1 710         0.2826
     37 H5         18.4889    0.8397    8.2569 H         1 710         0.2188
     38 H6         17.9616   -2.8412   10.2632 H         1 710         0.0387
     39 H7         21.2330    0.6463    7.5389 H         1 710         0.0529
     40 H8         23.1906   -0.9220    7.7152 H         1 710         0.0505
     41 H9         20.7646   -3.7857    9.8941 H         1 710         0.0467
     42 H10        23.0561   -4.1830    9.6212 H         1 710         0.0959
     43 H11        24.1692   -2.8322    9.2173 H         1 710         0.0959
     44 H12        24.0030   -3.3793    6.9143 H         1 710         0.2046
     45 H13        24.3111   -5.9212    8.4276 H         1 710         0.0814
     46 H14        25.5995   -4.7029    8.1407 H         1 710         0.0814
     47 H15        25.7455   -6.6659    6.5729 H         1 710         0.0317
     48 H16        25.5026   -5.1053    5.7172 H         1 710         0.0317
     49 H17        23.3773   -7.2266    6.3188 H         1 710         0.0269
     50 H18        24.0699   -6.8149    4.7134 H         1 710         0.0269
     51 H19        21.8164   -5.8026    5.0892 H         1 710         0.0317
     52 H20        23.0993   -4.5738    4.8230 H         1 710         0.0317
     53 H21        21.6370   -3.8710    6.6672 H         1 710         0.0814
     54 H22        21.9144   -5.4298    7.5157 H         1 710         0.0814
     55 H23         8.9299   -1.9796   14.1168 H         1 710         0.2677
     56 H24         9.7890    0.2707   12.1663 H         1 710         0.0791
     57 H25        11.4273    0.5420   12.8511 H         1 710         0.0791
     58 H26         9.7510    1.4531   14.1446 H         1 710         0.2135
@<TRIPOS>BOND
     1    1    2 ar 
     2    1    4 ar 
     3    2    3 ar 
     4    2   26 1  
     5    3    6 ar 
     6    4    5 ar 
     7    5    6 ar 
     8    5    9 2  
     9    6    7 2  
    10    7    8 1  
    11    8    9 1  
    12    9   10 1  
    13   10   11 1  
    14   10   12 2  
    15   11   14 1  
    16   12   13 1  
    17   13   14 ar 
    18   13   18 ar 
    19   14   15 ar 
    20   15   16 ar 
    21   16   17 ar 
    22   17   18 ar 
    23   17   19 1  
    24   19   20 1  
    25   20   21 1  
    26   20   25 1  
    27   21   22 1  
    28   22   23 1  
    29   23   24 1  
    30   24   25 1  
    31   26   27 2  
    32   26   30 1  
    33   27   28 1  
    34   27   31 1  
    35   28   29 1  
    36   29   30 2  
    37   31   32 1  
    38    1   33 1  
    39    3   34 1  
    40    4   35 1  
    41    8   36 1  
    42   11   37 1  
    43   12   38 1  
    44   15   39 1  
    45   16   40 1  
    46   18   41 1  
    47   19   42 1  
    48   19   43 1  
    49   20   44 1  
    50   21   45 1  
    51   21   46 1  
    52   22   47 1  
    53   22   48 1  
    54   23   49 1  
    55   23   50 1  
    56   24   51 1  
    57   24   52 1  
    58   25   53 1  
    59   25   54 1  
    60   28   55 1  
    61   31   56 1  
    62   31   57 1  
    63   32   58 1  
@<TRIPOS>SUBSTRUCTURE
     1 710         1

