### 
### Created by X-TOOL on Mon Sep 10 21:12:53 2018
### 

@<TRIPOS>MOLECULE
2hs1_ligand
   75    78     1     0     0
SMALL
GAST_HUCK


@<TRIPOS>ATOM
      1 N1         -1.2940    8.2620   29.8300 N.pl3     1 017        -0.3369
      2 C2         -0.8280    8.5490   31.1020 C.ar      1 017         0.0353
      3 C3          0.4250    8.0880   31.4730 C.ar      1 017        -0.0429
      4 C4          0.9200    8.3460   32.7100 C.ar      1 017        -0.0471
      5 C5          0.1980    9.0660   33.6280 C.ar      1 017         0.0949
      6 C6         -1.0480    9.5490   33.3140 C.ar      1 017        -0.0471
      7 C7         -1.5610    9.2870   32.0450 C.ar      1 017        -0.0429
      8 S8          0.7890    9.2590   35.2520 S.o2      1 017         0.0648
      9 O9          2.2310    9.0680   35.1950 O.2       1 017        -0.1518
     10 O10         0.2870   10.4610   35.7810 O.2       1 017        -0.1518
     11 N11         0.1740    8.0660   36.2430 N.am      1 017        -0.2327
     12 C12        -1.2910    8.0190   36.3910 C.3       1 017         0.0319
     13 C13        -1.7500    7.6730   37.7900 C.3       1 017        -0.0296
     14 C14        -1.2450    8.6560   38.8220 C.3       1 017        -0.0612
     15 C15        -3.2530    7.5460   37.8520 C.3       1 017        -0.0612
     16 C16         0.8050    6.7340   36.2310 C.3       1 017         0.0578
     17 C17         1.4980    6.4280   37.5590 C.3       1 017         0.0967
     18 O18         1.8620    5.0460   37.5910 O.3       1 017        -0.3877
     19 C19         2.7360    7.2970   37.8680 C.3       1 017         0.0807
     20 N20         3.1030    7.0790   39.2530 N.am      1 017        -0.2550
     21 C21         2.9370    8.0290   40.2010 C.2       1 017         0.3203
     22 O22         2.5280    9.2000   40.0720 O.2       1 017        -0.3775
     23 O23         3.3030    7.5090   41.3910 O.3       1 017        -0.2578
     24 C24         3.4220    8.4640   42.5090 C.3       1 017         0.1189
     25 C25         2.9760    7.6430   43.7780 C.3       1 017         0.0815
     26 O26         4.0980    6.7860   44.0650 O.3       1 017        -0.3480
     27 C27         5.2850    7.5520   43.7520 C.3       1 017         0.1648
     28 O28         6.1250    6.7300   43.0080 O.3       1 017        -0.3509
     29 C29         6.2670    7.2060   41.6490 C.3       1 017         0.0512
     30 C30         5.8740    8.6700   41.7000 C.3       1 017        -0.0191
     31 C31         4.8810    8.7320   42.8400 C.3       1 017         0.0449
     32 C32         3.9560    7.0470   36.9580 C.3       1 017         0.0064
     33 C33         6.2390    7.3670   37.9690 C.ar      1 017        -0.0603
     34 C34         7.3210    8.1750   38.3500 C.ar      1 017        -0.0686
     35 C35         7.2620    9.5160   38.1280 C.ar      1 017        -0.0687
     36 C36         6.1490   10.0800   37.5210 C.ar      1 017        -0.0686
     37 C37         5.0910    9.3160   37.1470 C.ar      1 017        -0.0603
     38 C38         5.1240    7.9490   37.3620 C.ar      1 017        -0.0408
     39 H1         -0.7118    7.7156   29.1794 H         1 017         0.1719
     40 H2         -2.2228    8.5950   29.5345 H         1 017         0.1719
     41 H3          1.0161    7.5152   30.7676 H         1 017         0.0515
     42 H4          1.9034    7.9766   32.9775 H         1 017         0.0602
     43 H5         -1.6195   10.1208   34.0362 H         1 017         0.0602
     44 H6         -2.5441    9.6599   31.7812 H         1 017         0.0515
     45 H7         -1.6859    7.2610   35.6986 H         1 017         0.0480
     46 H8         -1.6987    9.0057   36.1259 H         1 017         0.0480
     47 H9         -1.3240    6.6900   38.0395 H         1 017         0.0311
     48 H10        -1.6058    8.3597   39.8180 H         1 017         0.0233
     49 H11        -1.6168    9.6630   38.5820 H         1 017         0.0233
     50 H12        -0.1450    8.6603   38.8169 H         1 017         0.0233
     51 H13        -3.5918    6.8263   37.0922 H         1 017         0.0233
     52 H14        -3.7122    8.5267   37.6586 H         1 017         0.0233
     53 H15        -3.5503    7.1924   38.8503 H         1 017         0.0233
     54 H16         1.5505    6.6993   35.4230 H         1 017         0.0504
     55 H17         0.0311    5.9739   36.0487 H         1 017         0.0504
     56 H18         0.7653    6.6115   38.3587 H         1 017         0.0634
     57 H19         2.4533    4.8587   36.8714 H         1 017         0.2100
     58 H20         2.4441    8.3500   37.7417 H         1 017         0.0604
     59 H21         3.4921    6.1963   39.5165 H         1 017         0.1873
     60 H22         2.8439    9.3837   42.3362 H         1 017         0.0675
     61 H23         2.0774    7.0473   43.5598 H         1 017         0.0590
     62 H24         2.7735    8.3153   44.6248 H         1 017         0.0590
     63 H25         5.7796    7.9086   44.6675 H         1 017         0.0913
     64 H26         5.5999    6.6504   40.9735 H         1 017         0.0561
     65 H27         7.3072    7.0971   41.3084 H         1 017         0.0561
     66 H28         5.4072    8.9846   40.7550 H         1 017         0.0293
     67 H29         6.7486    9.3045   41.9060 H         1 017         0.0293
     68 H30         4.9688    9.7021   43.3510 H         1 017         0.0380
     69 H31         3.6787    7.2603   35.9151 H         1 017         0.0449
     70 H32         4.2642    5.9949   37.0477 H         1 017         0.0449
     71 H33         6.2684    6.2977   38.1447 H         1 017         0.0557
     72 H34         8.1951    7.7352   38.8165 H         1 017         0.0599
     73 H35         8.0902   10.1481   38.4274 H         1 017         0.0559
     74 H36         6.1239   11.1489   37.3424 H         1 017         0.0599
     75 H37         4.2252    9.7739   36.6826 H         1 017         0.0557
@<TRIPOS>BOND
     1    2    1 1  
     2    3    2 ar 
     3    7    2 ar 
     4    4    3 ar 
     5    5    4 ar 
     6    5    6 ar 
     7    8    5 1  
     8    6    7 ar 
     9    8    9 2  
    10    8   10 2  
    11   11    8 am 
    12   11   12 1  
    13   16   11 1  
    14   12   13 1  
    15   13   14 1  
    16   13   15 1  
    17   17   16 1  
    18   17   18 1  
    19   19   17 1  
    20   19   20 1  
    21   32   19 1  
    22   20   21 am 
    23   21   22 2  
    24   21   23 1  
    25   23   24 1  
    26   24   25 1  
    27   24   31 1  
    28   25   26 1  
    29   27   26 1  
    30   27   28 1  
    31   31   27 1  
    32   29   28 1  
    33   30   29 1  
    34   31   30 1  
    35   38   32 1  
    36   33   34 ar 
    37   33   38 ar 
    38   34   35 ar 
    39   35   36 ar 
    40   36   37 ar 
    41   37   38 ar 
    42    1   39 1  
    43    1   40 1  
    44    3   41 1  
    45    4   42 1  
    46    6   43 1  
    47    7   44 1  
    48   12   45 1  
    49   12   46 1  
    50   13   47 1  
    51   14   48 1  
    52   14   49 1  
    53   14   50 1  
    54   15   51 1  
    55   15   52 1  
    56   15   53 1  
    57   16   54 1  
    58   16   55 1  
    59   17   56 1  
    60   18   57 1  
    61   19   58 1  
    62   20   59 1  
    63   24   60 1  
    64   25   61 1  
    65   25   62 1  
    66   27   63 1  
    67   29   64 1  
    68   29   65 1  
    69   30   66 1  
    70   30   67 1  
    71   31   68 1  
    72   32   69 1  
    73   32   70 1  
    74   33   71 1  
    75   34   72 1  
    76   35   73 1  
    77   36   74 1  
    78   37   75 1  
@<TRIPOS>SUBSTRUCTURE
     1 017         1

