### 
### Created by X-TOOL on Mon Sep 10 21:12:53 2018
### 

@<TRIPOS>MOLECULE
2hs2_ligand
   75    78     1     0     0
SMALL
GAST_HUCK


@<TRIPOS>ATOM
      1 N1         -1.1340    8.3150   29.9190 N.pl3     1 017        -0.3369
      2 C2         -0.6920    8.5640   31.1990 C.ar      1 017         0.0353
      3 C3          0.5620    8.1180   31.6170 C.ar      1 017        -0.0429
      4 C4          1.0190    8.3660   32.9120 C.ar      1 017        -0.0471
      5 C5          0.2090    9.0700   33.8020 C.ar      1 017         0.0949
      6 C6         -1.0480    9.5190   33.3890 C.ar      1 017        -0.0471
      7 C7         -1.5170    9.2760   32.0910 C.ar      1 017        -0.0429
      8 S8          0.8330    9.2460   35.4870 S.o2      1 017         0.0648
      9 O9          2.2730    9.0540   35.3980 O.2       1 017        -0.1518
     10 O10         0.3180   10.5000   36.0330 O.2       1 017        -0.1518
     11 N11         0.1790    7.9900   36.4100 N.am      1 017        -0.2327
     12 C12        -1.2770    7.9740   36.6370 C.3       1 017         0.0319
     13 C13        -1.6860    7.6240   38.0700 C.3       1 017        -0.0296
     14 C14        -1.3470    8.7190   39.0730 C.3       1 017        -0.0612
     15 C15        -3.1710    7.2880   38.0850 C.3       1 017        -0.0612
     16 C16         0.8050    6.6540   36.3730 C.3       1 017         0.0578
     17 C17         1.5520    6.3500   37.6780 C.3       1 017         0.0967
     18 O18         1.9230    4.9680   37.6790 O.3       1 017        -0.3877
     19 C19         2.7400    7.2720   37.9880 C.3       1 017         0.0807
     20 N20         3.0860    7.0990   39.3960 N.am      1 017        -0.2550
     21 C21         2.9650    7.9710   40.4010 C.2       1 017         0.3203
     22 O22         2.5800    9.1220   40.2330 O.2       1 017        -0.3775
     23 O23         3.3200    7.4150   41.6010 O.3       1 017        -0.2578
     24 C24         3.3320    8.3160   42.7500 C.3       1 017         0.1189
     25 C25         2.9340    7.4970   43.9950 C.3       1 017         0.0815
     26 O26         4.0870    6.6850   44.2790 O.3       1 017        -0.3480
     27 C27         5.2350    7.4880   43.9720 C.3       1 017         0.1648
     28 O28         6.1130    6.7090   43.2210 O.3       1 017        -0.3509
     29 C29         6.2500    7.2350   41.9090 C.3       1 017         0.0512
     30 C30         5.8000    8.6640   41.9280 C.3       1 017        -0.0191
     31 C31         4.7770    8.6940   43.1060 C.3       1 017         0.0449
     32 C32         3.9670    6.9630   37.0980 C.3       1 017         0.0064
     33 C33         6.2560    7.2800   38.1610 C.ar      1 017        -0.0603
     34 C34         7.3030    8.1060   38.5460 C.ar      1 017        -0.0686
     35 C35         7.2450    9.4680   38.3150 C.ar      1 017        -0.0687
     36 C36         6.1250   10.0360   37.6900 C.ar      1 017        -0.0686
     37 C37         5.0670    9.2190   37.2970 C.ar      1 017        -0.0603
     38 C38         5.1290    7.8460   37.5300 C.ar      1 017        -0.0408
     39 H1         -0.5371    7.7950   29.2601 H         1 017         0.1719
     40 H2         -2.0616    8.6487   29.6204 H         1 017         0.1719
     41 H3          1.1913    7.5702   30.9250 H         1 017         0.0515
     42 H4          1.9959    8.0141   33.2234 H         1 017         0.0602
     43 H5         -1.6725   10.0659   34.0861 H         1 017         0.0602
     44 H6         -2.4938    9.6285   31.7802 H         1 017         0.0515
     45 H7         -1.7234    7.2309   35.9599 H         1 017         0.0480
     46 H8         -1.6740    8.9719   36.3992 H         1 017         0.0480
     47 H9         -1.1287    6.7240   38.3690 H         1 017         0.0311
     48 H10        -1.6652    8.4065   40.0785 H         1 017         0.0233
     49 H11        -1.8697    9.6459   38.7946 H         1 017         0.0233
     50 H12        -0.2612    8.8954   39.0704 H         1 017         0.0233
     51 H13        -3.3751    6.4957   37.3497 H         1 017         0.0233
     52 H14        -3.7527    8.1855   37.8279 H         1 017         0.0233
     53 H15        -3.4581    6.9399   39.0882 H         1 017         0.0233
     54 H16         1.5172    6.6154   35.5356 H         1 017         0.0504
     55 H17         0.0221    5.8958   36.2238 H         1 017         0.0504
     56 H18         0.8321    6.4972   38.4966 H         1 017         0.0634
     57 H19         2.4861    4.7919   36.9344 H         1 017         0.2100
     58 H20         2.4367    8.3148   37.8132 H         1 017         0.0604
     59 H21         3.4650    6.2067   39.6414 H         1 017         0.1873
     60 H22         2.6897    9.1929   42.5811 H         1 017         0.0675
     61 H23         2.0582    6.8666   43.7815 H         1 017         0.0590
     62 H24         2.7094    8.1621   44.8419 H         1 017         0.0590
     63 H25         5.7206    7.8390   44.8945 H         1 017         0.0913
     64 H26         5.6273    6.6579   41.2096 H         1 017         0.0561
     65 H27         7.3025    7.1803   41.5939 H         1 017         0.0561
     66 H28         5.3177    8.9393   40.9785 H         1 017         0.0293
     67 H29         6.6446    9.3420   42.1205 H         1 017         0.0293
     68 H30         4.8124    9.6586   43.6335 H         1 017         0.0380
     69 H31         3.7200    7.1676   36.0458 H         1 017         0.0449
     70 H32         4.2466    5.9050   37.2101 H         1 017         0.0449
     71 H33         6.3041    6.2125   38.3432 H         1 017         0.0557
     72 H34         8.1733    7.6798   39.0318 H         1 017         0.0599
     73 H35         8.0707   10.1012   38.6190 H         1 017         0.0559
     74 H36         6.0828   11.1047   37.5137 H         1 017         0.0599
     75 H37         4.1986    9.6496   36.8117 H         1 017         0.0557
@<TRIPOS>BOND
     1    2    1 1  
     2    3    2 ar 
     3    7    2 ar 
     4    4    3 ar 
     5    5    4 ar 
     6    5    6 ar 
     7    8    5 1  
     8    6    7 ar 
     9    8    9 2  
    10    8   10 2  
    11   11    8 am 
    12   11   12 1  
    13   16   11 1  
    14   12   13 1  
    15   13   14 1  
    16   13   15 1  
    17   17   16 1  
    18   17   18 1  
    19   19   17 1  
    20   19   20 1  
    21   32   19 1  
    22   20   21 am 
    23   21   22 2  
    24   21   23 1  
    25   23   24 1  
    26   24   25 1  
    27   24   31 1  
    28   25   26 1  
    29   27   26 1  
    30   27   28 1  
    31   31   27 1  
    32   29   28 1  
    33   30   29 1  
    34   31   30 1  
    35   38   32 1  
    36   33   34 ar 
    37   33   38 ar 
    38   34   35 ar 
    39   35   36 ar 
    40   36   37 ar 
    41   37   38 ar 
    42    1   39 1  
    43    1   40 1  
    44    3   41 1  
    45    4   42 1  
    46    6   43 1  
    47    7   44 1  
    48   12   45 1  
    49   12   46 1  
    50   13   47 1  
    51   14   48 1  
    52   14   49 1  
    53   14   50 1  
    54   15   51 1  
    55   15   52 1  
    56   15   53 1  
    57   16   54 1  
    58   16   55 1  
    59   17   56 1  
    60   18   57 1  
    61   19   58 1  
    62   20   59 1  
    63   24   60 1  
    64   25   61 1  
    65   25   62 1  
    66   27   63 1  
    67   29   64 1  
    68   29   65 1  
    69   30   66 1  
    70   30   67 1  
    71   31   68 1  
    72   32   69 1  
    73   32   70 1  
    74   33   71 1  
    75   34   72 1  
    76   35   73 1  
    77   36   74 1  
    78   37   75 1  
@<TRIPOS>SUBSTRUCTURE
     1 017         1

