### 
### Created by X-TOOL on Mon Sep 10 21:12:53 2018
### 

@<TRIPOS>MOLECULE
2hu6_ligand
   49    52     1     0     0
SMALL
GAST_HUCK


@<TRIPOS>ATOM
      1 O6          0.5330   -5.8410    5.5950 O.2       1 37A        -0.3940
      2 C9          1.5110   -6.3100    5.0200 C.2       1 37A         0.2098
      3 C6          1.3270   -7.1570    3.7870 C.3       1 37A         0.1781
      4 O2          2.5770   -7.5640    3.2180 O.3       1 37A        -0.3228
      5 C5          0.6860   -6.4020    2.6370 C.3       1 37A         0.1249
      6 C7          0.0110   -7.4110    1.7120 C.3       1 37A         0.0653
      7 N1          1.0300   -8.3930    1.2810 N.am      1 37A        -0.2506
      8 C21         0.8530   -9.7200    1.2870 C.2       1 37A         0.2839
      9 O1          1.3590  -10.4160    0.4140 O.2       1 37A        -0.4008
     10 N2          0.1180  -10.2950    2.2360 N.am      1 37A        -0.1503
     11 O4         -0.1440  -11.6660    2.1790 O.3       1 37A        -0.2719
     12 C3          2.3170   -7.8590    0.8330 C.3       1 37A         0.0854
     13 O3          1.7960   -5.8640    1.9350 O.3       1 37A        -0.3389
     14 C1          2.7420   -6.9180    1.9470 C.3       1 37A         0.1829
     15 N3          2.7700   -6.1330    5.4250 N.am      1 37A        -0.2732
     16 C12         3.1510   -5.3630    6.6000 C.3       1 37A         0.0650
     17 C13         4.3560   -6.0030    7.2710 C.ar      1 37A        -0.0200
     18 C15         4.3010   -6.4440    8.5970 C.ar      1 37A        -0.0570
     19 C19         5.4250   -7.0210    9.1910 C.ar      1 37A        -0.0600
     20 C17         6.6190   -7.1670    8.4750 C.ar      1 37A        -0.0242
     21 C16         6.6680   -6.7290    7.1510 C.ar      1 37A        -0.0600
     22 C14         5.5480   -6.1440    6.5620 C.ar      1 37A        -0.0570
     23 C18         7.8190   -7.8030    9.1070 C.ar      1 37A        -0.0221
     24 C11         9.1190   -7.4480    8.7320 C.ar      1 37A        -0.0557
     25 C2         10.2200   -8.0620    9.3320 C.ar      1 37A        -0.0622
     26 C20         7.6380   -8.7880   10.0810 C.ar      1 37A        -0.0557
     27 C10         8.7380   -9.3990   10.6870 C.ar      1 37A        -0.0622
     28 C4         10.0310   -9.0370   10.3120 C.ar      1 37A        -0.0627
     29 H1          0.7202   -8.0344    4.0552 H         1 37A         0.0869
     30 H2         -0.0170   -5.6286    2.9799 H         1 37A         0.0669
     31 H3         -0.4026   -6.8933    0.8340 H         1 37A         0.0547
     32 H4         -0.7990   -7.9258    2.2495 H         1 37A         0.0547
     33 H5         -0.2461   -9.7465    2.9887 H         1 37A         0.2209
     34 H6         -0.6774  -11.9166    2.9242 H         1 37A         0.2486
     35 H7          2.2036   -7.3136   -0.1155 H         1 37A         0.0569
     36 H8          3.0512   -8.6680    0.7052 H         1 37A         0.0569
     37 H9          3.7725   -6.5606    1.8044 H         1 37A         0.0932
     38 H10         3.4986   -6.5566    4.8867 H         1 37A         0.1879
     39 H11         2.3097   -5.3384    7.3083 H         1 37A         0.0687
     40 H12         3.4051   -4.3367    6.2966 H         1 37A         0.0687
     41 H13         3.3837   -6.3376    9.1648 H         1 37A         0.0561
     42 H14         5.3725   -7.3601   10.2193 H         1 37A         0.0609
     43 H15         7.5809   -6.8441    6.5780 H         1 37A         0.0609
     44 H16         5.6048   -5.7936    5.5377 H         1 37A         0.0561
     45 H17         9.2725   -6.6916    7.9709 H         1 37A         0.0615
     46 H18        11.2241   -7.7806    9.0358 H         1 37A         0.0615
     47 H19         6.6348   -9.0807   10.3690 H         1 37A         0.0615
     48 H20         8.5864  -10.1548   11.4491 H         1 37A         0.0615
     49 H21        10.8862   -9.5111   10.7799 H         1 37A         0.0610
@<TRIPOS>BOND
     1    1    2 2  
     2    2    3 1  
     3    2   15 am 
     4    3    4 1  
     5    3    5 1  
     6    4   14 1  
     7    5    6 1  
     8    5   13 1  
     9    6    7 1  
    10    7    8 am 
    11    7   12 1  
    12    8    9 2  
    13    8   10 am 
    14   10   11 1  
    15   12   14 1  
    16   13   14 1  
    17   15   16 1  
    18   16   17 1  
    19   17   18 ar 
    20   17   22 ar 
    21   18   19 ar 
    22   19   20 ar 
    23   20   21 ar 
    24   20   23 1  
    25   21   22 ar 
    26   23   24 ar 
    27   23   26 ar 
    28   24   25 ar 
    29   25   28 ar 
    30   26   27 ar 
    31   27   28 ar 
    32    3   29 1  
    33    5   30 1  
    34    6   31 1  
    35    6   32 1  
    36   10   33 1  
    37   11   34 1  
    38   12   35 1  
    39   12   36 1  
    40   14   37 1  
    41   15   38 1  
    42   16   39 1  
    43   16   40 1  
    44   18   41 1  
    45   19   42 1  
    46   21   43 1  
    47   22   44 1  
    48   24   45 1  
    49   25   46 1  
    50   26   47 1  
    51   27   48 1  
    52   28   49 1  
@<TRIPOS>SUBSTRUCTURE
     1 37A         1

