### 
### Created by X-TOOL on Mon Sep 10 21:12:56 2018
### 

@<TRIPOS>MOLECULE
2hvc_ligand
   35    36     1     0     0
SMALL
GAST_HUCK


@<TRIPOS>ATOM
      1 N1          1.9340   25.8520    4.6770 N.am      1 LGD        -0.2240
      2 C2          3.3210   25.6260    4.7650 C.2       1 LGD         0.2653
      3 C3          4.2310   26.7400    4.9300 C.2       1 LGD         0.0728
      4 C4          3.7160   28.1130    5.0010 C.2       1 LGD         0.0685
      5 F1          4.4960   29.9010    6.3800 F         1 LGD        -0.2255
      6 F2          6.0420   28.8460    5.2560 F         1 LGD        -0.2255
      7 F3          4.6510   30.2950    4.2880 F         1 LGD        -0.2255
      8 C5          2.2600   28.3290    4.9030 C.ar      1 LGD         0.0081
      9 C6          1.6350   29.6370    4.9550 C.ar      1 LGD        -0.0444
     10 C7          0.1990   29.8400    4.8680 C.ar      1 LGD         0.0309
     11 C8         -0.6400   28.6270    4.7170 C.ar      1 LGD        -0.0507
     12 C9         -0.0610   27.3060    4.6500 C.ar      1 LGD        -0.0420
     13 C10         1.3690   27.1430    4.7380 C.ar      1 LGD         0.0771
     14 C11         4.7600   29.3240    5.1990 C.3       1 LGD         0.3764
     15 C12        -1.8550   31.5670    4.9150 C.3       1 LGD         0.1199
     16 N13        -0.3620   31.2670    4.9370 N.pl3     1 LGD        -0.2979
     17 C14         0.5070   32.4560    4.7940 C.3       1 LGD         0.1199
     18 F4         -3.6400   31.7120    5.9470 F         1 LGD        -0.1686
     19 F5         -2.5160   30.1680    6.6510 F         1 LGD        -0.1686
     20 F6         -1.9250   32.0570    7.2650 F         1 LGD        -0.1686
     21 C15        -2.3970   31.3550    6.2240 C.3       1 LGD         0.4086
     22 F7          0.4080   34.3030    4.1280 F         1 LGD        -0.1686
     23 F8          1.9790   33.1860    3.4670 F         1 LGD        -0.1686
     24 F9          0.1470   32.8420    2.5910 F         1 LGD        -0.1686
     25 C16         0.7660   33.1050    3.7470 C.3       1 LGD         0.4086
     26 O21         3.7340   24.4790    4.7060 O.2       1 LGD        -0.3650
     27 H1          1.3254   25.0662    4.5669 H         1 LGD         0.2342
     28 H2          5.3024   26.5586    5.0018 H         1 LGD         0.1316
     29 H3          2.2718   30.5074    5.0643 H         1 LGD         0.0486
     30 H4         -1.7169   28.7347    4.6552 H         1 LGD         0.0520
     31 H5         -0.7002   26.4383    4.5337 H         1 LGD         0.0502
     32 H6         -2.3540   30.8990    4.1975 H         1 LGD         0.0598
     33 H7         -2.0158   32.6131    4.6152 H         1 LGD         0.0598
     34 H8          1.4883   32.1306    5.1697 H         1 LGD         0.0598
     35 H9          0.0784   33.1987    5.4830 H         1 LGD         0.0598
@<TRIPOS>BOND
     1    1    2 am 
     2    1   13 1  
     3    2    3 1  
     4    2   26 2  
     5    3    4 2  
     6    4    8 1  
     7    4   14 1  
     8   14    5 1  
     9   14    6 1  
    10   14    7 1  
    11    8    9 ar 
    12    8   13 ar 
    13    9   10 ar 
    14   10   11 ar 
    15   10   16 1  
    16   11   12 ar 
    17   12   13 ar 
    18   16   15 1  
    19   15   21 1  
    20   16   17 1  
    21   17   25 1  
    22   21   18 1  
    23   21   19 1  
    24   21   20 1  
    25   25   22 1  
    26   25   23 1  
    27   25   24 1  
    28    1   27 1  
    29    3   28 1  
    30    9   29 1  
    31   11   30 1  
    32   12   31 1  
    33   15   32 1  
    34   15   33 1  
    35   17   34 1  
    36   17   35 1  
@<TRIPOS>SUBSTRUCTURE
     1 LGD         1

