### 
### Created by X-TOOL on Fri Sep 26 17:34:35 2014
### 

@<TRIPOS>MOLECULE
2hw2_ligand
  118   122     1     0     0
SMALL
GAST_HUCK


@<TRIPOS>ATOM
      1 C1        -12.1940    6.9340  -21.1300 C.ar      1 RFP         0.1064
      2 C2        -12.8050    8.1620  -20.8790 C.ar      1 RFP         0.0941
      3 C3        -12.2590    9.0140  -19.9250 C.ar      1 RFP         0.0328
      4 C4        -11.0880    8.6600  -19.2330 C.ar      1 RFP         0.0879
      5 C5         -9.3150    6.9290  -18.7860 C.ar      1 RFP         0.0461
      6 C6         -8.8380    5.6690  -19.0140 C.ar      1 RFP         0.1025
      7 C7         -9.3670    4.8420  -19.9820 C.ar      1 RFP         0.0198
      8 C8        -10.4520    5.2850  -20.6760 C.ar      1 RFP         0.0998
      9 C9        -11.0440    6.5450  -20.4220 C.ar      1 RFP         0.0297
     10 C10       -10.4720    7.4000  -19.4610 C.ar      1 RFP         0.0025
     11 C11        -8.4910    7.4830  -17.6630 C.2       1 RFP         0.1822
     12 C12        -7.6110    6.3680  -17.1450 C.3       1 RFP         0.2590
     13 C13        -6.1490    6.7430  -16.9490 C.3       1 RFP        -0.0005
     14 C14        -8.7420    3.4960  -20.2600 C.3       1 RFP        -0.0346
     15 C15       -14.3110    9.4600  -22.3070 C.2       1 RFP         0.2176
     16 C16       -15.6550    9.5430  -22.9080 C.2       1 RFP         0.0212
     17 C17       -16.8190    9.2210  -22.3160 C.2       1 RFP        -0.0662
     18 C18       -17.0060    8.7910  -20.9050 C.2       1 RFP        -0.0756
     19 C19       -18.2380    8.3880  -20.5380 C.2       1 RFP        -0.0707
     20 C20       -18.7320    7.8740  -19.1590 C.3       1 RFP         0.0137
     21 C21       -17.5470    7.2460  -18.3740 C.3       1 RFP         0.0738
     22 C22       -17.9370    6.7560  -16.9610 C.3       1 RFP         0.0112
     23 C23       -16.7700    6.0870  -16.2320 C.3       1 RFP         0.0656
     24 C24       -15.4590    6.9540  -16.1950 C.3       1 RFP         0.0137
     25 C25       -14.3400    6.2000  -15.3880 C.3       1 RFP         0.0986
     26 C26       -12.9340    6.8190  -15.3980 C.3       1 RFP         0.0179
     27 C27       -11.9150    5.8640  -14.7040 C.3       1 RFP         0.0761
     28 C28       -10.4410    6.3590  -14.7020 C.2       1 RFP        -0.0510
     29 C29        -9.5800    5.7490  -15.5680 C.2       1 RFP         0.0372
     30 C30       -15.7220   10.0130  -24.3360 C.3       1 RFP        -0.0276
     31 C31       -19.3160    9.0730  -18.4000 C.3       1 RFP        -0.0483
     32 C32       -19.1470    5.7750  -17.0110 C.3       1 RFP        -0.0575
     33 C33       -15.7860    8.3230  -15.5620 C.3       1 RFP        -0.0573
     34 C34       -12.5520    6.9920  -16.8660 C.3       1 RFP        -0.0561
     35 C35       -15.0960    5.0240  -13.3270 C.2       1 RFP         0.2309
     36 C36       -15.5220    5.2060  -11.8920 C.3       1 RFP         0.0372
     37 C37       -11.7220    3.4930  -14.5420 C.3       1 RFP         0.0387
     38 C38       -10.2210   13.4480  -18.1840 C.3       1 RFP        -0.0429
     39 C39       -11.8600   14.6910  -19.6840 C.3       1 RFP        -0.0106
     40 C40       -12.7320   13.7460  -20.5030 C.3       1 RFP         0.0792
     41 C41       -13.6410   12.8200  -18.3450 C.3       1 RFP         0.0792
     42 C42       -12.6690   13.6910  -17.5340 C.3       1 RFP        -0.0106
     43 C43       -12.9700   10.2750  -19.7100 C.2       1 RFP         0.0158
     44 N1        -13.9840    8.4070  -21.5590 N.am      1 RFP        -0.2425
     45 N2        -12.2780   11.3570  -19.8200 N.2       1 RFP        -0.2308
     46 N3        -12.8970   12.6200  -19.5880 N.pl3     1 RFP        -0.2498
     47 N4        -11.5750   13.9460  -18.4580 N.4       1 RFP         0.2360
     48 O1        -12.8320    6.1350  -22.0730 O.3       1 RFP        -0.3465
     49 O2        -10.9630    4.4690  -21.6260 O.3       1 RFP        -0.3316
     50 O3         -7.7450    5.3560  -18.2420 O.3       1 RFP        -0.2861
     51 O4         -8.6210    8.5800  -17.0980 O.2       1 RFP        -0.3567
     52 O5         -8.1440    6.0860  -15.7630 O.3       1 RFP        -0.3068
     53 O6        -12.0400    4.5930  -15.3720 O.3       1 RFP        -0.3732
     54 O7        -14.7360    6.2190  -13.9850 O.3       1 RFP        -0.2729
     55 O8        -14.9760    3.9590  -13.9580 O.2       1 RFP        -0.3707
     56 O9        -16.4830    4.7980  -16.8590 O.3       1 RFP        -0.3911
     57 O10       -16.9930    6.1430  -19.0830 O.3       1 RFP        -0.3885
     58 O11       -13.4460   10.2650  -22.5220 O.2       1 RFP        -0.3828
     59 O12       -10.5540    9.5300  -18.3270 O.3       1 RFP        -0.3381
     60 H1         -5.5942    5.8711  -16.5720 H         1 RFP         0.0260
     61 H2         -6.0757    7.5661  -16.2230 H         1 RFP         0.0260
     62 H3         -5.7204    7.0627  -17.9103 H         1 RFP         0.0260
     63 H4         -7.8843    3.3442  -19.5881 H         1 RFP         0.0341
     64 H5         -8.4002    3.4592  -21.3049 H         1 RFP         0.0341
     65 H6         -9.4860    2.7040  -20.0894 H         1 RFP         0.0341
     66 H7        -17.7148    9.2813  -22.9323 H         1 RFP         0.0536
     67 H8        -16.1795    8.8014  -20.1960 H         1 RFP         0.0435
     68 H9        -18.9950    8.4286  -21.3199 H         1 RFP         0.0714
     69 H10       -19.5129    7.1128  -19.3031 H         1 RFP         0.0522
     70 H11       -16.7726    8.0199  -18.2668 H         1 RFP         0.0629
     71 H12       -18.2378    7.6385  -16.3773 H         1 RFP         0.0350
     72 H13       -17.0826    5.9096  -15.1924 H         1 RFP         0.0600
     73 H14       -15.1030    7.1140  -17.2234 H         1 RFP         0.0352
     74 H15       -14.2770    5.1683  -15.7643 H         1 RFP         0.0658
     75 H16       -12.9406    7.7915  -14.8840 H         1 RFP         0.0368
     76 H17       -12.2181    5.7456  -13.6532 H         1 RFP         0.0691
     77 H18       -10.1102    7.1571  -14.0390 H         1 RFP         0.0359
     78 H19        -9.9825    4.9385  -16.1738 H         1 RFP         0.0848
     79 H20       -14.7075   10.2411  -24.6949 H         1 RFP         0.0384
     80 H21       -16.3441   10.9182  -24.3953 H         1 RFP         0.0384
     81 H22       -16.1632    9.2232  -24.9617 H         1 RFP         0.0384
     82 H23       -20.1515    9.4992  -18.9748 H         1 RFP         0.0262
     83 H24       -18.5361    9.8370  -18.2655 H         1 RFP         0.0262
     84 H25       -19.6791    8.7424  -17.4157 H         1 RFP         0.0262
     85 H26       -19.9867    6.2550  -17.5350 H         1 RFP         0.0234
     86 H27       -19.4531    5.5178  -15.9863 H         1 RFP         0.0234
     87 H28       -18.8552    4.8599  -17.5471 H         1 RFP         0.0234
     88 H29       -16.5704    8.8211  -16.1507 H         1 RFP         0.0234
     89 H30       -14.8812    8.9485  -15.5533 H         1 RFP         0.0234
     90 H31       -16.1396    8.1752  -14.5309 H         1 RFP         0.0234
     91 H32       -13.2710    7.6657  -17.3550 H         1 RFP         0.0235
     92 H33       -12.5679    6.0128  -17.3669 H         1 RFP         0.0235
     93 H34       -11.5419    7.4222  -16.9338 H         1 RFP         0.0235
     94 H35       -15.7831    4.2285  -11.4603 H         1 RFP         0.0483
     95 H36       -16.3975    5.8706  -11.8509 H         1 RFP         0.0483
     96 H37       -14.6961    5.6515  -11.3180 H         1 RFP         0.0483
     97 H38       -11.8375    2.5588  -15.1111 H         1 RFP         0.0525
     98 H39       -12.3988    3.4801  -13.6749 H         1 RFP         0.0525
     99 H40       -10.6824    3.5844  -14.1944 H         1 RFP         0.0525
    100 H41        -9.5479   13.7475  -19.0009 H         1 RFP         0.0778
    101 H42       -10.2419   12.3507  -18.1098 H         1 RFP         0.0778
    102 H43        -9.8589   13.8728  -17.2362 H         1 RFP         0.0778
    103 H44       -12.4000   15.6222  -19.4577 H         1 RFP         0.0835
    104 H45       -10.9299   14.9277  -20.2215 H         1 RFP         0.0835
    105 H46       -12.2266   13.4375  -21.4300 H         1 RFP         0.0583
    106 H47       -13.7000   14.2068  -20.7490 H         1 RFP         0.0583
    107 H48       -14.5914   13.3431  -18.5268 H         1 RFP         0.0583
    108 H49       -13.8397   11.8638  -17.8389 H         1 RFP         0.0583
    109 H50       -12.3118   13.1536  -16.6431 H         1 RFP         0.0835
    110 H51       -13.1493   14.6317  -17.2268 H         1 RFP         0.0835
    111 H52       -14.0317   10.2981  -19.4689 H         1 RFP         0.0733
    112 H53       -14.6853    7.6987  -21.4785 H         1 RFP         0.2212
    113 H54       -11.3572   14.8040  -17.9758 H         1 RFP         0.2032
    114 H55       -12.2271    5.9340  -22.7774 H         1 RFP         0.2412
    115 H56       -11.8634    4.2575  -21.4093 H         1 RFP         0.2505
    116 H57       -16.1714    4.9405  -17.7450 H         1 RFP         0.2098
    117 H58       -16.2260    5.8245  -18.6218 H         1 RFP         0.2101
    118 H59       -10.5406    9.1230  -17.4687 H         1 RFP         0.2478
@<TRIPOS>BOND
     1    2    1 ar 
     2    1    9 ar 
     3    1   48 1  
     4    3    2 ar 
     5    2   44 1  
     6    3    4 ar 
     7   43    3 1  
     8    4   10 ar 
     9    4   59 1  
    10    5    6 ar 
    11   10    5 ar 
    12    5   11 1  
    13    6    7 ar 
    14    6   50 1  
    15    8    7 ar 
    16    7   14 1  
    17    9    8 ar 
    18    8   49 1  
    19   10    9 ar 
    20   11   12 1  
    21   11   51 2  
    22   12   13 1  
    23   12   50 1  
    24   12   52 1  
    25   15   16 1  
    26   44   15 am 
    27   15   58 2  
    28   16   17 2  
    29   16   30 1  
    30   17   18 1  
    31   18   19 2  
    32   19   20 1  
    33   20   21 1  
    34   20   31 1  
    35   21   22 1  
    36   21   57 1  
    37   22   23 1  
    38   22   32 1  
    39   23   24 1  
    40   23   56 1  
    41   25   24 1  
    42   24   33 1  
    43   26   25 1  
    44   25   54 1  
    45   27   26 1  
    46   26   34 1  
    47   28   27 1  
    48   27   53 1  
    49   29   28 2  
    50   52   29 1  
    51   35   36 1  
    52   54   35 1  
    53   35   55 2  
    54   53   37 1  
    55   47   38 1  
    56   40   39 1  
    57   39   47 1  
    58   46   40 1  
    59   41   42 1  
    60   46   41 1  
    61   42   47 1  
    62   45   43 2  
    63   45   46 1  
    64   13   60 1  
    65   13   61 1  
    66   13   62 1  
    67   14   63 1  
    68   14   64 1  
    69   14   65 1  
    70   17   66 1  
    71   18   67 1  
    72   19   68 1  
    73   20   69 1  
    74   21   70 1  
    75   22   71 1  
    76   23   72 1  
    77   24   73 1  
    78   25   74 1  
    79   26   75 1  
    80   27   76 1  
    81   28   77 1  
    82   29   78 1  
    83   30   79 1  
    84   30   80 1  
    85   30   81 1  
    86   31   82 1  
    87   31   83 1  
    88   31   84 1  
    89   32   85 1  
    90   32   86 1  
    91   32   87 1  
    92   33   88 1  
    93   33   89 1  
    94   33   90 1  
    95   34   91 1  
    96   34   92 1  
    97   34   93 1  
    98   36   94 1  
    99   36   95 1  
   100   36   96 1  
   101   37   97 1  
   102   37   98 1  
   103   37   99 1  
   104   38  100 1  
   105   38  101 1  
   106   38  102 1  
   107   39  103 1  
   108   39  104 1  
   109   40  105 1  
   110   40  106 1  
   111   41  107 1  
   112   41  108 1  
   113   42  109 1  
   114   42  110 1  
   115   43  111 1  
   116   44  112 1  
   117   47  113 1  
   118   48  114 1  
   119   49  115 1  
   120   56  116 1  
   121   57  117 1  
   122   59  118 1  
@<TRIPOS>SUBSTRUCTURE
     1 RFP         1

