### 
### Created by X-TOOL on Sun Sep  9 21:50:27 2018
### 

@<TRIPOS>MOLECULE
2hwg_ligand
    6     5     1     0     0
SMALL
GAST_HUCK


@<TRIPOS>ATOM
      1 C1         21.5630   -8.1150   19.2100 C.2       1 NON         0.0999
      2 C2         20.1000   -8.2180   19.0210 C.2       1 NON         0.0999
      3 O1         22.2150   -7.1730   18.6670 O.co2     1 NON        -0.5500
      4 O2         19.5090   -7.4230   18.2520 O.co2     1 NON        -0.5500
      5 O3         22.1230   -8.9780   19.9290 O.co2     1 NON        -0.5500
      6 O4         19.4540   -9.0960   19.6480 O.co2     1 NON        -0.5500
@<TRIPOS>BOND
     1    1    2 1  
     2    1    3 ar 
     3    1    5 ar 
     4    2    4 ar 
     5    2    6 ar 
@<TRIPOS>SUBSTRUCTURE
     1 NON         1

