### 
### Created by X-TOOL on Mon Sep 10 21:12:55 2018
### 

@<TRIPOS>MOLECULE
2hwh_ligand
   40    42     1     0     0
SMALL
GAST_HUCK


@<TRIPOS>ATOM
      1 C          10.2660   29.1620   73.4880 C.2       1 RNA        -0.0828
      2 C1          9.0540   29.6500   73.0310 C.2       1 RNA        -0.0816
      3 C2          9.3170   30.6330   72.0760 C.2       1 RNA         0.0913
      4 O          10.6920   30.7380   71.9500 O.3       1 RNA        -0.2647
      5 C3         11.2800   29.8380   72.8190 C.2       1 RNA         0.0833
      6 C4         12.7710   29.6500   72.9960 C.3       1 RNA        -0.0062
      7 C5          7.3420   32.2730   72.1900 C.2       1 RNA         0.0368
      8 S           7.8920   33.1020   73.6240 S.3       1 RNA        -0.0037
      9 C6          6.2730   33.6410   73.8590 C.2       1 RNA         0.1912
     10 N           5.9200   34.4610   74.9500 N.am      1 RNA        -0.1494
     11 S1          7.0170   35.5440   75.6950 S.o2      1 RNA         0.0940
     12 C7          7.7240   36.6040   74.5170 C.ar      1 RNA         0.1086
     13 C8          9.0830   36.4520   74.1650 C.ar      1 RNA        -0.0413
     14 C9          9.6460   37.3330   73.1980 C.ar      1 RNA        -0.0587
     15 C10         8.8470   38.3550   72.5940 C.ar      1 RNA        -0.0460
     16 C11         7.4730   38.4870   72.9670 C.ar      1 RNA        -0.0587
     17 C12         6.9090   37.6090   73.9340 C.ar      1 RNA        -0.0413
     18 C13         9.4490   39.3100   71.5560 C.3       1 RNA        -0.0311
     19 O14         8.1280   34.6370   76.3790 O.2       1 RNA        -0.1440
     20 O1          6.2550   36.3670   76.8210 O.2       1 RNA        -0.1440
     21 C15         5.9910   32.4520   71.9920 C.2       1 RNA         0.0933
     22 N1          5.3720   33.2280   72.9310 N.2       1 RNA        -0.3079
     23 O2          5.2980   31.9020   70.9300 O.3       1 RNA        -0.3532
     24 C16         8.3090   31.4590   71.3000 C.3       1 RNA         0.0314
     25 H1         10.4014   28.3853   74.2393 H         1 RNA         0.0187
     26 H2          8.0681   29.3240   73.3591 H         1 RNA         0.0188
     27 H3         13.3092   30.3331   72.3224 H         1 RNA         0.0401
     28 H4         13.0406   28.6109   72.7562 H         1 RNA         0.0401
     29 H5         13.0471   29.8694   74.0379 H         1 RNA         0.0401
     30 H6          4.9866   34.4077   75.3049 H         1 RNA         0.2317
     31 H7          9.6876   35.6777   74.6232 H         1 RNA         0.0619
     32 H8         10.6878   37.2286   72.9173 H         1 RNA         0.0557
     33 H9          6.8603   39.2570   72.5124 H         1 RNA         0.0557
     34 H10         5.8686   37.7065   74.2222 H         1 RNA         0.0619
     35 H11        10.5081   39.0588   71.3975 H         1 RNA         0.0391
     36 H12         9.3681   40.3450   71.9196 H         1 RNA         0.0391
     37 H13         8.9027   39.2111   70.6064 H         1 RNA         0.0391
     38 H14         5.8958   31.3987   70.3898 H         1 RNA         0.2372
     39 H15         7.7127   30.7783   70.6746 H         1 RNA         0.0527
     40 H16         8.8596   32.1608   70.6563 H         1 RNA         0.0527
@<TRIPOS>BOND
     1    2    1 1  
     2    5    1 2  
     3    3    2 2  
     4    3    4 1  
     5   24    3 1  
     6    4    5 1  
     7    5    6 1  
     8    7    8 1  
     9    7   21 2  
    10    7   24 1  
    11    8    9 1  
    12    9   10 1  
    13    9   22 2  
    14   10   11 am 
    15   11   12 1  
    16   11   19 2  
    17   11   20 2  
    18   12   13 ar 
    19   12   17 ar 
    20   13   14 ar 
    21   14   15 ar 
    22   15   16 ar 
    23   15   18 1  
    24   16   17 ar 
    25   21   22 1  
    26   21   23 1  
    27    1   25 1  
    28    2   26 1  
    29    6   27 1  
    30    6   28 1  
    31    6   29 1  
    32   10   30 1  
    33   13   31 1  
    34   14   32 1  
    35   16   33 1  
    36   17   34 1  
    37   18   35 1  
    38   18   36 1  
    39   18   37 1  
    40   23   38 1  
    41   24   39 1  
    42   24   40 1  
@<TRIPOS>SUBSTRUCTURE
     1 RNA         1

