### 
### Created by X-TOOL on Mon Sep 10 21:12:54 2018
### 

@<TRIPOS>MOLECULE
2hwi_ligand
   40    42     1     0     0
SMALL
GAST_HUCK


@<TRIPOS>ATOM
      1 C1          9.5050   36.6530   76.2440 C.ar      1 VRX        -0.0580
      2 C2         10.3280   37.3950   75.3650 C.ar      1 VRX        -0.0346
      3 C3          9.7640   38.3840   74.5220 C.ar      1 VRX         0.1250
      4 C4          8.3630   38.5840   74.5000 C.ar      1 VRX        -0.0346
      5 C5          7.5190   37.7950   75.3320 C.ar      1 VRX        -0.0580
      6 C6          8.0850   36.8340   76.2360 C.ar      1 VRX        -0.0072
      7 F          10.5820   39.1600   73.7560 F         1 VRX        -0.1891
      8 C8          7.1750   35.9860   77.1850 C.3       1 VRX         0.1324
      9 C9          6.5690   36.9180   78.2590 C.2       1 VRX         0.0733
     10 O10         5.3080   37.3670   77.9640 O.co2     1 VRX        -0.5642
     11 O11         7.1580   37.2340   79.2790 O.co2     1 VRX        -0.5642
     12 N12         6.1020   35.2110   76.4660 N.pl3     1 VRX        -0.2472
     13 C13         6.3700   34.0990   75.6060 C.2       1 VRX         0.1939
     14 S14         7.9640   33.5430   75.2530 S.3       1 VRX         0.0313
     15 C15         7.3000   32.3270   74.2520 C.2       1 VRX         0.0898
     16 C16         5.8080   32.3890   74.2370 C.2       1 VRX         0.1622
     17 N17         5.3580   33.4400   75.0340 N.2       1 VRX        -0.2720
     18 O18         5.0890   31.6280   73.6130 O.2       1 VRX        -0.3978
     19 C19         8.1610   31.3270   73.4920 C.2       1 VRX        -0.0109
     20 C20         9.6660   31.1930   73.4490 C.2       1 VRX         0.1087
     21 C21        10.6040   31.7100   74.3380 C.2       1 VRX        -0.0613
     22 C22        11.8550   31.3140   73.9120 C.2       1 VRX        -0.0550
     23 C23        11.6960   30.5450   72.7700 C.2       1 VRX         0.1064
     24 O24        10.3500   30.4890   72.4930 O.3       1 VRX        -0.2548
     25 C25        12.7710   29.8600   71.9420 C.3       1 VRX         0.0139
     26 C26        13.1250   30.6360   70.6690 C.3       1 VRX        -0.0509
     27 H1          9.9529   35.9420   76.9288 H         1 VRX         0.0551
     28 H2         11.3950   37.2061   75.3363 H         1 VRX         0.0587
     29 H3          7.9329   39.3374   73.8501 H         1 VRX         0.0587
     30 H4          6.4434   37.9205   75.2826 H         1 VRX         0.0551
     31 H5          7.8180   35.2524   77.6933 H         1 VRX         0.0898
     32 H6          5.1217   35.4971   76.6007 H         1 VRX         0.2024
     33 H7          7.6123   30.6026   72.8918 H         1 VRX         0.0619
     34 H8         10.3885   32.3192   75.2146 H         1 VRX         0.0393
     35 H9         12.8017   31.5622   74.3895 H         1 VRX         0.0285
     36 H10        12.4107   28.8609   71.6557 H         1 VRX         0.0481
     37 H11        13.6779   29.7606   72.5565 H         1 VRX         0.0481
     38 H12        13.9046   30.0937   70.1139 H         1 VRX         0.0256
     39 H13        13.4959   31.6355   70.9400 H         1 VRX         0.0256
     40 H14        12.2287   30.7358   70.0392 H         1 VRX         0.0256
@<TRIPOS>BOND
     1    1    2 ar 
     2    1    6 ar 
     3    2    3 ar 
     4    3    4 ar 
     5    3    7 1  
     6    4    5 ar 
     7    5    6 ar 
     8    6    8 1  
     9    8    9 1  
    10    8   12 1  
    11    9   10 ar 
    12    9   11 ar 
    13   12   13 1  
    14   13   14 1  
    15   13   17 2  
    16   14   15 1  
    17   15   16 1  
    18   15   19 2  
    19   16   17 1  
    20   16   18 2  
    21   19   20 1  
    22   20   21 2  
    23   20   24 1  
    24   21   22 1  
    25   22   23 2  
    26   23   24 1  
    27   23   25 1  
    28   25   26 1  
    29    1   27 1  
    30    2   28 1  
    31    4   29 1  
    32    5   30 1  
    33    8   31 1  
    34   12   32 1  
    35   19   33 1  
    36   21   34 1  
    37   22   35 1  
    38   25   36 1  
    39   25   37 1  
    40   26   38 1  
    41   26   39 1  
    42   26   40 1  
@<TRIPOS>SUBSTRUCTURE
     1 VRX         1

