### 
### Created by X-TOOL on Mon Sep 10 21:12:56 2018
### 

@<TRIPOS>MOLECULE
2hwo_ligand
   38    40     1     0     0
SMALL
GAST_HUCK


@<TRIPOS>ATOM
      1 O61         6.1730   -7.9010   -2.1520 O.2       1 RBS        -0.3846
      2 C10         6.8600   -8.5610   -1.3850 C.2       1 RBS         0.2039
      3 C11         6.2970   -9.0460   -0.0510 C.3       1 RBS         0.0405
      4 C51         6.3980   -7.9910    1.0580 C.3       1 RBS        -0.0477
      5 N11         8.1570   -8.8160   -1.5890 N.am      1 RBS        -0.2321
      6 C9          8.9280   -8.2930   -2.5920 C.ar      1 RBS         0.0745
      7 C8          8.4280   -7.4440   -3.5960 C.ar      1 RBS        -0.0233
      8 C13        10.2850   -8.6390   -2.6050 C.ar      1 RBS        -0.0283
      9 C17        11.1260   -8.1470   -3.6050 C.ar      1 RBS        -0.0453
     10 C18        10.6190   -7.2970   -4.5910 C.ar      1 RBS         0.0351
     11 C7          9.2680   -6.9460   -4.5970 C.ar      1 RBS         0.0428
     12 C6          8.8020   -6.0940   -5.6130 C.ar      1 RBS         0.1549
     13 N3          9.6790   -5.6540   -6.5430 N.ar      1 RBS        -0.2575
     14 C19        10.9710   -6.0120   -6.5100 C.ar      1 RBS         0.0558
     15 N2         11.4450   -6.8140   -5.5520 N.ar      1 RBS        -0.3004
     16 N1          7.4870   -5.7290   -5.6620 N.pl3     1 RBS        -0.2478
     17 C5          6.8700   -4.9190   -6.5640 C.ar      1 RBS         0.0679
     18 C4          7.5360   -4.3370   -7.6400 C.ar      1 RBS        -0.0370
     19 C20         5.5100   -4.6720   -6.3790 C.ar      1 RBS        -0.0370
     20 C21         4.8080   -3.8610   -7.2720 C.ar      1 RBS        -0.0708
     21 C22         5.4770   -3.2840   -8.3550 C.ar      1 RBS        -0.0728
     22 C3          6.8460   -3.5160   -8.5290 C.ar      1 RBS        -0.0708
     23 H1          6.8570   -9.9394    0.2624 H         1 RBS         0.0505
     24 H2          5.2378   -9.3076   -0.1912 H         1 RBS         0.0505
     25 H3          5.9783   -8.3974    1.9900 H         1 RBS         0.0254
     26 H4          5.8345   -7.0936    0.7629 H         1 RBS         0.0254
     27 H5          7.4536   -7.7255    1.2165 H         1 RBS         0.0254
     28 H6          8.6033   -9.4447   -0.9521 H         1 RBS         0.2265
     29 H7          7.3786   -7.1724   -3.5937 H         1 RBS         0.0508
     30 H8         10.6837   -9.2909   -1.8362 H         1 RBS         0.0618
     31 H9         12.1737   -8.4249   -3.6164 H         1 RBS         0.0616
     32 H10        11.6441   -5.6435   -7.2756 H         1 RBS         0.1015
     33 H11         6.8854   -6.1166   -4.9212 H         1 RBS         0.2216
     34 H12         8.5938   -4.5234   -7.7860 H         1 RBS         0.0542
     35 H13         4.9937   -5.1137   -5.5344 H         1 RBS         0.0542
     36 H14         3.7493   -3.6796   -7.1263 H         1 RBS         0.0589
     37 H15         4.9375   -2.6591   -9.0575 H         1 RBS         0.0524
     38 H16         7.3711   -3.0555   -9.3580 H         1 RBS         0.0589
@<TRIPOS>BOND
     1    1    2 2  
     2    2    3 1  
     3    2    5 am 
     4    3    4 1  
     5    5    6 1  
     6    6    7 ar 
     7    6    8 ar 
     8    7   11 ar 
     9    8    9 ar 
    10    9   10 ar 
    11   10   11 ar 
    12   10   15 ar 
    13   11   12 ar 
    14   12   13 ar 
    15   12   16 1  
    16   13   14 ar 
    17   14   15 ar 
    18   16   17 1  
    19   17   18 ar 
    20   17   19 ar 
    21   18   22 ar 
    22   19   20 ar 
    23   20   21 ar 
    24   21   22 ar 
    25    3   23 1  
    26    3   24 1  
    27    4   25 1  
    28    4   26 1  
    29    4   27 1  
    30    5   28 1  
    31    7   29 1  
    32    8   30 1  
    33    9   31 1  
    34   14   32 1  
    35   16   33 1  
    36   18   34 1  
    37   19   35 1  
    38   20   36 1  
    39   21   37 1  
    40   22   38 1  
@<TRIPOS>SUBSTRUCTURE
     1 RBS         1

