### 
### Created by X-TOOL on Mon Sep 10 21:12:56 2018
### 

@<TRIPOS>MOLECULE
2hwp_ligand
   38    40     1     0     0
SMALL
GAST_HUCK


@<TRIPOS>ATOM
      1 C51         7.4010  -39.3000   23.5400 C.3       1 DJK        -0.0477
      2 C11         7.0390  -40.1490   24.7660 C.3       1 DJK         0.0405
      3 C10         7.0490  -39.3530   26.0660 C.2       1 DJK         0.2039
      4 O61         8.1150  -38.9660   26.5150 O.2       1 DJK        -0.3846
      5 N11         5.8630  -39.0360   26.6180 N.am      1 DJK        -0.2321
      6 C9          5.6530  -38.3630   27.8010 C.ar      1 DJK         0.0745
      7 C8          6.6780  -37.9240   28.6680 C.ar      1 DJK        -0.0233
      8 C13         4.3280  -38.0910   28.1500 C.ar      1 DJK        -0.0283
      9 C17         4.0160  -37.4200   29.3280 C.ar      1 DJK        -0.0453
     10 C18         5.0300  -36.9980   30.1830 C.ar      1 DJK         0.0351
     11 C7          6.3710  -37.2390   29.8650 C.ar      1 DJK         0.0428
     12 C6          7.3590  -36.7880   30.7600 C.ar      1 DJK         0.1549
     13 N3          6.9850  -36.1430   31.8890 N.ar      1 DJK        -0.2575
     14 C19         5.6860  -35.9240   32.1570 C.ar      1 DJK         0.0558
     15 N2          4.7160  -36.3430   31.3250 N.ar      1 DJK        -0.3004
     16 N1          8.6780  -37.0040   30.4980 N.pl3     1 DJK        -0.2472
     17 C5          9.7740  -36.6500   31.2500 C.ar      1 DJK         0.0708
     18 C4          9.7060  -35.9580   32.4710 C.ar      1 DJK        -0.0272
     19 C20        11.0330  -37.0020   30.7420 C.ar      1 DJK        -0.0342
     20 C21        12.2150  -36.6830   31.4180 C.ar      1 DJK        -0.0680
     21 C22        12.1410  -36.0050   32.6340 C.ar      1 DJK        -0.0632
     22 C3         10.8920  -35.6360   33.1570 C.ar      1 DJK         0.0042
     23 BR         10.8570  -34.6920   34.8080 Br        1 DJK        -0.0528
     24 H1          7.3762  -39.9292   22.6381 H         1 DJK         0.0254
     25 H2          8.4106  -38.8826   23.6682 H         1 DJK         0.0254
     26 H3          6.6757  -38.4797   23.4349 H         1 DJK         0.0254
     27 H4          7.7670  -40.9692   24.8517 H         1 DJK         0.0505
     28 H5          6.0320  -40.5664   24.6184 H         1 DJK         0.0505
     29 H6          5.0466  -39.3197   26.1150 H         1 DJK         0.2265
     30 H7          7.7138  -38.1151   28.4117 H         1 DJK         0.0508
     31 H8          3.5282  -38.4086   27.4908 H         1 DJK         0.0618
     32 H9          2.9800  -37.2252   29.5808 H         1 DJK         0.0616
     33 H10         5.4141  -35.3975   33.0647 H         1 DJK         0.1015
     34 H11         8.8823  -37.4991   29.6182 H         1 DJK         0.2216
     35 H12         8.7445  -35.6734   32.8827 H         1 DJK         0.0569
     36 H13        11.0915  -37.5356   29.8002 H         1 DJK         0.0566
     37 H14        13.1769  -36.9595   31.0016 H         1 DJK         0.0596
     38 H15        13.0483  -35.7628   33.1756 H         1 DJK         0.0550
@<TRIPOS>BOND
     1    1    2 1  
     2    2    3 1  
     3    3    4 2  
     4    3    5 am 
     5    5    6 1  
     6    6    7 ar 
     7    6    8 ar 
     8    7   11 ar 
     9    8    9 ar 
    10    9   10 ar 
    11   10   11 ar 
    12   10   15 ar 
    13   11   12 ar 
    14   12   13 ar 
    15   12   16 1  
    16   13   14 ar 
    17   14   15 ar 
    18   16   17 1  
    19   17   18 ar 
    20   17   19 ar 
    21   18   22 ar 
    22   19   20 ar 
    23   20   21 ar 
    24   21   22 ar 
    25   22   23 1  
    26    1   24 1  
    27    1   25 1  
    28    1   26 1  
    29    2   27 1  
    30    2   28 1  
    31    5   29 1  
    32    7   30 1  
    33    8   31 1  
    34    9   32 1  
    35   14   33 1  
    36   16   34 1  
    37   18   35 1  
    38   19   36 1  
    39   20   37 1  
    40   21   38 1  
@<TRIPOS>SUBSTRUCTURE
     1 DJK         1

