### 
### Created by X-TOOL on Mon Sep 10 21:12:56 2018
### 

@<TRIPOS>MOLECULE
2hxl_ligand
   55    59     1     0     0
SMALL
GAST_HUCK


@<TRIPOS>ATOM
      1 C1         22.3830   -2.6350    8.8100 C.ar      1 422        -0.0157
      2 C2         21.1090   -3.0570    9.4290 C.ar      1 422        -0.0694
      3 C3         19.9420   -2.2050    9.2660 C.ar      1 422        -0.0323
      4 C4         20.0600   -0.9410    8.5040 C.ar      1 422         0.0578
      5 C5         21.3280   -0.5220    7.8880 C.ar      1 422        -0.0474
      6 C6         22.5200   -1.3850    8.0400 C.ar      1 422        -0.0681
      7 C11        18.5830   -2.3730    9.7440 C.2       1 422        -0.0570
      8 C12        17.9370   -1.1780    9.2580 C.2       1 422         0.0726
      9 N13        18.7690   -0.3610    8.5810 N.pl3     1 422        -0.2775
     10 C14        16.4780   -0.7740    9.4700 C.2       1 422         0.0930
     11 C15        15.4320   -1.4030   10.2560 C.ar      1 422         0.0272
     12 C16        14.2660   -0.5370   10.1570 C.ar      1 422         0.1016
     13 N17        14.6020    0.4960    9.3680 N.pl3     1 422        -0.2074
     14 N18        15.9110    0.4000    8.9840 N.2       1 422        -0.1901
     15 C19        15.3090   -2.6190   11.1160 C.ar      1 422        -0.0549
     16 C20        14.0440   -2.9120   11.8440 C.ar      1 422        -0.0395
     17 C21        12.9160   -1.9550   11.7090 C.ar      1 422         0.0868
     18 C22        12.9960   -0.7510   10.8540 C.ar      1 422         0.0014
     19 C23        11.7150   -2.2030   12.4790 C.1       1 422         0.0955
     20 C7         23.6430   -3.4950    8.9560 C.3       1 422        -0.0041
     21 N2         23.6910   -4.7480    8.1560 N.4       1 422         0.2457
     22 C8         22.7910   -4.8670    6.9890 C.3       1 422        -0.0302
     23 C9         25.0750   -5.1650    7.7760 C.3       1 422        -0.0302
     24 C10        25.0580   -6.6090    7.2790 C.3       1 422        -0.0047
     25 C13        22.7700   -6.3180    6.5220 C.3       1 422        -0.0047
     26 C17        24.1380   -6.8350    6.0790 C.3       1 422         0.0087
     27 C18        24.0680   -8.3270    5.7370 C.3       1 422        -0.0321
     28 N3         23.1190   -8.4950    4.6220 N.4       1 422         0.2187
     29 N1         10.7350   -2.4220   13.0660 N.1       1 422        -0.3306
     30 H1         21.0460   -3.9812    9.9920 H         1 422         0.0458
     31 H2         21.3884    0.4058    7.3306 H         1 422         0.0531
     32 H3         23.4691   -1.1057    7.5970 H         1 422         0.0491
     33 H4         18.1584   -3.1923   10.3223 H         1 422         0.0306
     34 H5         18.5054    0.5500    8.1792 H         1 422         0.2221
     35 H6         13.9631    1.2548    9.0907 H         1 422         0.2488
     36 H7         16.1507   -3.2955   11.2108 H         1 422         0.0606
     37 H8         13.9485   -3.8010   12.4569 H         1 422         0.0612
     38 H9         12.1623   -0.0661   10.7492 H         1 422         0.0680
     39 H10        23.7366   -3.7724   10.0163 H         1 422         0.0958
     40 H11        24.5043   -2.8777    8.6610 H         1 422         0.0958
     41 H12        23.3660   -5.4544    8.7975 H         1 422         0.2046
     42 H13        23.1559   -4.2233    6.1751 H         1 422         0.0815
     43 H14        21.7749   -4.5570    7.2742 H         1 422         0.0815
     44 H15        25.7342   -5.0878    8.6532 H         1 422         0.0815
     45 H16        25.4489   -4.5076    6.9773 H         1 422         0.0815
     46 H17        24.7202   -7.2557    8.1022 H         1 422         0.0321
     47 H18        26.0816   -6.8887    6.9893 H         1 422         0.0321
     48 H19        22.0750   -6.4008    5.6734 H         1 422         0.0321
     49 H20        22.4124   -6.9457    7.3515 H         1 422         0.0321
     50 H21        24.4977   -6.2739    5.2039 H         1 422         0.0356
     51 H22        23.7195   -8.8946    6.6124 H         1 422         0.0816
     52 H23        25.0629   -8.6884    5.4379 H         1 422         0.0816
     53 H24        23.0560   -9.4711    4.3786 H         1 422         0.1994
     54 H25        23.4415   -7.9700    3.8243 H         1 422         0.1994
     55 H26        22.2104   -8.1589    4.9005 H         1 422         0.1994
@<TRIPOS>BOND
     1    1    2 ar 
     2    1    6 ar 
     3    1   20 1  
     4    2    3 ar 
     5    3    4 ar 
     6    3    7 1  
     7    4    5 ar 
     8    4    9 1  
     9    5    6 ar 
    10    7    8 2  
    11    8    9 1  
    12    8   10 1  
    13   10   11 1  
    14   10   14 2  
    15   11   12 ar 
    16   11   15 ar 
    17   12   13 1  
    18   12   18 ar 
    19   13   14 1  
    20   15   16 ar 
    21   16   17 ar 
    22   17   18 ar 
    23   17   19 1  
    24   19   29 3  
    25   20   21 1  
    26   21   22 1  
    27   21   23 1  
    28   22   25 1  
    29   23   24 1  
    30   24   26 1  
    31   25   26 1  
    32   26   27 1  
    33   27   28 1  
    34    2   30 1  
    35    5   31 1  
    36    6   32 1  
    37    7   33 1  
    38    9   34 1  
    39   13   35 1  
    40   15   36 1  
    41   16   37 1  
    42   18   38 1  
    43   20   39 1  
    44   20   40 1  
    45   21   41 1  
    46   22   42 1  
    47   22   43 1  
    48   23   44 1  
    49   23   45 1  
    50   24   46 1  
    51   24   47 1  
    52   25   48 1  
    53   25   49 1  
    54   26   50 1  
    55   27   51 1  
    56   27   52 1  
    57   28   53 1  
    58   28   54 1  
    59   28   55 1  
@<TRIPOS>SUBSTRUCTURE
     1 422         1

