### 
### Created by X-TOOL on Mon Sep 10 21:12:54 2018
### 

@<TRIPOS>MOLECULE
2hxm_ligand
   38    39     1     0     0
SMALL
GAST_HUCK


@<TRIPOS>ATOM
      1 C1          6.0650   -0.8490   -3.0280 C.2       1 302         0.0947
      2 C3          6.8020    1.0850   -4.1360 C.2       1 302         0.3227
      3 C5          5.9380   -0.7000   -5.4020 C.2       1 302         0.1808
      4 C6          5.7310   -1.4370   -4.2440 C.2       1 302         0.0082
      5 N2          6.6000    0.3950   -2.9940 N.am      1 302        -0.2035
      6 N4          6.4710    0.5320   -5.3170 N.am      1 302        -0.1884
      7 O37         8.8620    8.5650    3.3050 O.co2     1 302        -0.5612
      8 C35         9.4790    7.7800    2.5630 C.2       1 302         0.0616
      9 O36        10.3140    8.1940    1.7210 O.co2     1 302        -0.5612
     10 C28         9.2320    6.3030    2.6630 C.ar      1 302         0.0083
     11 C27         9.5340    5.5190    1.5570 C.ar      1 302        -0.0490
     12 C26         9.3320    4.1490    1.6150 C.ar      1 302        -0.0523
     13 C29         8.7200    5.7090    3.8260 C.ar      1 302        -0.0490
     14 C30         8.5090    4.3210    3.8760 C.ar      1 302        -0.0523
     15 C24         8.8220    3.5410    2.7580 C.ar      1 302        -0.0101
     16 C20         8.6970    2.2620    2.6190 C.2       1 302         0.0473
     17 N19         8.6400    1.1550    2.1300 N.2       1 302        -0.1472
     18 O16         8.4600   -0.0520    2.7110 O.3       1 302        -0.2284
     19 C13         8.0690   -1.1480    1.8750 C.3       1 302         0.1274
     20 C12         6.5520   -1.1190    1.6880 C.3       1 302         0.1304
     21 O11         6.1440   -1.7410    0.4640 O.3       1 302        -0.2181
     22 N10         6.2950   -1.0650   -0.6980 N.2       1 302        -0.1274
     23 C9          5.8720   -1.5810   -1.7650 C.2       1 302         0.0871
     24 O7          5.6610   -1.1590   -6.5300 O.2       1 302        -0.4134
     25 O8          7.2970    2.2300   -4.1210 O.2       1 302        -0.3834
     26 H1          5.3198   -2.4445   -4.2860 H         1 302         0.0255
     27 H2          6.8471    0.8051   -2.1161 H         1 302         0.2381
     28 H3          6.6259    1.0525   -6.1567 H         1 302         0.2252
     29 H4          9.9249    5.9754    0.6548 H         1 302         0.0646
     30 H5          9.5762    3.5391    0.7528 H         1 302         0.0616
     31 H6          8.4865    6.3226    4.6885 H         1 302         0.0646
     32 H7          8.1080    3.8596    4.7712 H         1 302         0.0616
     33 H8          8.5224    1.9955    3.6604 H         1 302         0.0780
     34 H9          8.3635   -2.0960    2.3489 H         1 302         0.0683
     35 H10         8.5624   -1.0587    0.8960 H         1 302         0.0683
     36 H11         6.2161   -0.0716    1.6817 H         1 302         0.0690
     37 H12         6.0816   -1.6499    2.5287 H         1 302         0.0690
     38 H13         5.3734   -2.5491   -1.7545 H         1 302         0.0829
@<TRIPOS>BOND
     1    1    4 2  
     2    1    5 1  
     3   23    1 1  
     4    5    2 am 
     5    2    6 am 
     6    2   25 2  
     7    4    3 1  
     8    3    6 am 
     9    3   24 2  
    10    8    7 ar 
    11    8    9 ar 
    12   10    8 1  
    13   11   10 ar 
    14   13   10 ar 
    15   12   11 ar 
    16   15   12 ar 
    17   14   13 ar 
    18   15   14 ar 
    19   16   15 1  
    20   17   16 2  
    21   18   17 1  
    22   19   18 1  
    23   20   19 1  
    24   21   20 1  
    25   22   21 1  
    26   22   23 2  
    27    4   26 1  
    28    5   27 1  
    29    6   28 1  
    30   11   29 1  
    31   12   30 1  
    32   13   31 1  
    33   14   32 1  
    34   16   33 1  
    35   19   34 1  
    36   19   35 1  
    37   20   36 1  
    38   20   37 1  
    39   23   38 1  
@<TRIPOS>SUBSTRUCTURE
     1 302         1

