### 
### Created by X-TOOL on Mon Sep 10 21:12:56 2018
### 

@<TRIPOS>MOLECULE
2hxq_ligand
   57    61     1     0     0
SMALL
GAST_HUCK


@<TRIPOS>ATOM
      1 C1         14.8080   -1.7500   10.8440 C.ar      1 373         0.0114
      2 C2         14.1310   -2.5900   11.8120 C.ar      1 373        -0.0606
      3 C3         12.7720   -2.2190   12.1800 C.ar      1 373        -0.0715
      4 C4         12.1320   -1.0350   11.6150 C.ar      1 373        -0.0704
      5 C5         12.8000   -0.2210   10.6160 C.ar      1 373        -0.0324
      6 C6         14.1430   -0.6030   10.2540 C.ar      1 373         0.0892
      7 N11        14.8540    0.1860    9.3960 N.am      1 373        -0.2266
      8 C12        16.1490   -0.0560    9.0860 C.2       1 373         0.2216
      9 C13        16.8850   -1.2130    9.6950 C.2       1 373         0.0754
     10 C14        16.2010   -2.0400   10.5160 C.2       1 373        -0.0353
     11 C16        18.3380   -1.4000    9.4110 C.2       1 373         0.0645
     12 N17        19.1620   -0.5230    8.6810 N.pl3     1 373        -0.2789
     13 C18        20.4420   -1.0460    8.6260 C.ar      1 373         0.0572
     14 C19        20.4480   -2.3040    9.3660 C.ar      1 373        -0.0327
     15 C20        19.1490   -2.4680    9.8660 C.2       1 373        -0.0587
     16 C24        21.6220   -0.5150    7.9610 C.ar      1 373        -0.0476
     17 C25        22.8720   -1.2800    8.0410 C.ar      1 373        -0.0684
     18 C26        22.8620   -2.5500    8.7940 C.ar      1 373        -0.0159
     19 C27        21.6700   -3.0640    9.4570 C.ar      1 373        -0.0696
     20 C31        24.0750   -3.4470    8.8370 C.3       1 373        -0.0042
     21 N32        24.0800   -4.2690    7.6040 N.4       1 373         0.2457
     22 C35        25.2940   -3.9330    6.8360 C.3       1 373        -0.0302
     23 C36        25.1120   -4.5000    5.4370 C.3       1 373        -0.0047
     24 C37        24.9640   -6.0130    5.4770 C.3       1 373         0.0087
     25 C38        23.7940   -6.3830    6.4100 C.3       1 373        -0.0047
     26 C39        24.0100   -5.7470    7.7840 C.3       1 373        -0.0302
     27 C48        24.7100   -6.5230    4.0340 C.3       1 373        -0.0321
     28 N50        25.8240   -6.0950    3.1620 N.4       1 373         0.2187
     29 O1         16.7750    0.6520    8.3040 O.2       1 373        -0.3969
     30 H1         14.6161   -3.4579   12.2438 H         1 373         0.0605
     31 H2         12.2255   -2.8333   12.8865 H         1 373         0.0516
     32 H3         11.1383   -0.7582   11.9481 H         1 373         0.0606
     33 H4         12.3122    0.6344   10.1629 H         1 373         0.0524
     34 H5         14.3999    0.9739    8.9801 H         1 373         0.2378
     35 H6         16.6876   -2.9209   10.9322 H         1 373         0.0704
     36 H7         18.8606    0.3655    8.2559 H         1 373         0.2208
     37 H8         18.8163   -3.2863   10.5029 H         1 373         0.0300
     38 H9         21.5790    0.4231    7.4195 H         1 373         0.0528
     39 H10        23.7762   -0.9230    7.5613 H         1 373         0.0489
     40 H11        21.7015   -3.9977   10.0068 H         1 373         0.0455
     41 H12        24.0254   -4.1000    9.7208 H         1 373         0.0958
     42 H13        24.9891   -2.8369    8.8827 H         1 373         0.0958
     43 H14        23.2721   -4.0003    7.0645 H         1 373         0.2046
     44 H15        26.1779   -4.3820    7.3126 H         1 373         0.0815
     45 H16        25.4188   -2.8412    6.7869 H         1 373         0.0815
     46 H17        25.9896   -4.2405    4.8267 H         1 373         0.0321
     47 H18        24.2093   -4.0621    4.9860 H         1 373         0.0321
     48 H19        25.8896   -6.4646    5.8633 H         1 373         0.0356
     49 H20        23.7434   -7.4766    6.5171 H         1 373         0.0321
     50 H21        22.8518   -6.0127    5.9797 H         1 373         0.0321
     51 H22        23.1718   -6.0024    8.4490 H         1 373         0.0815
     52 H23        24.9501   -6.1144    8.2213 H         1 373         0.0815
     53 H24        23.7658   -6.1033    3.6567 H         1 373         0.0816
     54 H25        24.6475   -7.6212    4.0380 H         1 373         0.0816
     55 H26        25.6618   -6.4249    2.2234 H         1 373         0.1994
     56 H27        26.6889   -6.4796    3.5086 H         1 373         0.1994
     57 H28        25.8810   -5.0886    3.1592 H         1 373         0.1994
@<TRIPOS>BOND
     1    1    2 ar 
     2    1    6 ar 
     3    1   10 1  
     4    2    3 ar 
     5    3    4 ar 
     6    4    5 ar 
     7    5    6 ar 
     8    6    7 1  
     9    7    8 am 
    10    8    9 1  
    11    8   29 2  
    12    9   10 2  
    13    9   11 1  
    14   11   12 1  
    15   11   15 2  
    16   12   13 1  
    17   13   14 ar 
    18   13   16 ar 
    19   14   15 1  
    20   14   19 ar 
    21   16   17 ar 
    22   17   18 ar 
    23   18   19 ar 
    24   18   20 1  
    25   20   21 1  
    26   21   22 1  
    27   21   26 1  
    28   22   23 1  
    29   23   24 1  
    30   24   25 1  
    31   24   27 1  
    32   25   26 1  
    33   27   28 1  
    34    2   30 1  
    35    3   31 1  
    36    4   32 1  
    37    5   33 1  
    38    7   34 1  
    39   10   35 1  
    40   12   36 1  
    41   15   37 1  
    42   16   38 1  
    43   17   39 1  
    44   19   40 1  
    45   20   41 1  
    46   20   42 1  
    47   21   43 1  
    48   22   44 1  
    49   22   45 1  
    50   23   46 1  
    51   23   47 1  
    52   24   48 1  
    53   25   49 1  
    54   25   50 1  
    55   26   51 1  
    56   26   52 1  
    57   27   53 1  
    58   27   54 1  
    59   28   55 1  
    60   28   56 1  
    61   28   57 1  
@<TRIPOS>SUBSTRUCTURE
     1 373         1

