### 
### Created by X-TOOL on Mon Sep 10 21:12:56 2018
### 

@<TRIPOS>MOLECULE
2hy0_ligand
   58    63     1     0     0
SMALL
GAST_HUCK


@<TRIPOS>ATOM
      1 C          12.4160   -4.4350   13.4230 C.2       1 306         0.0033
      2 C1         12.0700   -3.2150   12.7910 C.2       1 306        -0.0071
      3 C2         10.6990   -3.0860   13.1050 C.2       1 306         0.0566
      4 N          10.3040   -4.1050   13.9200 N.pl3     1 306        -0.2192
      5 N3         11.3240   -5.0030   13.9820 N.2       1 306        -0.2175
      6 C4         18.5660   -1.4240    9.2760 C.2       1 306         0.0644
      7 C5         19.3980   -2.4860    9.7310 C.2       1 306        -0.0587
      8 N6         19.3170   -0.5600    8.5620 N.pl3     1 306        -0.2789
      9 C7         20.6630   -2.2750    9.2000 C.ar      1 306        -0.0327
     10 C8         20.6140   -1.0180    8.4180 C.ar      1 306         0.0572
     11 C9         21.7690   -0.5100    7.6920 C.ar      1 306        -0.0476
     12 C10        23.0170   -1.2700    7.7270 C.ar      1 306        -0.0684
     13 C11        23.0580   -2.5230    8.4970 C.ar      1 306        -0.0159
     14 C12        21.9020   -3.0180    9.2440 C.ar      1 306        -0.0696
     15 C13        24.3030   -3.3970    8.4600 C.3       1 306        -0.0042
     16 C14        12.9270   -2.3540   11.8920 C.ar      1 306        -0.0439
     17 C15        12.3460   -1.1410   11.3200 C.ar      1 306        -0.0682
     18 C16        13.0440   -0.3150   10.3990 C.ar      1 306        -0.0345
     19 C17        14.2980   -2.7250   11.5700 C.ar      1 306        -0.0605
     20 C18        15.0320   -1.8760   10.6760 C.ar      1 306         0.0076
     21 C19        14.3780   -0.7090   10.1090 C.ar      1 306         0.0869
     22 N20        15.0920    0.1310    9.2870 N.am      1 306        -0.2277
     23 C21        16.4000   -0.1010    8.9610 C.2       1 306         0.2214
     24 C22        17.1210   -1.2750    9.5780 C.2       1 306         0.0751
     25 C23        16.3780   -2.1410   10.4370 C.2       1 306        -0.0364
     26 O          16.9310    0.6710    8.1690 O.2       1 306        -0.3969
     27 N24        24.4930   -4.1030    7.1640 N.4       1 306         0.2457
     28 C25        25.4530   -5.2230    7.2650 C.3       1 306        -0.0307
     29 C26        25.6250   -5.9000    5.8940 C.3       1 306        -0.0123
     30 C27        24.2870   -6.4300    5.3790 C.3       1 306        -0.0434
     31 C28        23.3440   -5.2420    5.2690 C.3       1 306        -0.0123
     32 C29        23.2000   -4.5960    6.6450 C.3       1 306        -0.0307
     33 H1         13.4200   -4.8558   13.4541 H         1 306         0.0665
     34 H2         10.0507   -2.2874   12.7475 H         1 306         0.1000
     35 H3          9.3969   -4.1812   14.4019 H         1 306         0.2586
     36 H4         19.0977   -3.3106   10.3758 H         1 306         0.0300
     37 H5         18.9686    0.3280    8.1735 H         1 306         0.2208
     38 H6         21.7045    0.4173    7.1343 H         1 306         0.0528
     39 H7         23.8943   -0.9177    7.1966 H         1 306         0.0489
     40 H8         21.9736   -3.9312    9.8237 H         1 306         0.0455
     41 H9         24.2242   -4.1496    9.2584 H         1 306         0.0958
     42 H10        25.1813   -2.7602    8.6418 H         1 306         0.0958
     43 H11        11.3403   -0.8599   11.6108 H         1 306         0.0581
     44 H12        12.5887    0.5588    9.9470 H         1 306         0.0522
     45 H13        14.7500   -3.6150   11.9927 H         1 306         0.0557
     46 H14        14.6386    0.9406    8.9142 H         1 306         0.2376
     47 H15        16.8597   -3.0006   10.9008 H         1 306         0.0700
     48 H16        24.8638   -3.4372    6.5043 H         1 306         0.2046
     49 H17        25.0766   -5.9601    7.9896 H         1 306         0.0814
     50 H18        26.4258   -4.8383    7.6049 H         1 306         0.0814
     51 H19        26.3313   -6.7376    5.9914 H         1 306         0.0317
     52 H20        26.0225   -5.1667    5.1769 H         1 306         0.0317
     53 H21        23.8792   -7.1707    6.0826 H         1 306         0.0269
     54 H22        24.4214   -6.8969    4.3921 H         1 306         0.0269
     55 H23        22.3595   -5.5834    4.9165 H         1 306         0.0317
     56 H24        23.7542   -4.5095    4.5583 H         1 306         0.0317
     57 H25        22.5021   -3.7492    6.5683 H         1 306         0.0814
     58 H26        22.7967   -5.3411    7.3465 H         1 306         0.0814
@<TRIPOS>BOND
     1    2    1 1  
     2    1    5 2  
     3    2    3 2  
     4   16    2 1  
     5    3    4 1  
     6    4    5 1  
     7    6    7 2  
     8    6    8 1  
     9   24    6 1  
    10    7    9 1  
    11    8   10 1  
    12   10    9 ar 
    13    9   14 ar 
    14   10   11 ar 
    15   11   12 ar 
    16   12   13 ar 
    17   14   13 ar 
    18   13   15 1  
    19   15   27 1  
    20   17   16 ar 
    21   19   16 ar 
    22   18   17 ar 
    23   21   18 ar 
    24   20   19 ar 
    25   21   20 ar 
    26   20   25 1  
    27   22   21 1  
    28   23   22 am 
    29   23   24 1  
    30   23   26 2  
    31   24   25 2  
    32   27   28 1  
    33   27   32 1  
    34   28   29 1  
    35   29   30 1  
    36   30   31 1  
    37   31   32 1  
    38    1   33 1  
    39    3   34 1  
    40    4   35 1  
    41    7   36 1  
    42    8   37 1  
    43   11   38 1  
    44   12   39 1  
    45   14   40 1  
    46   15   41 1  
    47   15   42 1  
    48   17   43 1  
    49   18   44 1  
    50   19   45 1  
    51   22   46 1  
    52   25   47 1  
    53   27   48 1  
    54   28   49 1  
    55   28   50 1  
    56   29   51 1  
    57   29   52 1  
    58   30   53 1  
    59   30   54 1  
    60   31   55 1  
    61   31   56 1  
    62   32   57 1  
    63   32   58 1  
@<TRIPOS>SUBSTRUCTURE
     1 306         1

