### 
### Created by X-TOOL on Mon Sep 10 21:12:56 2018
### 

@<TRIPOS>MOLECULE
2hyy_ligand
   70    74     1     0     0
SMALL
GAST_HUCK


@<TRIPOS>ATOM
      1 C1         22.8270   11.7250   13.7800 C.ar      1 STI        -0.0301
      2 C6         22.0360   12.1770   14.8390 C.ar      1 STI        -0.0291
      3 C5         20.6680   11.8090   14.9590 C.ar      1 STI         0.0316
      4 C4         20.1400   11.0010   13.9470 C.ar      1 STI         0.0248
      5 N3         20.8920   10.5700   12.9040 N.ar      1 STI        -0.2920
      6 C2         22.1760   10.9310   12.8420 C.ar      1 STI         0.0142
      7 C7         19.7780   12.2610   16.1190 C.ar      1 STI         0.0621
      8 C12        20.2660   12.8280   17.2280 C.ar      1 STI        -0.0153
      9 C11        19.3470   13.1770   18.2350 C.ar      1 STI         0.0146
     10 N10        18.0470   12.9440   18.0700 N.ar      1 STI        -0.2516
     11 C9         17.5930   12.3830   16.9620 C.ar      1 STI         0.2094
     12 N8         18.4330   12.0210   15.9770 N.ar      1 STI        -0.2455
     13 N13        16.2540   12.1250   16.6950 N.pl3     1 STI        -0.2475
     14 C14        15.3460   12.2710   17.7100 C.ar      1 STI         0.0547
     15 C19        15.2340   11.3050   18.7320 C.ar      1 STI        -0.0359
     16 C18        14.2850   11.5390   19.7140 C.ar      1 STI        -0.0821
     17 C17        13.4510   12.6990   19.6990 C.ar      1 STI        -0.0588
     18 C16        13.5600   13.6330   18.6980 C.ar      1 STI         0.0494
     19 C15        14.5060   13.4010   17.6880 C.ar      1 STI        -0.0244
     20 N21        12.6590   14.7350   18.8140 N.am      1 STI        -0.2404
     21 C22        12.5890   15.6820   17.8510 C.2       1 STI         0.2255
     22 C23        11.4550   16.6420   17.9000 C.ar      1 STI         0.0485
     23 C25        11.0790   17.3300   16.7130 C.ar      1 STI        -0.0479
     24 C26        10.0060   18.2850   16.6780 C.ar      1 STI        -0.0494
     25 C27         9.2980   18.5360   17.8690 C.ar      1 STI         0.0061
     26 C28         9.6620   17.8540   19.0650 C.ar      1 STI        -0.0494
     27 C29        10.7360   16.9080   19.1120 C.ar      1 STI        -0.0479
     28 C46         8.1960   19.5290   17.8320 C.3       1 STI         0.0045
     29 N48         8.1910   20.4060   18.9880 N.4       1 STI         0.2553
     30 C53         9.4550   21.1520   19.1060 C.3       1 STI         0.0110
     31 C52         9.4480   22.0490   20.4020 C.3       1 STI         0.0092
     32 N51         8.1500   22.8120   20.4470 N.4       1 STI         0.2405
     33 C54         8.1830   23.6190   21.6400 C.3       1 STI        -0.0427
     34 C50         6.9280   22.0290   20.3800 C.3       1 STI         0.0092
     35 C49         6.9520   21.2300   19.0530 C.3       1 STI         0.0110
     36 O29        13.3990   15.8030   16.9310 O.2       1 STI        -0.3771
     37 C20        16.0750   10.0530   18.8150 C.3       1 STI        -0.0402
     38 H1         23.8780   11.9764   13.6950 H         1 STI         0.0718
     39 H2         22.4764   12.8248   15.5883 H         1 STI         0.0773
     40 H3         19.0970   10.7101   13.9979 H         1 STI         0.0864
     41 H4         22.7550   10.5784   11.9962 H         1 STI         0.0847
     42 H5         21.3278   13.0115   17.3463 H         1 STI         0.0677
     43 H6         19.6999   13.6382   19.1503 H         1 STI         0.0893
     44 H7         15.9513   11.8308   15.7555 H         1 STI         0.2158
     45 H8         14.1719   10.8205   20.5177 H         1 STI         0.0490
     46 H9         12.7223   12.8439   20.4884 H         1 STI         0.0394
     47 H10        14.5923   14.1085   16.8713 H         1 STI         0.0399
     48 H11        12.0709   14.8075   19.6195 H         1 STI         0.2227
     49 H12        11.6237   17.1256   15.7984 H         1 STI         0.0652
     50 H13         9.7483   18.7987   15.7589 H         1 STI         0.0572
     51 H14         9.1059   18.0584   19.9728 H         1 STI         0.0572
     52 H15        10.9980   16.4074   20.0371 H         1 STI         0.0652
     53 H16         7.2379   18.9898   17.7957 H         1 STI         0.0991
     54 H17         8.3060   20.1426   16.9257 H         1 STI         0.0991
     55 H18         8.1564   19.8054   19.7968 H         1 STI         0.2053
     56 H19         9.5800   21.7944   18.2219 H         1 STI         0.0868
     57 H20        10.2915   20.4400   19.1632 H         1 STI         0.0868
     58 H21        10.2919   22.7538   20.3702 H         1 STI         0.0868
     59 H22         9.5354   21.4122   21.2947 H         1 STI         0.0868
     60 H23         8.1378   23.4267   19.6482 H         1 STI         0.2035
     61 H24         7.2508   24.1979   21.7170 H         1 STI         0.0778
     62 H25         9.0394   24.3077   21.5933 H         1 STI         0.0778
     63 H26         8.2839   22.9676   22.5206 H         1 STI         0.0778
     64 H27         6.0539   22.6965   20.3995 H         1 STI         0.0868
     65 H28         6.8796   21.3365   21.2333 H         1 STI         0.0868
     66 H29         6.0718   20.5719   19.0061 H         1 STI         0.0868
     67 H30         6.9326   21.9294   18.2042 H         1 STI         0.0868
     68 H31        16.7721   10.0225   17.9646 H         1 STI         0.0342
     69 H32        15.4209    9.1692   18.7847 H         1 STI         0.0342
     70 H33        16.6446   10.0556   19.7560 H         1 STI         0.0342
@<TRIPOS>BOND
     1    1    2 ar 
     2    1    6 ar 
     3    2    3 ar 
     4    3    4 ar 
     5    3    7 1  
     6    4    5 ar 
     7    5    6 ar 
     8    7    8 ar 
     9    7   12 ar 
    10    8    9 ar 
    11    9   10 ar 
    12   10   11 ar 
    13   11   12 ar 
    14   11   13 1  
    15   13   14 1  
    16   14   15 ar 
    17   14   19 ar 
    18   15   16 ar 
    19   15   37 1  
    20   16   17 ar 
    21   17   18 ar 
    22   18   19 ar 
    23   18   20 1  
    24   20   21 am 
    25   21   22 1  
    26   21   36 2  
    27   22   23 ar 
    28   22   27 ar 
    29   23   24 ar 
    30   24   25 ar 
    31   25   26 ar 
    32   25   28 1  
    33   26   27 ar 
    34   28   29 1  
    35   29   30 1  
    36   29   35 1  
    37   30   31 1  
    38   31   32 1  
    39   32   33 1  
    40   32   34 1  
    41   34   35 1  
    42    1   38 1  
    43    2   39 1  
    44    4   40 1  
    45    6   41 1  
    46    8   42 1  
    47    9   43 1  
    48   13   44 1  
    49   16   45 1  
    50   17   46 1  
    51   19   47 1  
    52   20   48 1  
    53   23   49 1  
    54   24   50 1  
    55   26   51 1  
    56   27   52 1  
    57   28   53 1  
    58   28   54 1  
    59   29   55 1  
    60   30   56 1  
    61   30   57 1  
    62   31   58 1  
    63   31   59 1  
    64   32   60 1  
    65   33   61 1  
    66   33   62 1  
    67   33   63 1  
    68   34   64 1  
    69   34   65 1  
    70   35   66 1  
    71   35   67 1  
    72   37   68 1  
    73   37   69 1  
    74   37   70 1  
@<TRIPOS>SUBSTRUCTURE
     1 STI         1

