### 
### Created by X-TOOL on Mon Sep 10 21:12:55 2018
### 

@<TRIPOS>MOLECULE
2hz0_ligand
   53    55     1     0     0
SMALL
GAST_HUCK


@<TRIPOS>ATOM
      1 C12        17.2420   46.0320   56.8250 C.2       1 GIN         0.2232
      2 C16        15.7470   47.8320   57.4430 C.ar      1 GIN         0.0877
      3 C19        14.4090   50.3600   56.9830 C.ar      1 GIN        -0.0199
      4 C20        14.8590   49.9640   58.3070 C.ar      1 GIN        -0.0367
      5 C21        15.5090   48.7220   58.5360 C.ar      1 GIN        -0.0151
      6 C24        13.7030   51.7030   56.8420 C.3       1 GIN        -0.0083
      7 C30        12.1600   51.6060   57.1500 C.3       1 GIN        -0.0423
      8 C31        11.5280   53.0130   57.0430 C.3       1 GIN        -0.0628
      9 C32        21.1330   44.7780   55.7300 C.3       1 GIN         0.0592
     10 C33        21.5200   43.7220   54.6540 C.2       1 GIN         0.0186
     11 C34        22.9030   43.5140   54.3430 C.2       1 GIN        -0.0270
     12 C35        23.2970   42.6080   53.4130 C.3       1 GIN         0.0681
     13 C01        17.6950   44.6690   57.2480 C.ar      1 GIN         0.0728
     14 C02        16.9120   43.9220   58.1500 C.ar      1 GIN        -0.0529
     15 C03        17.3140   42.6430   58.5800 C.ar      1 GIN        -0.0693
     16 C04        18.5090   42.0730   58.0980 C.ar      1 GIN        -0.0691
     17 C05        19.2990   42.8130   57.1600 C.ar      1 GIN        -0.0380
     18 C06        18.8950   44.0910   56.7410 C.ar      1 GIN         0.0613
     19 N11        19.6700   44.8250   55.8060 N.pl3     1 GIN        -0.3098
     20 N13        16.3500   46.5940   57.6570 N.am      1 GIN        -0.2328
     21 O14        17.6800   46.5710   55.7840 O.2       1 GIN        -0.3812
     22 C17        15.3110   48.2240   56.1630 C.ar      1 GIN        -0.0204
     23 C18        14.6630   49.4880   55.9000 C.ar      1 GIN         0.0335
     24 C23        14.2360   49.8090   54.4500 C.3       1 GIN         0.3643
     25 F27        14.5140   48.8110   53.5930 F         1 GIN        -0.2292
     26 F28        12.9660   50.0550   54.2750 F         1 GIN        -0.2292
     27 F29        14.8620   50.8670   53.9810 F         1 GIN        -0.2292
     28 C36        22.3460   41.8030   52.6680 C.2       1 GIN         0.1747
     29 N37        21.0100   42.0490   53.0140 N.2       1 GIN        -0.2609
     30 C38        20.5990   42.9810   53.9710 C.2       1 GIN         0.0238
     31 O41        22.6730   40.9640   51.8600 O.2       1 GIN        -0.3902
     32 H1         14.6941   50.6347   59.1425 H         1 GIN         0.0614
     33 H2         15.8237   48.4498   59.5369 H         1 GIN         0.0763
     34 H3         13.8355   52.0653   55.8119 H         1 GIN         0.0486
     35 H4         14.1590   52.4172   57.5434 H         1 GIN         0.0486
     36 H5         12.0123   51.2133   58.1668 H         1 GIN         0.0292
     37 H6         11.6820   50.9323   56.4236 H         1 GIN         0.0292
     38 H7         10.4510   52.9484   57.2575 H         1 GIN         0.0232
     39 H8         11.6765   53.4053   56.0261 H         1 GIN         0.0232
     40 H9         12.0068   53.6862   57.7693 H         1 GIN         0.0232
     41 H10        21.5246   45.7651   55.4434 H         1 GIN         0.0638
     42 H11        21.5492   44.4876   56.7059 H         1 GIN         0.0638
     43 H12        23.6579   44.0985   54.8669 H         1 GIN         0.0888
     44 H13        23.9571   41.8994   53.9346 H         1 GIN         0.0745
     45 H14        23.8778   43.1679   52.6652 H         1 GIN         0.0745
     46 H15        15.9826   44.3397   58.5199 H         1 GIN         0.0634
     47 H16        16.7010   42.0940   59.2855 H         1 GIN         0.0519
     48 H17        18.8251   41.0912   58.4314 H         1 GIN         0.0619
     49 H18        20.2151   42.3836   56.7708 H         1 GIN         0.0528
     50 H19        19.1722   45.4300   55.1374 H         1 GIN         0.1802
     51 H20        16.1021   46.0908   58.4849 H         1 GIN         0.2235
     52 H21        15.4694   47.5438   55.3340 H         1 GIN         0.0654
     53 H22        19.5376   43.1169   54.1731 H         1 GIN         0.1098
@<TRIPOS>BOND
     1   13    1 1  
     2    1   20 am 
     3    1   21 2  
     4    2    5 ar 
     5   20    2 1  
     6    2   22 ar 
     7    4    3 ar 
     8    3    6 1  
     9    3   23 ar 
    10    5    4 ar 
    11    6    7 1  
    12    7    8 1  
    13    9   10 1  
    14   19    9 1  
    15   10   11 2  
    16   10   30 1  
    17   11   12 1  
    18   12   28 1  
    19   13   14 ar 
    20   18   13 ar 
    21   14   15 ar 
    22   16   15 ar 
    23   17   16 ar 
    24   18   17 ar 
    25   18   19 1  
    26   22   23 ar 
    27   23   24 1  
    28   24   25 1  
    29   24   26 1  
    30   24   27 1  
    31   28   29 1  
    32   28   31 2  
    33   29   30 2  
    34    4   32 1  
    35    5   33 1  
    36    6   34 1  
    37    6   35 1  
    38    7   36 1  
    39    7   37 1  
    40    8   38 1  
    41    8   39 1  
    42    8   40 1  
    43    9   41 1  
    44    9   42 1  
    45   11   43 1  
    46   12   44 1  
    47   12   45 1  
    48   14   46 1  
    49   15   47 1  
    50   16   48 1  
    51   17   49 1  
    52   19   50 1  
    53   20   51 1  
    54   22   52 1  
    55   30   53 1  
@<TRIPOS>SUBSTRUCTURE
     1 GIN         1

