### 
### Created by X-TOOL on Mon Sep 10 21:12:56 2018
### 

@<TRIPOS>MOLECULE
2hz4_ligand
   66    73     1     0     0
SMALL
GAST_HUCK


@<TRIPOS>ATOM
      1 CAB        24.5600    4.7580   25.4650 C.3       1 4ST         0.0373
      2 OAQ        25.0800    5.0520   26.7580 O.3       1 4ST        -0.3686
      3 CBF        25.0820    4.0320   27.7760 C.3       1 4ST         0.1556
      4 CBD        25.0900    4.7730   29.1140 C.3       1 4ST         0.0143
      5 NAO        23.8280    5.5410   29.2760 N.4       1 4ST         0.2291
      6 CAA        23.2360    5.8860   30.5830 C.3       1 4ST        -0.0445
      7 CAN        26.3850    5.6050   29.1340 C.3       1 4ST         0.0468
      8 CBE        27.5350    4.6870   28.6540 C.3       1 4ST         0.1691
      9 OAR        27.2650    3.2740   28.4590 O.3       1 4ST        -0.3138
     10 CBI        26.1590    2.8890   27.6240 C.3       1 4ST         0.2021
     11 CAC        25.7670    1.5880   28.3540 C.3       1 4ST        -0.0059
     12 NBH        26.6590    2.6650   26.2470 N.pl3     1 4ST        -0.2306
     13 CAY        26.2510    1.7600   25.2350 C.ar      1 4ST         0.0678
     14 CAH        25.2550    0.7280   25.1860 C.ar      1 4ST        -0.0420
     15 CAF        25.0630   -0.0780   24.0140 C.ar      1 4ST        -0.0750
     16 CAE        25.8630    0.1510   22.8660 C.ar      1 4ST        -0.0771
     17 CAG        26.8550    1.1730   22.9270 C.ar      1 4ST        -0.0714
     18 CAX        27.0110    1.9350   24.1220 C.ar      1 4ST        -0.0117
     19 CBA        27.9270    3.0020   24.3920 C.ar      1 4ST        -0.0049
     20 CBC        27.6990    3.4580   25.7410 C.ar      1 4ST         0.0904
     21 CBB        28.4310    4.4750   26.2900 C.ar      1 4ST         0.0852
     22 NBG        28.3700    5.0960   27.5330 N.pl3     1 4ST        -0.2452
     23 CAV        29.3260    6.0820   27.6120 C.2       1 4ST         0.0415
     24 CAL        29.6050    6.9680   28.8130 C.3       1 4ST        -0.0002
     25 CAJ        30.2140    8.3110   28.3770 C.3       1 4ST        -0.0409
     26 CAI        31.4130    8.1240   27.4240 C.3       1 4ST        -0.0488
     27 CAK        31.1210    7.1740   26.2280 C.3       1 4ST        -0.0424
     28 CAT        30.0170    6.1670   26.4560 C.2       1 4ST        -0.0516
     29 CAZ        29.4730    5.1610   25.5620 C.ar      1 4ST        -0.0305
     30 CAW        29.6800    4.6970   24.2280 C.ar      1 4ST         0.0198
     31 CAU        28.9460    3.6500   23.6580 C.ar      1 4ST        -0.0236
     32 CAM        29.3630    3.3680   22.2350 C.3       1 4ST         0.0591
     33 NAP        30.4180    4.3800   22.1310 N.am      1 4ST        -0.2803
     34 CAS        30.6190    5.1420   23.2230 C.2       1 4ST         0.1808
     35 OAD        31.4300    6.0540   23.3670 O.2       1 4ST        -0.4004
     36 H1         24.6406    5.6497   24.8260 H         1 4ST         0.0524
     37 H2         23.5036    4.4641   25.5527 H         1 4ST         0.0524
     38 H3         25.1342    3.9333   25.0177 H         1 4ST         0.0524
     39 H4         24.1134    3.5155   27.7050 H         1 4ST         0.0710
     40 H5         25.1390    4.0424   29.9349 H         1 4ST         0.0880
     41 H6         23.1220    5.0136   28.7866 H         1 4ST         0.2014
     42 H7         23.9793    6.4187   28.8040 H         1 4ST         0.2014
     43 H8         22.3074    6.4545   30.4263 H         1 4ST         0.0777
     44 H9         23.9474    6.4970   31.1580 H         1 4ST         0.0777
     45 H10        23.0118    4.9637   31.1389 H         1 4ST         0.0777
     46 H11        26.5884    5.9589   30.1555 H         1 4ST         0.0374
     47 H12        26.2872    6.4684   28.4595 H         1 4ST         0.0374
     48 H13        28.2161    4.7155   29.5173 H         1 4ST         0.0949
     49 H14        26.5556    0.8348   28.2098 H         1 4ST         0.0284
     50 H15        24.8189    1.2092   27.9446 H         1 4ST         0.0284
     51 H16        25.6470    1.7921   29.4282 H         1 4ST         0.0284
     52 H17        24.6322    0.5528   26.0558 H         1 4ST         0.0535
     53 H18        24.3101   -0.8579   24.0066 H         1 4ST         0.0551
     54 H19        25.7239   -0.4358   21.9653 H         1 4ST         0.0513
     55 H20        27.4876    1.3699   22.0690 H         1 4ST         0.0555
     56 H21        30.3098    6.4541   29.4832 H         1 4ST         0.0443
     57 H22        28.6623    7.1571   29.3474 H         1 4ST         0.0443
     58 H23        30.5537    8.8533   29.2717 H         1 4ST         0.0289
     59 H24        29.4408    8.9004   27.8624 H         1 4ST         0.0289
     60 H25        32.2527    7.7082   28.0003 H         1 4ST         0.0278
     61 H26        31.6950    9.1090   27.0238 H         1 4ST         0.0278
     62 H27        32.0440    6.6204   26.0008 H         1 4ST         0.0321
     63 H28        30.8424    7.7932   25.3626 H         1 4ST         0.0321
     64 H29        28.5464    3.5415   21.5187 H         1 4ST         0.0680
     65 H30        29.7509    2.3465   22.1085 H         1 4ST         0.0680
     66 H31        30.9574    4.4979   21.2973 H         1 4ST         0.1860
@<TRIPOS>BOND
     1    1    2 1  
     2    2    3 1  
     3    3    4 1  
     4    3   10 1  
     5    4    5 1  
     6    4    7 1  
     7    5    6 1  
     8    7    8 1  
     9    8    9 1  
    10    8   22 1  
    11    9   10 1  
    12   10   11 1  
    13   10   12 1  
    14   12   13 1  
    15   12   20 1  
    16   13   14 ar 
    17   13   18 ar 
    18   14   15 ar 
    19   15   16 ar 
    20   16   17 ar 
    21   17   18 ar 
    22   18   19 1  
    23   19   20 ar 
    24   19   31 ar 
    25   20   21 ar 
    26   21   22 1  
    27   21   29 ar 
    28   22   23 1  
    29   23   24 1  
    30   23   28 2  
    31   24   25 1  
    32   25   26 1  
    33   26   27 1  
    34   27   28 1  
    35   28   29 1  
    36   29   30 ar 
    37   30   31 ar 
    38   30   34 1  
    39   31   32 1  
    40   32   33 1  
    41   33   34 am 
    42   34   35 2  
    43    1   36 1  
    44    1   37 1  
    45    1   38 1  
    46    3   39 1  
    47    4   40 1  
    48    5   41 1  
    49    5   42 1  
    50    6   43 1  
    51    6   44 1  
    52    6   45 1  
    53    7   46 1  
    54    7   47 1  
    55    8   48 1  
    56   11   49 1  
    57   11   50 1  
    58   11   51 1  
    59   14   52 1  
    60   15   53 1  
    61   16   54 1  
    62   17   55 1  
    63   24   56 1  
    64   24   57 1  
    65   25   58 1  
    66   25   59 1  
    67   26   60 1  
    68   26   61 1  
    69   27   62 1  
    70   27   63 1  
    71   32   64 1  
    72   32   65 1  
    73   33   66 1  
@<TRIPOS>SUBSTRUCTURE
     1 4ST         1

