### 
### Created by X-TOOL on Mon Sep 10 21:12:55 2018
### 

@<TRIPOS>MOLECULE
2hzi_ligand
   44    47     1     0     0
SMALL
GAST_HUCK


@<TRIPOS>ATOM
      1 C10        18.7180   14.5070    3.5840 C.2       1 JIN        -0.0306
      2 C12        17.6050   16.1330    4.9300 C.2       1 JIN         0.2279
      3 C13        15.1530   16.0020    5.3110 C.3       1 JIN         0.0547
      4 C15        22.0520   16.8670    5.8630 C.ar      1 JIN        -0.0503
      5 C16        22.4560   17.8380    4.9110 C.ar      1 JIN        -0.0636
      6 C19        20.1290   16.3200    4.5030 C.ar      1 JIN         0.0100
      7 C20        20.8670   16.1450    5.6450 C.ar      1 JIN         0.0446
      8 C27        12.7210   12.4780    3.1580 C.ar      1 JIN         0.0564
      9 C30         9.9420   13.0810    3.6230 C.ar      1 JIN         0.1208
     10 C31        10.9270   13.7090    4.3430 C.ar      1 JIN        -0.0438
     11 C34         9.2220   11.4610    1.9550 C.3       1 JIN        -0.0328
     12 F35         8.6710   13.3630    3.8870 F         1 JIN        -0.1983
     13 C29        10.3390   12.1550    2.6880 C.ar      1 JIN        -0.0214
     14 C28        11.6930   11.7860    2.4860 C.ar      1 JIN        -0.0382
     15 C26        12.2820   13.4030    4.1210 C.ar      1 JIN        -0.0460
     16 N08        13.9880   12.0550    2.8670 N.pl3     1 JIN        -0.2461
     17 C04        15.1360   12.7130    3.0870 C.ar      1 JIN         0.1969
     18 N03        16.1630   12.1260    2.5210 N.ar      1 JIN        -0.2619
     19 C02        17.3840   12.6850    2.6400 C.ar      1 JIN         0.0170
     20 N05        15.1830   13.8300    3.8310 N.ar      1 JIN        -0.2310
     21 C06        16.3920   14.4070    3.9860 C.ar      1 JIN         0.1654
     22 N11        16.4410   15.4940    4.7440 N.am      1 JIN        -0.1971
     23 O14        17.5860   17.1530    5.6210 O.2       1 JIN        -0.3929
     24 C09        18.7910   15.6810    4.3350 C.2       1 JIN         0.0552
     25 C01        17.5060   13.8530    3.4140 C.ar      1 JIN         0.0514
     26 C18        20.5380   17.2630    3.5440 C.ar      1 JIN         0.0446
     27 C17        21.7110   18.0230    3.7110 C.ar      1 JIN        -0.0503
     28 CL4        19.6970   17.5810    2.0470 Cl        1 JIN        -0.0720
     29 CL5        20.3770   14.9170    6.8500 Cl        1 JIN        -0.0720
     30 H1         19.6195   14.1008    3.1277 H         1 JIN         0.0728
     31 H2         15.3471   16.9017    5.9134 H         1 JIN         0.0583
     32 H3         14.7006   15.2261    5.9461 H         1 JIN         0.0583
     33 H4         14.4643   16.2518    4.4904 H         1 JIN         0.0583
     34 H5         22.6506   16.6844    6.7481 H         1 JIN         0.0617
     35 H6         23.3363   18.4424    5.0977 H         1 JIN         0.0594
     36 H7         10.6585   14.4476    5.0896 H         1 JIN         0.0559
     37 H8          9.6451   10.7452    1.2349 H         1 JIN         0.0381
     38 H9          8.6167   12.2064    1.4184 H         1 JIN         0.0381
     39 H10         8.5881   10.9242    2.6761 H         1 JIN         0.0381
     40 H11        11.9379   10.9712    1.8143 H         1 JIN         0.0466
     41 H12        13.0275   13.9076    4.7249 H         1 JIN         0.0474
     42 H13        14.0704   11.1262    2.4294 H         1 JIN         0.2187
     43 H14        18.2475   12.2466    2.1528 H         1 JIN         0.0898
     44 H15        22.0364   18.7253    2.9521 H         1 JIN         0.0617
@<TRIPOS>BOND
     1    1   24 2  
     2   25    1 1  
     3    2   22 am 
     4    2   23 2  
     5   24    2 1  
     6   22    3 1  
     7    4    5 ar 
     8    7    4 ar 
     9    5   27 ar 
    10    6    7 ar 
    11   24    6 1  
    12    6   26 ar 
    13    7   29 1  
    14    8   14 ar 
    15    8   15 ar 
    16   16    8 1  
    17   10    9 ar 
    18    9   12 1  
    19   13    9 ar 
    20   15   10 ar 
    21   13   11 1  
    22   14   13 ar 
    23   17   16 1  
    24   18   17 ar 
    25   17   20 ar 
    26   19   18 ar 
    27   19   25 ar 
    28   20   21 ar 
    29   21   22 1  
    30   21   25 ar 
    31   26   27 ar 
    32   26   28 1  
    33    1   30 1  
    34    3   31 1  
    35    3   32 1  
    36    3   33 1  
    37    4   34 1  
    38    5   35 1  
    39   10   36 1  
    40   11   37 1  
    41   11   38 1  
    42   11   39 1  
    43   14   40 1  
    44   15   41 1  
    45   16   42 1  
    46   19   43 1  
    47   27   44 1  
@<TRIPOS>SUBSTRUCTURE
     1 JIN         1

