### 
### Created by X-TOOL on Mon Sep 10 21:12:55 2018
### 

@<TRIPOS>MOLECULE
2hzl_ligand
    9     8     1     0     0
SMALL
GAST_HUCK


@<TRIPOS>ATOM
      1 C1         63.0350   76.2620   27.3310 C.2       1 PYR         0.1245
      2 O1         63.8110   75.2510   27.5920 O.co2     1 PYR        -0.5464
      3 O2         63.5600   77.4570   27.2800 O.co2     1 PYR        -0.5464
      4 C2         61.6580   76.1090   27.1100 C.2       1 PYR         0.1684
      5 O3         60.9730   77.1310   26.6870 O.2       1 PYR        -0.3580
      6 C3         60.9450   74.8150   27.3390 C.3       1 PYR         0.0191
      7 H1         59.8783   74.9369   27.0998 H         1 PYR         0.0463
      8 H2         61.0529   74.5183   28.3927 H         1 PYR         0.0463
      9 H3         61.3791   74.0378   26.6929 H         1 PYR         0.0463
@<TRIPOS>BOND
     1    1    2 ar 
     2    1    3 ar 
     3    1    4 1  
     4    4    5 2  
     5    4    6 1  
     6    6    7 1  
     7    6    8 1  
     8    6    9 1  
@<TRIPOS>SUBSTRUCTURE
     1 PYR         1

