### 
### Created by X-TOOL on Mon Sep 10 21:12:56 2018
### 

@<TRIPOS>MOLECULE
2hzn_ligand
   41    43     1     0     0
SMALL
GAST_HUCK


@<TRIPOS>ATOM
      1 C11        47.5410   30.8440   43.6370 C.ar      1 KIN        -0.0435
      2 C13        47.7180   31.0870   42.2710 C.ar      1 KIN        -0.0452
      3 C21        48.0740   23.6850   43.3000 C.ar      1 KIN         0.0577
      4 C22        49.2950   23.6190   42.5980 C.ar      1 KIN        -0.0478
      5 C24        49.8230   22.3920   42.1510 C.ar      1 KIN        -0.0404
      6 C27        47.9230   21.2530   43.1130 C.ar      1 KIN        -0.0404
      7 C32        49.4060   19.5470   40.7520 C.ar      1 KIN         0.1329
      8 C33        48.3030   19.9870   40.0070 C.ar      1 KIN        -0.0015
      9 C35        48.1360   19.5210   38.7130 C.ar      1 KIN         0.0004
     10 F01        47.9040   31.5700   39.5280 F         1 KIN        -0.2209
     11 C02        47.9650   30.2390   39.8940 C.3       1 KIN         0.3726
     12 F03        49.2240   29.7680   39.6020 F         1 KIN        -0.2209
     13 F04        47.0530   29.5380   39.1390 F         1 KIN        -0.2209
     14 C05        47.7360   30.0130   41.3680 C.ar      1 KIN         0.0333
     15 C06        47.5650   28.6970   41.8480 C.ar      1 KIN        -0.0127
     16 C08        47.3800   28.4350   43.2180 C.ar      1 KIN         0.0958
     17 C09        47.3910   29.5280   44.1070 C.ar      1 KIN        -0.0114
     18 N15        47.2070   27.1220   43.7380 N.am      1 KIN        -0.2089
     19 C17        47.7310   26.0460   43.1030 C.2       1 KIN         0.3146
     20 O18        48.3390   26.1070   41.9950 O.2       1 KIN        -0.3814
     21 N19        47.5430   24.9000   43.7870 N.am      1 KIN        -0.2199
     22 C26        49.1480   21.1950   42.4230 C.ar      1 KIN         0.1047
     23 C29        47.3940   22.4850   43.5540 C.ar      1 KIN        -0.0478
     24 O31        49.6280   19.9910   42.0130 O.3       1 KIN        -0.2573
     25 N37        48.9790   18.6650   38.1290 N.ar      1 KIN        -0.3127
     26 C38        50.0280   18.2370   38.8410 C.ar      1 KIN         0.0004
     27 C40        50.2880   18.6480   40.1430 C.ar      1 KIN        -0.0015
     28 H1         47.5195   31.6730   44.3351 H         1 KIN         0.0664
     29 H2         47.8409   32.1020   41.9109 H         1 KIN         0.0740
     30 H3         49.8403   24.5342   42.3975 H         1 KIN         0.0480
     31 H4         50.7536   22.3740   41.5954 H         1 KIN         0.0520
     32 H5         47.3771   20.3372   43.3089 H         1 KIN         0.0520
     33 H6         47.5909   20.6819   40.4372 H         1 KIN         0.0643
     34 H7         47.2793   19.8680   38.1467 H         1 KIN         0.0789
     35 H8         47.5764   27.8706   41.1465 H         1 KIN         0.0709
     36 H9         47.2820   29.3510   45.1709 H         1 KIN         0.0758
     37 H10        46.6911   26.9914   44.5846 H         1 KIN         0.2264
     38 H11        47.0255   24.9099   44.6427 H         1 KIN         0.2230
     39 H12        46.4541   22.5038   44.0937 H         1 KIN         0.0480
     40 H13        50.7104   17.5332   38.3783 H         1 KIN         0.0789
     41 H14        51.1569   18.2793   40.6760 H         1 KIN         0.0643
@<TRIPOS>BOND
     1    1    2 ar 
     2   17    1 ar 
     3   14    2 ar 
     4    4    3 ar 
     5    3   21 1  
     6   23    3 ar 
     7    5    4 ar 
     8   22    5 ar 
     9   22    6 ar 
    10    6   23 ar 
    11    7    8 ar 
    12   24    7 1  
    13    7   27 ar 
    14    8    9 ar 
    15    9   25 ar 
    16   11   10 1  
    17   11   12 1  
    18   11   13 1  
    19   14   11 1  
    20   15   14 ar 
    21   16   15 ar 
    22   16   17 ar 
    23   18   16 1  
    24   19   18 am 
    25   19   20 2  
    26   21   19 am 
    27   22   24 1  
    28   25   26 ar 
    29   26   27 ar 
    30    1   28 1  
    31    2   29 1  
    32    4   30 1  
    33    5   31 1  
    34    6   32 1  
    35    8   33 1  
    36    9   34 1  
    37   15   35 1  
    38   17   36 1  
    39   18   37 1  
    40   21   38 1  
    41   23   39 1  
    42   26   40 1  
    43   27   41 1  
@<TRIPOS>SUBSTRUCTURE
     1 KIN         1

