### 
### Created by X-TOOL on Mon Sep 10 21:12:53 2018
### 

@<TRIPOS>MOLECULE
2i0a_ligand
   84    87     1     0     0
SMALL
GAST_HUCK


@<TRIPOS>ATOM
      1 O45        20.8850   22.5110    4.6420 O.2       1 MUI        -0.3868
      2 C46        20.4790   23.6320    4.9430 C.2       1 MUI         0.1182
      3 C47        19.8080   24.5120    3.9400 C.3       1 MUI         0.0082
      4 C40        20.6710   24.1630    6.3340 C.ar      1 MUI         0.0162
      5 C41        20.1340   25.3970    6.6980 C.ar      1 MUI        -0.0565
      6 C42        20.3150   25.9010    7.9720 C.ar      1 MUI        -0.0345
      7 C45        21.4030   23.4380    7.2640 C.ar      1 MUI        -0.0565
      8 C44        21.5950   23.9420    8.5470 C.ar      1 MUI        -0.0345
      9 C43        21.0330   25.1700    8.9220 C.ar      1 MUI         0.0774
     10 N24        21.2330   25.7270   10.1970 N.am      1 MUI        -0.1862
     11 C26        21.5610   25.0660   11.2880 C.2       1 MUI         0.3578
     12 O27        21.6440   23.8610   11.4630 O.2       1 MUI        -0.3657
     13 O28        21.8790   26.0090   12.3310 O.3       1 MUI        -0.2312
     14 C25        21.2010   27.1640   10.3950 C.3       1 MUI         0.1068
     15 C29        21.9140   27.3160   11.7480 C.3       1 MUI         0.2019
     16 C21        21.1500   28.3670   12.4960 C.2       1 MUI         0.2130
     17 O22        21.2200   29.5310   12.1150 O.2       1 MUI        -0.3937
     18 N20        20.4170   27.9480   13.5300 N.am      1 MUI        -0.2769
     19 C19        19.5000   28.8090   14.2840 C.3       1 MUI         0.0789
     20 C32        18.1890   28.0010   14.2300 C.3       1 MUI         0.0064
     21 C38        17.8880   27.6200   12.7850 C.ar      1 MUI        -0.0408
     22 C37        17.5020   28.5870   11.8650 C.ar      1 MUI        -0.0603
     23 C36        17.2600   28.2310   10.5390 C.ar      1 MUI        -0.0686
     24 C35        17.3820   26.9140   10.1210 C.ar      1 MUI        -0.0687
     25 C34        17.7720   25.9410   11.0340 C.ar      1 MUI        -0.0686
     26 C33        18.0180   26.2920   12.3560 C.ar      1 MUI        -0.0603
     27 C17        19.9750   29.1550   15.6950 C.3       1 MUI         0.0968
     28 O18        19.9060   28.0150   16.5600 O.3       1 MUI        -0.3877
     29 C16        19.1370   30.2990   16.2850 C.3       1 MUI         0.0578
     30 N11        19.3880   31.5470   15.5200 N.am      1 MUI        -0.2325
     31 C12        20.1700   32.5410   16.2880 C.3       1 MUI         0.0319
     32 C13        21.6620   32.1890   16.2950 C.3       1 MUI        -0.0296
     33 C15        22.4280   33.1840   17.1590 C.3       1 MUI        -0.0612
     34 C14        22.2640   32.1250   14.8890 C.3       1 MUI        -0.0612
     35 S8         18.0720   32.2190   14.8140 S.o2      1 MUI         0.0657
     36 O10        17.2770   31.1770   14.2510 O.2       1 MUI        -0.1515
     37 O9         18.6210   33.0520   13.7690 O.2       1 MUI        -0.1515
     38 C5         17.1930   33.1010   15.8520 C.ar      1 MUI         0.0971
     39 C6         16.2110   32.5170   16.6620 C.ar      1 MUI        -0.0440
     40 C7         15.4760   33.2890   17.5760 C.ar      1 MUI        -0.0313
     41 C2         15.7060   34.6590   17.6890 C.ar      1 MUI         0.0908
     42 O19        14.9750   35.4000   18.5900 O.3       1 MUI        -0.3212
     43 C18        15.2940   36.7590   18.9010 C.3       1 MUI         0.0594
     44 C3         16.6790   35.2490   16.8710 C.ar      1 MUI        -0.0313
     45 C4         17.4090   34.4720   15.9660 C.ar      1 MUI        -0.0440
     46 H1         19.5266   25.4627    4.4164 H         1 MUI         0.0446
     47 H2         18.9056   24.0117    3.5587 H         1 MUI         0.0446
     48 H3         20.4976   24.7098    3.1062 H         1 MUI         0.0446
     49 H4         19.5670   25.9687    5.9722 H         1 MUI         0.0632
     50 H5         19.8986   26.8666    8.2352 H         1 MUI         0.0518
     51 H6         21.8257   22.4780    6.9907 H         1 MUI         0.0632
     52 H7         22.1843   23.3799    9.2625 H         1 MUI         0.0518
     53 H8         20.1676   27.5379   10.4436 H         1 MUI         0.0645
     54 H9         21.7440   27.6898    9.5958 H         1 MUI         0.0645
     55 H10        22.9580   27.6389   11.6227 H         1 MUI         0.0920
     56 H11        20.4980   26.9905   13.8068 H         1 MUI         0.1858
     57 H12        19.3659   29.7599   13.7475 H         1 MUI         0.0605
     58 H13        17.3650   28.6115   14.6277 H         1 MUI         0.0449
     59 H14        18.2949   27.0888   14.8355 H         1 MUI         0.0449
     60 H15        17.3890   29.6186   12.1784 H         1 MUI         0.0557
     61 H16        16.9725   28.9940    9.8247 H         1 MUI         0.0599
     62 H17        17.1750   26.6459    9.0913 H         1 MUI         0.0559
     63 H18        17.8840   24.9109   10.7155 H         1 MUI         0.0599
     64 H19        18.3146   25.5279   13.0654 H         1 MUI         0.0557
     65 H20        21.0230   29.4836   15.6345 H         1 MUI         0.0634
     66 H21        20.2063   28.2586   17.4277 H         1 MUI         0.2100
     67 H22        19.4169   30.4525   17.3377 H         1 MUI         0.0504
     68 H23        18.0696   30.0404   16.2233 H         1 MUI         0.0504
     69 H24        19.8021   32.5635   17.3244 H         1 MUI         0.0480
     70 H25        20.0377   33.5325   15.8303 H         1 MUI         0.0480
     71 H26        21.7674   31.1916   16.7467 H         1 MUI         0.0311
     72 H27        23.4968   32.9237   17.1580 H         1 MUI         0.0233
     73 H28        22.0428   33.1481   18.1887 H         1 MUI         0.0233
     74 H29        22.2973   34.1982   16.7538 H         1 MUI         0.0233
     75 H30        21.6992   31.4031   14.2809 H         1 MUI         0.0233
     76 H31        23.3149   31.8066   14.9542 H         1 MUI         0.0233
     77 H32        22.2105   33.1193   14.4216 H         1 MUI         0.0233
     78 H33        16.0156   31.4538   16.5822 H         1 MUI         0.0608
     79 H34        14.7245   32.8162   18.1980 H         1 MUI         0.0542
     80 H35        14.5772   37.1437   19.6414 H         1 MUI         0.0577
     81 H36        15.2382   37.3673   17.9862 H         1 MUI         0.0577
     82 H37        16.3119   36.8113   19.3146 H         1 MUI         0.0577
     83 H38        16.8669   36.3143   16.9402 H         1 MUI         0.0542
     84 H39        18.1574   34.9460   15.3412 H         1 MUI         0.0608
@<TRIPOS>BOND
     1    1    2 2  
     2    2    3 1  
     3    2    4 1  
     4    4    5 ar 
     5    4    7 ar 
     6    5    6 ar 
     7    6    9 ar 
     8    7    8 ar 
     9    8    9 ar 
    10    9   10 1  
    11   10   11 am 
    12   10   14 1  
    13   11   12 2  
    14   11   13 1  
    15   13   15 1  
    16   14   15 1  
    17   15   16 1  
    18   16   17 2  
    19   16   18 am 
    20   18   19 1  
    21   19   20 1  
    22   19   27 1  
    23   20   21 1  
    24   21   22 ar 
    25   21   26 ar 
    26   22   23 ar 
    27   23   24 ar 
    28   24   25 ar 
    29   25   26 ar 
    30   27   28 1  
    31   27   29 1  
    32   29   30 1  
    33   30   31 1  
    34   30   35 am 
    35   31   32 1  
    36   32   33 1  
    37   32   34 1  
    38   35   36 2  
    39   35   37 2  
    40   35   38 1  
    41   38   39 ar 
    42   38   45 ar 
    43   39   40 ar 
    44   40   41 ar 
    45   41   42 1  
    46   41   44 ar 
    47   42   43 1  
    48   44   45 ar 
    49    3   46 1  
    50    3   47 1  
    51    3   48 1  
    52    5   49 1  
    53    6   50 1  
    54    7   51 1  
    55    8   52 1  
    56   14   53 1  
    57   14   54 1  
    58   15   55 1  
    59   18   56 1  
    60   19   57 1  
    61   20   58 1  
    62   20   59 1  
    63   22   60 1  
    64   23   61 1  
    65   24   62 1  
    66   25   63 1  
    67   26   64 1  
    68   27   65 1  
    69   28   66 1  
    70   29   67 1  
    71   29   68 1  
    72   31   69 1  
    73   31   70 1  
    74   32   71 1  
    75   33   72 1  
    76   33   73 1  
    77   33   74 1  
    78   34   75 1  
    79   34   76 1  
    80   34   77 1  
    81   39   78 1  
    82   40   79 1  
    83   43   80 1  
    84   43   81 1  
    85   43   82 1  
    86   44   83 1  
    87   45   84 1  
@<TRIPOS>SUBSTRUCTURE
     1 MUI         1

