### 
### Created by X-TOOL on Mon Sep 10 21:12:53 2018
### 

@<TRIPOS>MOLECULE
2i0d_ligand
   84    87     1     0     0
SMALL
GAST_HUCK


@<TRIPOS>ATOM
      1 O9         18.4710   33.3790   13.7330 O.2       1 MUT        -0.1515
      2 S8         17.9420   32.5070   14.7630 S.o2      1 MUT         0.0657
      3 O10        17.1760   31.4470   14.1620 O.2       1 MUT        -0.1515
      4 C5         17.0350   33.3960   15.7810 C.ar      1 MUT         0.0971
      5 C4         17.2940   34.7620   15.9630 C.ar      1 MUT        -0.0440
      6 C3         16.5620   35.5430   16.8590 C.ar      1 MUT        -0.0313
      7 C2         15.5670   34.9440   17.6510 C.ar      1 MUT         0.0908
      8 O19        14.8560   35.6510   18.5860 O.3       1 MUT        -0.3212
      9 C18        15.0380   37.0550   18.7950 C.3       1 MUT         0.0594
     10 C7         15.3200   33.5790   17.5070 C.ar      1 MUT        -0.0313
     11 C6         16.0550   32.8130   16.5880 C.ar      1 MUT        -0.0440
     12 N11        19.2180   31.8380   15.4990 N.am      1 MUT        -0.2325
     13 C12        19.9880   32.7990   16.3320 C.3       1 MUT         0.0319
     14 C13        21.4740   32.4330   16.3210 C.3       1 MUT        -0.0296
     15 C14        22.0630   32.3930   14.9120 C.3       1 MUT        -0.0612
     16 C15        22.2990   33.3860   17.1770 C.3       1 MUT        -0.0612
     17 C16        18.9360   30.5520   16.1620 C.3       1 MUT         0.0578
     18 C17        19.8300   29.4520   15.5710 C.3       1 MUT         0.0968
     19 O18        19.7600   28.2940   16.4230 O.3       1 MUT        -0.3877
     20 C19        19.3950   29.1670   14.1200 C.3       1 MUT         0.0789
     21 C32        18.0560   28.4150   14.0070 C.3       1 MUT         0.0064
     22 C38        17.7680   28.0790   12.5480 C.ar      1 MUT        -0.0408
     23 C33        17.9540   26.7850   12.0510 C.ar      1 MUT        -0.0603
     24 C34        17.7220   26.4830   10.7180 C.ar      1 MUT        -0.0686
     25 C35        17.2760   27.4740    9.8470 C.ar      1 MUT        -0.0687
     26 C36        17.0940   28.7610   10.3340 C.ar      1 MUT        -0.0686
     27 C37        17.3350   29.0660   11.6750 C.ar      1 MUT        -0.0603
     28 N20        20.3400   28.3000   13.3950 N.am      1 MUT        -0.2769
     29 C21        21.0390   28.7550   12.3510 C.2       1 MUT         0.2129
     30 O22        21.0420   29.9310   12.0260 O.2       1 MUT        -0.3937
     31 C29        21.8480   27.7840   11.5280 C.3       1 MUT         0.2016
     32 O28        21.8360   26.4690   12.0840 O.3       1 MUT        -0.2316
     33 C26        21.4580   25.5680   11.0160 C.2       1 MUT         0.3556
     34 O27        21.5270   24.3660   11.2130 O.2       1 MUT        -0.3667
     35 C25        21.2060   27.6880   10.1210 C.3       1 MUT         0.1053
     36 N24        21.1320   26.2450    9.9100 N.am      1 MUT        -0.1889
     37 C43        20.7790   25.6650    8.6590 C.ar      1 MUT         0.0770
     38 C44        21.2180   24.3930    8.2840 C.ar      1 MUT        -0.0365
     39 C45        20.8490   23.8240    7.0610 C.ar      1 MUT        -0.0697
     40 C40        20.0400   24.5230    6.1780 C.ar      1 MUT        -0.0585
     41 C42        19.9680   26.3580    7.7500 C.ar      1 MUT        -0.0225
     42 C41        19.5970   25.7990    6.5280 C.ar      1 MUT         0.0187
     43 C46        18.6970   26.5940    5.5760 C.2       1 MUT         0.1264
     44 O45        18.3090   27.7060    5.9080 O.2       1 MUT        -0.3787
     45 C47        18.2950   25.9900    4.2650 C.3       1 MUT         0.0106
     46 H1         18.0881   35.2264   15.3896 H         1 MUT         0.0608
     47 H2         16.7597   36.6055   16.9436 H         1 MUT         0.0542
     48 H3         14.3613   37.3979   19.5916 H         1 MUT         0.0577
     49 H4         14.8129   37.5965   17.8644 H         1 MUT         0.0577
     50 H5         16.0797   37.2499   19.0898 H         1 MUT         0.0577
     51 H6         14.5538   33.1052   18.1099 H         1 MUT         0.0542
     52 H7         15.8585   31.7503   16.5032 H         1 MUT         0.0608
     53 H8         19.6131   32.7661   17.3656 H         1 MUT         0.0480
     54 H9         19.8605   33.8141   15.9278 H         1 MUT         0.0480
     55 H10        21.5646   31.4250   16.7518 H         1 MUT         0.0311
     56 H11        23.1286   32.1258   14.9675 H         1 MUT         0.0233
     57 H12        21.9570   33.3819   14.4420 H         1 MUT         0.0233
     58 H13        21.5276   31.6425   14.3119 H         1 MUT         0.0233
     59 H14        21.8811   33.4205   18.1939 H         1 MUT         0.0233
     60 H15        22.2717   34.3929   16.7350 H         1 MUT         0.0233
     61 H16        23.3398   33.0326   17.2201 H         1 MUT         0.0233
     62 H17        17.8799   30.2858   16.0075 H         1 MUT         0.0504
     63 H18        19.1368   30.6454   17.2395 H         1 MUT         0.0504
     64 H19        20.8715   29.8055   15.5537 H         1 MUT         0.0634
     65 H20        20.0629   28.5240   17.2935 H         1 MUT         0.2100
     66 H21        19.3138   30.1346   13.6031 H         1 MUT         0.0605
     67 H22        17.2479   29.0487   14.4011 H         1 MUT         0.0449
     68 H23        18.1104   27.4845   14.5911 H         1 MUT         0.0449
     69 H24        18.2866   26.0016   12.7223 H         1 MUT         0.0557
     70 H25        17.8877   25.4756   10.3537 H         1 MUT         0.0599
     71 H26        17.0745   27.2443    8.8070 H         1 MUT         0.0559
     72 H27        16.7590   29.5426    9.6617 H         1 MUT         0.0599
     73 H28        17.1833   30.0772   12.0349 H         1 MUT         0.0557
     74 H29        20.4607   27.3522   13.6900 H         1 MUT         0.1858
     75 H30        22.8847   28.1440   11.4528 H         1 MUT         0.0919
     76 H31        21.8386   28.1697    9.3609 H         1 MUT         0.0641
     77 H32        20.2052   28.1442   10.1079 H         1 MUT         0.0641
     78 H33        21.8592   23.8344    8.9562 H         1 MUT         0.0539
     79 H34        21.1974   22.8308    6.8018 H         1 MUT         0.0589
     80 H35        19.7555   24.0840    5.2286 H         1 MUT         0.0541
     81 H36        19.6207   27.3531    8.0034 H         1 MUT         0.0555
     82 H37        17.6543   26.6965    3.7170 H         1 MUT         0.0450
     83 H38        17.7412   25.0569    4.4456 H         1 MUT         0.0450
     84 H39        19.1944   25.7733    3.6700 H         1 MUT         0.0450
@<TRIPOS>BOND
     1    1    2 2  
     2    2    3 2  
     3    2    4 1  
     4    2   12 am 
     5    4    5 ar 
     6    4   11 ar 
     7    5    6 ar 
     8    6    7 ar 
     9    7    8 1  
    10    7   10 ar 
    11    8    9 1  
    12   10   11 ar 
    13   12   13 1  
    14   12   17 1  
    15   13   14 1  
    16   14   15 1  
    17   14   16 1  
    18   17   18 1  
    19   18   19 1  
    20   18   20 1  
    21   20   21 1  
    22   20   28 1  
    23   21   22 1  
    24   22   23 ar 
    25   22   27 ar 
    26   23   24 ar 
    27   24   25 ar 
    28   25   26 ar 
    29   26   27 ar 
    30   28   29 am 
    31   29   30 2  
    32   29   31 1  
    33   31   32 1  
    34   31   35 1  
    35   32   33 1  
    36   33   34 2  
    37   33   36 am 
    38   35   36 1  
    39   36   37 1  
    40   37   38 ar 
    41   37   41 ar 
    42   38   39 ar 
    43   39   40 ar 
    44   40   42 ar 
    45   41   42 ar 
    46   42   43 1  
    47   43   44 2  
    48   43   45 1  
    49    5   46 1  
    50    6   47 1  
    51    9   48 1  
    52    9   49 1  
    53    9   50 1  
    54   10   51 1  
    55   11   52 1  
    56   13   53 1  
    57   13   54 1  
    58   14   55 1  
    59   15   56 1  
    60   15   57 1  
    61   15   58 1  
    62   16   59 1  
    63   16   60 1  
    64   16   61 1  
    65   17   62 1  
    66   17   63 1  
    67   18   64 1  
    68   19   65 1  
    69   20   66 1  
    70   21   67 1  
    71   21   68 1  
    72   23   69 1  
    73   24   70 1  
    74   25   71 1  
    75   26   72 1  
    76   27   73 1  
    77   28   74 1  
    78   31   75 1  
    79   35   76 1  
    80   35   77 1  
    81   38   78 1  
    82   39   79 1  
    83   40   80 1  
    84   41   81 1  
    85   45   82 1  
    86   45   83 1  
    87   45   84 1  
@<TRIPOS>SUBSTRUCTURE
     1 MUT         1

