### 
### Created by X-TOOL on Mon Sep 10 21:12:55 2018
### 

@<TRIPOS>MOLECULE
2i0g_ligand
   39    42     1     0     0
SMALL
GAST_HUCK


@<TRIPOS>ATOM
      1 C4         77.0370   39.8630   67.5790 C.3       1 I0G        -0.0043
      2 C6         77.8800   40.8900   68.3520 C.ar      1 I0G        -0.0181
      3 C7         78.7870   41.7320   67.6420 C.ar      1 I0G        -0.0399
      4 C8         79.5730   42.6830   68.3470 C.ar      1 I0G         0.0697
      5 C10        79.4570   42.7880   69.7490 C.ar      1 I0G        -0.0489
      6 C17        75.6740   38.5710   72.3300 C.ar      1 I0G        -0.0660
      7 C21        74.1550   36.3510   71.4500 C.ar      1 I0G        -0.0397
      8 C22        74.9640   37.0520   70.5380 C.ar      1 I0G        -0.0660
      9 C24        74.7270   40.6460   67.1340 C.3       1 I0G        -0.0506
     10 C1         74.7290   39.8970   68.4920 C.3       1 I0G        -0.0439
     11 C2         76.0490   39.0640   68.5110 C.3       1 I0G         0.0083
     12 O9         80.4400   43.4980   67.6880 O.3       1 I0G        -0.3420
     13 C11        78.5650   41.9630   70.4420 C.ar      1 I0G        -0.0478
     14 C12        77.7740   41.0120   69.7530 C.ar      1 I0G         0.0845
     15 O13        76.9200   40.2500   70.5140 O.3       1 I0G        -0.3146
     16 C14        76.6420   38.9490   69.9620 C.3       1 I0G         0.1107
     17 C16        75.7340   38.1700   70.9620 C.ar      1 I0G        -0.0208
     18 C18        74.8620   37.8620   73.2410 C.ar      1 I0G        -0.0397
     19 C19        74.1020   36.7480   72.7960 C.ar      1 I0G         0.0805
     20 O20        73.3320   36.0650   73.6600 O.3       1 I0G        -0.3376
     21 C23        76.1430   40.5400   66.5290 C.3       1 I0G        -0.0416
     22 H1         77.7222   39.1596   67.0833 H         1 I0G         0.0442
     23 H2         78.8765   41.6463   66.5651 H         1 I0G         0.0453
     24 H3         80.0597   43.5087   70.2898 H         1 I0G         0.0458
     25 H4         76.2532   39.4218   72.6703 H         1 I0G         0.0531
     26 H5         73.5709   35.5022   71.1132 H         1 I0G         0.0525
     27 H6         75.0011   36.7370   69.5014 H         1 I0G         0.0531
     28 H7         74.4663   41.7031   67.2910 H         1 I0G         0.0267
     29 H8         73.9952   40.1849   66.4544 H         1 I0G         0.0267
     30 H9         73.8551   39.2330   68.5654 H         1 I0G         0.0272
     31 H10        74.7157   40.6142   69.3259 H         1 I0G         0.0272
     32 H11        75.8701   38.0548   68.1117 H         1 I0G         0.0371
     33 H12        80.4052   43.3094   66.7576 H         1 I0G         0.2443
     34 H13        78.4783   42.0527   71.5188 H         1 I0G         0.0496
     35 H14        77.5922   38.4009   69.8800 H         1 I0G         0.0790
     36 H15        74.8185   38.1677   74.2801 H         1 I0G         0.0525
     37 H16        73.8752   35.7082   74.3529 H         1 I0G         0.2458
     38 H17        76.1160   39.9350   65.6107 H         1 I0G         0.0288
     39 H18        76.5291   41.5433   66.2959 H         1 I0G         0.0288
@<TRIPOS>BOND
     1    1    2 1  
     2   11    1 1  
     3    1   21 1  
     4    2    3 ar 
     5   14    2 ar 
     6    3    4 ar 
     7    5    4 ar 
     8    4   12 1  
     9   13    5 ar 
    10   17    6 ar 
    11    6   18 ar 
    12    8    7 ar 
    13    7   19 ar 
    14   17    8 ar 
    15   10    9 1  
    16    9   21 1  
    17   11   10 1  
    18   16   11 1  
    19   14   13 ar 
    20   15   14 1  
    21   16   15 1  
    22   16   17 1  
    23   18   19 ar 
    24   19   20 1  
    25    1   22 1  
    26    3   23 1  
    27    5   24 1  
    28    6   25 1  
    29    7   26 1  
    30    8   27 1  
    31    9   28 1  
    32    9   29 1  
    33   10   30 1  
    34   10   31 1  
    35   11   32 1  
    36   12   33 1  
    37   13   34 1  
    38   16   35 1  
    39   18   36 1  
    40   20   37 1  
    41   21   38 1  
    42   21   39 1  
@<TRIPOS>SUBSTRUCTURE
     1 I0G         1

