### 
### Created by X-TOOL on Mon Sep 10 21:12:53 2018
### 

@<TRIPOS>MOLECULE
2i0h_ligand
   56    60     1     0     0
SMALL
GAST_HUCK


@<TRIPOS>ATOM
      1 C13        22.1560    9.6740   30.7590 C.2       1 222         0.2431
      2 C1         24.8960   11.6670   30.8460 C.ar      1 222        -0.0284
      3 C2         23.8900   11.0410   31.6760 C.ar      1 222         0.1318
      4 C3         24.2680   10.5070   32.9720 C.ar      1 222         0.0719
      5 C4         25.6160   10.5880   33.4420 C.ar      1 222        -0.0568
      6 C5         26.6210   11.2160   32.6100 C.ar      1 222        -0.0728
      7 C6         26.2560   11.7560   31.3120 C.ar      1 222        -0.0706
      8 C14        20.7240    9.5950   30.3210 C.2       1 222         0.0192
      9 N11        22.5980   10.9330   31.2560 N.am      1 222        -0.1083
     10 CL1        23.0680    9.7460   33.9900 Cl        1 222        -0.0782
     11 C15        19.9180   10.6890   30.4110 C.2       1 222        -0.0037
     12 C16        20.4670   12.0160   30.9590 C.2       1 222         0.1619
     13 N17        21.8270   11.9870   31.3460 N.2       1 222        -0.1393
     14 O18        22.8200    8.6690   30.6570 O.2       1 222        -0.4042
     15 N21        20.0940   13.3900   31.2550 N.pl3     1 222        -0.2508
     16 C22        20.7690   14.6360   31.5960 C.3       1 222         0.0464
     17 C23        18.6610   13.4460   31.1830 C.ar      1 222         0.0708
     18 C33        18.0490   14.0450   29.9900 C.ar      1 222        -0.0409
     19 C34        16.6270   14.1460   29.8600 C.ar      1 222        -0.0385
     20 C35        15.7910   13.6570   30.9050 C.ar      1 222         0.1194
     21 C36        16.3130   13.0580   32.1030 C.ar      1 222        -0.0249
     22 C37        17.7380   12.9550   32.2440 C.ar      1 222         0.0594
     23 CL2        18.3100   12.2470   33.7110 Cl        1 222        -0.0812
     24 F42        14.4870   13.7710   30.7540 F         1 222        -0.1939
     25 C24        21.0460   14.9820   33.0300 C.3       1 222        -0.0051
     26 C27        21.9390   16.1590   33.3640 C.3       1 222         0.0586
     27 N30        23.3220   15.9440   32.8890 N.am      1 222        -0.1843
     28 C43        23.8280   16.3650   31.6820 C.2       1 222         0.2400
     29 C44        25.2180   15.9500   31.6640 C.ar      1 222         0.0732
     30 C45        25.4860   15.2980   32.8620 C.ar      1 222         0.0732
     31 C46        24.2580   15.2860   33.6410 C.2       1 222         0.2400
     32 C47        26.2070   16.1360   30.6770 C.ar      1 222        -0.0372
     33 C48        27.5050   15.6220   30.9520 C.ar      1 222        -0.0523
     34 C49        27.7830   14.9450   32.1930 C.ar      1 222        -0.0523
     35 C50        26.7600   14.7730   33.1640 C.ar      1 222        -0.0372
     36 O55        23.2150   16.9730   30.8040 O.2       1 222        -0.3670
     37 O56        24.0690   14.8050   34.7580 O.2       1 222        -0.3670
     38 H1         24.6269   12.0682   29.8756 H         1 222         0.0546
     39 H2         25.8829   10.1833   34.4116 H         1 222         0.0593
     40 H3         27.6461   11.2831   32.9560 H         1 222         0.0519
     41 H4         27.0097   12.2276   30.6918 H         1 222         0.0589
     42 H5         20.3272    8.6595   29.9296 H         1 222         0.0637
     43 H6         18.8786   10.6233   30.0929 H         1 222         0.0729
     44 H7         20.1527   15.4507   31.1882 H         1 222         0.0561
     45 H8         21.7413   14.6192   31.0819 H         1 222         0.0561
     46 H9         18.6847   14.4169   29.1946 H         1 222         0.0518
     47 H10        16.1897   14.5910   28.9735 H         1 222         0.0575
     48 H11        15.6489   12.6941   32.8786 H         1 222         0.0578
     49 H12        21.5057   14.0940   33.4883 H         1 222         0.0311
     50 H13        20.0726   15.1769   33.5039 H         1 222         0.0311
     51 H14        21.9538   16.2977   34.4551 H         1 222         0.0572
     52 H15        21.5333   17.0623   32.8849 H         1 222         0.0572
     53 H16        25.9879   16.6490   29.7476 H         1 222         0.0682
     54 H17        28.2944   15.7413   30.2187 H         1 222         0.0662
     55 H18        28.7792   14.5643   32.3872 H         1 222         0.0662
     56 H19        26.9509   14.2591   34.0992 H         1 222         0.0682
@<TRIPOS>BOND
     1    1    8 1  
     2    9    1 am 
     3    1   14 2  
     4    3    2 ar 
     5    2    7 ar 
     6    3    4 ar 
     7    3    9 1  
     8    4    5 ar 
     9    4   10 1  
    10    5    6 ar 
    11    6    7 ar 
    12    8   11 2  
    13    9   13 1  
    14   11   12 1  
    15   12   13 2  
    16   12   15 1  
    17   15   16 1  
    18   15   17 1  
    19   16   25 1  
    20   17   18 ar 
    21   17   22 ar 
    22   18   19 ar 
    23   19   20 ar 
    24   20   21 ar 
    25   20   24 1  
    26   21   22 ar 
    27   22   23 1  
    28   25   26 1  
    29   26   27 1  
    30   27   28 am 
    31   27   31 am 
    32   28   29 1  
    33   28   36 2  
    34   29   30 ar 
    35   29   32 ar 
    36   30   31 1  
    37   30   35 ar 
    38   31   37 2  
    39   32   33 ar 
    40   33   34 ar 
    41   34   35 ar 
    42    2   38 1  
    43    5   39 1  
    44    6   40 1  
    45    7   41 1  
    46    8   42 1  
    47   11   43 1  
    48   16   44 1  
    49   16   45 1  
    50   18   46 1  
    51   19   47 1  
    52   21   48 1  
    53   25   49 1  
    54   25   50 1  
    55   26   51 1  
    56   26   52 1  
    57   32   53 1  
    58   33   54 1  
    59   34   55 1  
    60   35   56 1  
@<TRIPOS>SUBSTRUCTURE
     1 222         1

