### 
### Created by X-TOOL on Mon Sep 10 21:12:55 2018
### 

@<TRIPOS>MOLECULE
2i0j_ligand
   39    42     1     0     0
SMALL
GAST_HUCK


@<TRIPOS>ATOM
      1 C4         33.7770   -5.1350   12.6810 C.3       1 I0G        -0.0043
      2 C6         32.8290   -6.2530   12.2810 C.ar      1 I0G        -0.0181
      3 C7         32.0240   -6.8730   13.2730 C.ar      1 I0G        -0.0399
      4 C8         31.1230   -7.9440   12.9310 C.ar      1 I0G         0.0697
      5 C10        31.0470   -8.3620   11.5760 C.ar      1 I0G        -0.0489
      6 C17        36.8180   -4.8700    9.3300 C.ar      1 I0G        -0.0660
      7 C21        35.9450   -4.7910    6.9730 C.ar      1 I0G        -0.0397
      8 C22        35.1710   -5.1810    8.0570 C.ar      1 I0G        -0.0660
      9 C24        32.9110   -2.9270   12.0410 C.3       1 I0G        -0.0506
     10 C1         33.7130   -3.5030   10.8610 C.3       1 I0G        -0.0439
     11 C2         34.6020   -4.5890   11.4670 C.3       1 I0G         0.0083
     12 O9         30.3190   -8.5760   13.9080 O.3       1 I0G        -0.3420
     13 C11        31.8460   -7.7280   10.6190 C.ar      1 I0G        -0.0478
     14 C12        32.7370   -6.6670   10.9660 C.ar      1 I0G         0.0845
     15 O13        33.4910   -6.0940    9.9580 O.3       1 I0G        -0.3146
     16 C14        34.7880   -5.6820   10.4280 C.3       1 I0G         0.1107
     17 C16        35.6130   -5.2260    9.2300 C.ar      1 I0G        -0.0208
     18 C18        37.5960   -4.4780    8.2570 C.ar      1 I0G        -0.0397
     19 C19        37.1650   -4.4310    7.0760 C.ar      1 I0G         0.0805
     20 O20        37.9480   -4.0350    6.0050 O.3       1 I0G        -0.3376
     21 C23        32.9600   -3.9630   13.1940 C.3       1 I0G        -0.0416
     22 H1         34.4604   -5.5004   13.4617 H         1 I0G         0.0442
     23 H2         32.0882   -6.5360   14.3013 H         1 I0G         0.0453
     24 H3         30.3771   -9.1636   11.2866 H         1 I0G         0.0458
     25 H4         37.2705   -4.8714   10.3150 H         1 I0G         0.0531
     26 H5         35.4902   -4.7922    5.9890 H         1 I0G         0.0525
     27 H6         34.1380   -5.4592    7.8821 H         1 I0G         0.0531
     28 H7         31.8682   -2.7542   11.7366 H         1 I0G         0.0267
     29 H8         33.3588   -1.9779   12.3707 H         1 I0G         0.0267
     30 H9         34.3272   -2.7191   10.3938 H         1 I0G         0.0272
     31 H10        33.0357   -3.9349   10.1095 H         1 I0G         0.0272
     32 H11        35.5748   -4.1893   11.7891 H         1 I0G         0.0371
     33 H12        30.4868   -8.1836   14.7567 H         1 I0G         0.2443
     34 H13        31.7874   -8.0507    9.5858 H         1 I0G         0.0496
     35 H14        35.2960   -6.5351   10.9015 H         1 I0G         0.0790
     36 H15        38.6267   -4.1977    8.4419 H         1 I0G         0.0525
     37 H16        38.2517   -3.1462    6.1477 H         1 I0G         0.2458
     38 H17        33.4402   -3.5233   14.0806 H         1 I0G         0.0288
     39 H18        31.9430   -4.2924   13.4532 H         1 I0G         0.0288
@<TRIPOS>BOND
     1    1    2 1  
     2   11    1 1  
     3    1   21 1  
     4    2    3 ar 
     5   14    2 ar 
     6    3    4 ar 
     7    5    4 ar 
     8    4   12 1  
     9   13    5 ar 
    10   17    6 ar 
    11    6   18 ar 
    12    8    7 ar 
    13    7   19 ar 
    14   17    8 ar 
    15   10    9 1  
    16    9   21 1  
    17   11   10 1  
    18   16   11 1  
    19   14   13 ar 
    20   15   14 1  
    21   16   15 1  
    22   16   17 1  
    23   18   19 ar 
    24   19   20 1  
    25    1   22 1  
    26    3   23 1  
    27    5   24 1  
    28    6   25 1  
    29    7   26 1  
    30    8   27 1  
    31    9   28 1  
    32    9   29 1  
    33   10   30 1  
    34   10   31 1  
    35   11   32 1  
    36   12   33 1  
    37   13   34 1  
    38   16   35 1  
    39   18   36 1  
    40   20   37 1  
    41   21   38 1  
    42   21   39 1  
@<TRIPOS>SUBSTRUCTURE
     1 I0G         1

