### 
### Created by X-TOOL on Mon Sep 10 21:12:55 2018
### 

@<TRIPOS>MOLECULE
2i0v_ligand
   39    42     1     0     0
SMALL
GAST_HUCK


@<TRIPOS>ATOM
      1 C1          8.6990   25.9350    7.8890 C.ar      1 6C3         0.0722
      2 C2          7.8980   26.6870    6.9720 C.ar      1 6C3        -0.0014
      3 C3          7.6680   26.1070    5.6790 C.ar      1 6C3        -0.0570
      4 C7          7.2920   28.0220    7.3900 C.3       1 6C3         0.0561
      5 C8          7.5420   28.4900    8.7370 C.3       1 6C3         0.1448
      6 C9          8.4250   27.6200    9.6670 C.2       1 6C3         0.2259
      7 C10         5.0730   28.7240    6.3350 C.ar      1 6C3        -0.0582
      8 C11         4.3540   29.4760    5.3790 C.ar      1 6C3        -0.0683
      9 C12         5.0360   30.2980    4.4500 C.ar      1 6C3        -0.0686
     10 C13         6.4450   30.3720    4.4710 C.ar      1 6C3        -0.0683
     11 C14         7.1740   29.6300    5.4250 C.ar      1 6C3        -0.0582
     12 C15         6.4950   28.8070    6.3750 C.ar      1 6C3        -0.0264
     13 C16         6.0920   30.5850    8.8630 C.2       1 6C3        -0.0295
     14 C19         4.7470   32.6220    9.7320 C.3       1 6C3        -0.0292
     15 C4          8.2090   24.8470    5.3410 C.ar      1 6C3         0.0177
     16 C5          9.0000   24.1200    6.2570 C.ar      1 6C3        -0.0683
     17 C6          9.2490   24.6620    7.5360 C.ar      1 6C3        -0.0463
     18 N1          8.9220   26.4320    9.1730 N.am      1 6C3        -0.2337
     19 CL1         7.8720   24.1940    3.8030 Cl        1 6C3        -0.0865
     20 O1          8.7180   27.9500   10.8330 O.2       1 6C3        -0.3813
     21 C17         6.9910   29.6970    9.4580 C.2       1 6C3         0.1575
     22 O2          7.1850   30.2100   10.7360 O.3       1 6C3        -0.1777
     23 N2          6.4370   31.3470   10.9590 N.2       1 6C3        -0.1728
     24 C18         5.7720   31.5570    9.8210 C.2       1 6C3         0.0089
     25 H1          7.0703   26.6441    4.9514 H         1 6C3         0.0523
     26 H2          6.3720   27.5235    7.7292 H         1 6C3         0.0644
     27 H3          8.3961   29.0770    8.3683 H         1 6C3         0.0804
     28 H4          4.5451   28.0866    7.0351 H         1 6C3         0.0559
     29 H5          3.2715   29.4230    5.3568 H         1 6C3         0.0600
     30 H6          4.4749   30.8716    3.7212 H         1 6C3         0.0560
     31 H7          6.9666   30.9976    3.7557 H         1 6C3         0.0600
     32 H8          8.2565   29.6850    5.4369 H         1 6C3         0.0559
     33 H9          5.7106   30.5321    7.8443 H         1 6C3         0.0265
     34 H10         4.7536   33.2155   10.6581 H         1 6C3         0.0374
     35 H11         3.7553   32.1660    9.5959 H         1 6C3         0.0374
     36 H12         4.9707   33.2756    8.8760 H         1 6C3         0.0374
     37 H13         9.4116   23.1559    5.9809 H         1 6C3         0.0529
     38 H14         9.8553   24.1154    8.2492 H         1 6C3         0.0482
     39 H15         9.4889   25.8816    9.7859 H         1 6C3         0.2241
@<TRIPOS>BOND
     1    2    1 ar 
     2    1   17 ar 
     3    1   18 1  
     4    2    3 ar 
     5    4    2 1  
     6    3   15 ar 
     7    4    5 1  
     8   12    4 1  
     9    5    6 1  
    10    5   21 1  
    11    6   18 am 
    12    6   20 2  
    13    7    8 ar 
    14    7   12 ar 
    15    8    9 ar 
    16    9   10 ar 
    17   10   11 ar 
    18   11   12 ar 
    19   21   13 2  
    20   13   24 1  
    21   24   14 1  
    22   15   16 ar 
    23   15   19 1  
    24   16   17 ar 
    25   21   22 1  
    26   22   23 1  
    27   23   24 2  
    28    3   25 1  
    29    4   26 1  
    30    5   27 1  
    31    7   28 1  
    32    8   29 1  
    33    9   30 1  
    34   10   31 1  
    35   11   32 1  
    36   13   33 1  
    37   14   34 1  
    38   14   35 1  
    39   14   36 1  
    40   16   37 1  
    41   17   38 1  
    42   18   39 1  
@<TRIPOS>SUBSTRUCTURE
     1 6C3         1

