### 
### Created by X-TOOL on Mon Sep 10 21:12:55 2018
### 

@<TRIPOS>MOLECULE
2i0y_ligand
   46    48     1     0     0
SMALL
GAST_HUCK


@<TRIPOS>ATOM
      1 C1          4.8210   29.4920    6.6940 C.ar      1 5CN         0.0568
      2 C2          4.0660   30.6670    7.0190 C.ar      1 5CN        -0.0631
      3 C3          4.0100   31.1710    8.3450 C.ar      1 5CN        -0.0851
      4 C7          6.3080   28.5200    3.3060 C.3       1 5CN        -0.0313
      5 C8          6.2000   29.3000    4.6260 C.3       1 5CN         0.0232
      6 C9          3.6200   28.7700    4.6020 C.3       1 5CN         0.0232
      7 C10         3.8570   28.0410    3.2600 C.3       1 5CN        -0.0313
      8 C11         5.0380   28.6280    2.4680 C.3       1 5CN        -0.0404
      9 C12         5.2240   27.8740    1.1540 C.3       1 5CN        -0.0623
     10 C13         4.6580   31.0470   10.8010 C.3       1 5CN         0.0691
     11 C14         7.0690   26.7940    8.1310 C.2       1 5CN         0.2681
     12 C15         7.4480   25.6140    7.3570 C.2       1 5CN         0.2111
     13 C16         8.2850   24.5520    7.6490 C.2       1 5CN        -0.0177
     14 C19         7.0100   23.9000    4.3000 C.1       1 5CN         0.1177
     15 C4          4.7120   30.5160    9.3960 C.ar      1 5CN        -0.0444
     16 C5          5.4680   29.3420    9.0980 C.ar      1 5CN        -0.0482
     17 C6          5.5300   28.8160    7.7630 C.ar      1 5CN         0.0795
     18 N1          4.8900   29.1020    5.3310 N.pl3     1 5CN        -0.3174
     19 O1          3.3930   30.6960   11.3640 O.3       1 5CN        -0.3848
     20 N2          6.1970   27.6130    7.4300 N.am      1 5CN        -0.2358
     21 O2          7.4780   26.9850    9.2800 O.2       1 5CN        -0.3705
     22 C17         8.2660   23.6880    6.5170 C.2       1 5CN        -0.0118
     23 C18         7.4180   24.2790    5.6030 C.2       1 5CN         0.2347
     24 O3          6.9180   25.4400    6.0940 O.3       1 5CN        -0.2140
     25 N3          6.6830   23.6010    3.2280 N.1       1 5CN        -0.3472
     26 H1          3.5252   31.1826    6.2336 H         1 5CN         0.0451
     27 H2          3.4287   32.0607    8.5586 H         1 5CN         0.0398
     28 H3          6.4924   27.4600    3.5348 H         1 5CN         0.0286
     29 H4          7.1511   28.9218    2.7249 H         1 5CN         0.0286
     30 H5          6.3201   30.3715    4.4085 H         1 5CN         0.0506
     31 H6          7.0087   28.9685    5.2939 H         1 5CN         0.0506
     32 H7          3.0064   28.1236    5.2467 H         1 5CN         0.0506
     33 H8          3.0788   29.7061    4.3998 H         1 5CN         0.0506
     34 H9          2.9466   28.1243    2.6483 H         1 5CN         0.0286
     35 H10         4.0640   26.9807    3.4669 H         1 5CN         0.0286
     36 H11         4.8355   29.6868    2.2493 H         1 5CN         0.0299
     37 H12         6.0711   28.3054    0.6005 H         1 5CN         0.0232
     38 H13         4.3091   27.9598    0.5493 H         1 5CN         0.0232
     39 H14         5.4259   26.8135    1.3652 H         1 5CN         0.0232
     40 H15         4.7695   32.1413   10.7898 H         1 5CN         0.0694
     41 H16         5.4674   30.6020   11.3983 H         1 5CN         0.0694
     42 H17         8.8501   24.4048    8.5682 H         1 5CN         0.0500
     43 H18         6.0049   28.8385    9.8938 H         1 5CN         0.0402
     44 H19         2.6980   31.0804   10.8427 H         1 5CN         0.2122
     45 H20         6.0001   27.2891    6.5046 H         1 5CN         0.2214
     46 H21         8.8097   22.7521    6.3973 H         1 5CN         0.0579
@<TRIPOS>BOND
     1    1    2 ar 
     2   17    1 ar 
     3    1   18 1  
     4    2    3 ar 
     5   15    3 ar 
     6    5    4 1  
     7    4    8 1  
     8   18    5 1  
     9    6    7 1  
    10   18    6 1  
    11    7    8 1  
    12    8    9 1  
    13   15   10 1  
    14   10   19 1  
    15   12   11 1  
    16   11   20 am 
    17   11   21 2  
    18   13   12 2  
    19   12   24 1  
    20   22   13 1  
    21   23   14 1  
    22   14   25 3  
    23   16   15 ar 
    24   17   16 ar 
    25   20   17 1  
    26   22   23 2  
    27   23   24 1  
    28    2   26 1  
    29    3   27 1  
    30    4   28 1  
    31    4   29 1  
    32    5   30 1  
    33    5   31 1  
    34    6   32 1  
    35    6   33 1  
    36    7   34 1  
    37    7   35 1  
    38    8   36 1  
    39    9   37 1  
    40    9   38 1  
    41    9   39 1  
    42   10   40 1  
    43   10   41 1  
    44   13   42 1  
    45   16   43 1  
    46   19   44 1  
    47   20   45 1  
    48   22   46 1  
@<TRIPOS>SUBSTRUCTURE
     1 5CN         1

