### 
### Created by X-TOOL on Mon Sep 10 21:12:55 2018
### 

@<TRIPOS>MOLECULE
2i1m_ligand
   46    48     1     0     0
SMALL
GAST_HUCK


@<TRIPOS>ATOM
      1 C1         45.8260   40.2990   -8.5340 C.ar      1 5CN         0.0568
      2 C2         45.1700   39.0860   -8.9520 C.ar      1 5CN        -0.0631
      3 C3         45.2710   38.6140  -10.2860 C.ar      1 5CN        -0.0851
      4 C7         46.9450   41.0230   -4.9490 C.3       1 5CN        -0.0313
      5 C8         46.9540   40.3270   -6.3230 C.3       1 5CN         0.0232
      6 C9         44.4490   41.0530   -6.5970 C.3       1 5CN         0.0232
      7 C10        44.5530   41.6870   -5.1960 C.3       1 5CN        -0.0313
      8 C11        45.5650   40.9710   -4.2940 C.3       1 5CN        -0.0404
      9 C12        45.6150   41.6490   -2.9250 C.3       1 5CN        -0.0623
     10 C13        46.1680   38.8240  -12.6600 C.3       1 5CN         0.0691
     11 C14        48.0360   43.1760   -9.6270 C.2       1 5CN         0.2681
     12 C15        48.3300   44.3040   -8.7350 C.2       1 5CN         0.2111
     13 C16        49.1940   45.3780   -8.8740 C.2       1 5CN        -0.0177
     14 C19        47.6100   45.8870   -5.6420 C.1       1 5CN         0.1177
     15 C4         46.0300   39.3390  -11.2500 C.ar      1 5CN        -0.0444
     16 C5         46.6830   40.5540  -10.8530 C.ar      1 5CN        -0.0482
     17 C6         46.5860   41.0460   -9.5050 C.ar      1 5CN         0.0795
     18 N1         45.7650   40.6540   -7.1720 N.pl3     1 5CN        -0.3174
     19 O1         45.1340   39.3890  -13.4610 O.3       1 5CN        -0.3848
     20 N2         47.1640   42.2710   -9.0500 N.am      1 5CN        -0.2358
     21 O2         48.5300   43.0820  -10.7590 O.2       1 5CN        -0.3705
     22 C17        49.0710   46.1710   -7.7010 C.2       1 5CN        -0.0118
     23 C18        48.1370   45.5480   -6.9180 C.2       1 5CN         0.2347
     24 O3         47.6730   44.4120   -7.5270 O.3       1 5CN        -0.2140
     25 N3         47.1900   46.1750   -4.5950 N.1       1 5CN        -0.3472
     26 H1         44.5873   38.5225   -8.2323 H         1 5CN         0.0451
     27 H2         44.7685   37.6975  -10.5734 H         1 5CN         0.0398
     28 H3         47.2366   42.0754   -5.0813 H         1 5CN         0.0286
     29 H4         47.6701   40.5214   -4.2913 H         1 5CN         0.0286
     30 H5         46.9762   39.2392   -6.1610 H         1 5CN         0.0506
     31 H6         47.8613   40.6359   -6.8627 H         1 5CN         0.0506
     32 H7         43.9805   41.7821   -7.2745 H         1 5CN         0.0506
     33 H8         43.8145   40.1572   -6.5268 H         1 5CN         0.0506
     34 H9         43.5638   41.6450   -4.7168 H         1 5CN         0.0286
     35 H10        44.8624   42.7367   -5.3072 H         1 5CN         0.0286
     36 H11        45.2609   39.9215   -4.1669 H         1 5CN         0.0299
     37 H12        46.3430   41.1292   -2.2848 H         1 5CN         0.0232
     38 H13        44.6199   41.6063   -2.4581 H         1 5CN         0.0232
     39 H14        45.9181   42.6994   -3.0468 H         1 5CN         0.0232
     40 H15        46.0799   37.7276  -12.6629 H         1 5CN         0.0694
     41 H16        47.1488   39.1141  -13.0648 H         1 5CN         0.0694
     42 H17        49.8457   45.5774   -9.7234 H         1 5CN         0.0500
     43 H18        47.2598   41.1110  -11.5825 H         1 5CN         0.0402
     44 H19        45.2144   39.0689  -14.3518 H         1 5CN         0.2122
     45 H20        46.8800   42.5259   -8.1257 H         1 5CN         0.2214
     46 H21        49.6107   47.0886   -7.4716 H         1 5CN         0.0579
@<TRIPOS>BOND
     1    1    2 ar 
     2   17    1 ar 
     3    1   18 1  
     4    2    3 ar 
     5   15    3 ar 
     6    5    4 1  
     7    4    8 1  
     8   18    5 1  
     9    6    7 1  
    10   18    6 1  
    11    7    8 1  
    12    8    9 1  
    13   15   10 1  
    14   10   19 1  
    15   12   11 1  
    16   11   20 am 
    17   11   21 2  
    18   13   12 2  
    19   12   24 1  
    20   22   13 1  
    21   23   14 1  
    22   14   25 3  
    23   16   15 ar 
    24   17   16 ar 
    25   20   17 1  
    26   22   23 2  
    27   23   24 1  
    28    2   26 1  
    29    3   27 1  
    30    4   28 1  
    31    4   29 1  
    32    5   30 1  
    33    5   31 1  
    34    6   32 1  
    35    6   33 1  
    36    7   34 1  
    37    7   35 1  
    38    8   36 1  
    39    9   37 1  
    40    9   38 1  
    41    9   39 1  
    42   10   40 1  
    43   10   41 1  
    44   13   42 1  
    45   16   43 1  
    46   19   44 1  
    47   20   45 1  
    48   22   46 1  
@<TRIPOS>SUBSTRUCTURE
     1 5CN         1

