### 
### Created by X-TOOL on Mon Sep 10 21:12:55 2018
### 

@<TRIPOS>MOLECULE
2i1r_ligand
   43    46     1     0     0
SMALL
GAST_HUCK


@<TRIPOS>ATOM
      1 C1         11.0790   30.9090   71.0880 C.2       1 VXR         0.1046
      2 C2         11.1420   30.7290   72.4440 C.2       1 VXR        -0.0571
      3 C3          9.8400   31.0430   72.9390 C.2       1 VXR        -0.0635
      4 C4          9.0670   31.3960   71.8640 C.2       1 VXR         0.1059
      5 O5          9.8340   31.3110   70.7360 O.3       1 VXR        -0.2565
      6 C6         12.2520   30.6740   70.1590 C.3       1 VXR         0.0130
      7 C7         12.5220   31.8070   69.1720 C.3       1 VXR        -0.0511
      8 C8          7.6590   31.7860   71.8670 C.2       1 VXR        -0.0108
      9 C9          7.1470   32.8490   72.5030 C.2       1 VXR         0.1124
     10 S10         7.8420   34.0640   73.4660 S.3       1 VXR         0.0283
     11 C11         6.4420   34.9050   73.8070 C.2       1 VXR         0.1975
     12 N12         5.5230   34.2860   73.2140 N.am      1 VXR        -0.1912
     13 C13         5.7310   33.1860   72.4890 C.2       1 VXR         0.2452
     14 N14         6.2600   35.9920   74.5230 N.2       1 VXR        -0.3314
     15 C15         7.2710   36.7960   75.1970 C.3       1 VXR         0.1035
     16 C16         8.0200   37.6100   74.1440 C.ar      1 VXR        -0.0208
     17 C17         6.6440   37.7210   76.2150 C.2       1 VXR         0.1793
     18 N18         5.5880   38.5590   75.9720 N.2       1 VXR        -0.2200
     19 N19         5.3130   39.2250   77.1170 N.2       1 VXR        -0.1526
     20 N20         6.1700   38.8070   78.0230 N.2       1 VXR        -0.0726
     21 N21         7.0170   37.8580   77.4710 N.pl3     1 VXR        -0.1497
     22 C22         7.3180   38.5130   73.2820 C.ar      1 VXR        -0.0586
     23 C23         8.0210   39.2660   72.3110 C.ar      1 VXR        -0.0343
     24 C24         9.4290   39.1230   72.1890 C.ar      1 VXR         0.1253
     25 C25        10.1260   38.2300   73.0370 C.ar      1 VXR        -0.0343
     26 C26         9.4220   37.4740   74.0120 C.ar      1 VXR        -0.0586
     27 F          10.0880   39.8350   71.2820 F         1 VXR        -0.1889
     28 O28         4.8650   32.5680   71.9020 O.2       1 VXR        -0.3773
     29 H1         12.0067   30.4118   73.0250 H         1 VXR         0.0279
     30 H2          9.5202   31.0083   73.9794 H         1 VXR         0.0377
     31 H3         12.0546   29.7579   69.5830 H         1 VXR         0.0477
     32 H4         13.1532   30.5335   70.7739 H         1 VXR         0.0477
     33 H5         13.3866   31.5474   68.5435 H         1 VXR         0.0256
     34 H6         12.7363   32.7328   69.7261 H         1 VXR         0.0256
     35 H7         11.6377   31.9571   68.5352 H         1 VXR         0.0256
     36 H8          6.9671   31.1603   71.3051 H         1 VXR         0.0592
     37 H9          4.5892   34.6357   73.2895 H         1 VXR         0.2434
     38 H10         7.9774   36.1285   75.7123 H         1 VXR         0.0746
     39 H11         7.7832   37.3606   77.9469 H         1 VXR         0.2710
     40 H12         6.2432   38.6204   73.3735 H         1 VXR         0.0553
     41 H13         7.4861   39.9501   71.6621 H         1 VXR         0.0588
     42 H14        11.2005   38.1225   72.9423 H         1 VXR         0.0588
     43 H15         9.9612   36.7901   74.6575 H         1 VXR         0.0553
@<TRIPOS>BOND
     1    1    2 2  
     2    1    5 1  
     3    1    6 1  
     4    2    3 1  
     5    3    4 2  
     6    4    5 1  
     7    4    8 1  
     8    6    7 1  
     9    8    9 2  
    10    9   10 1  
    11    9   13 1  
    12   10   11 1  
    13   11   12 am 
    14   11   14 2  
    15   12   13 am 
    16   13   28 2  
    17   14   15 1  
    18   15   16 1  
    19   15   17 1  
    20   16   22 ar 
    21   16   26 ar 
    22   17   18 2  
    23   17   21 1  
    24   18   19 1  
    25   19   20 2  
    26   20   21 1  
    27   22   23 ar 
    28   23   24 ar 
    29   24   25 ar 
    30   24   27 1  
    31   25   26 ar 
    32    2   29 1  
    33    3   30 1  
    34    6   31 1  
    35    6   32 1  
    36    7   33 1  
    37    7   34 1  
    38    7   35 1  
    39    8   36 1  
    40   12   37 1  
    41   15   38 1  
    42   21   39 1  
    43   22   40 1  
    44   23   41 1  
    45   25   42 1  
    46   26   43 1  
@<TRIPOS>SUBSTRUCTURE
     1 VXR         1

