### 
### Created by X-TOOL on Fri Sep 26 17:34:37 2014
### 

@<TRIPOS>MOLECULE
2i2b_ligand
   28    30     1     0     0
SMALL
GAST_HUCK


@<TRIPOS>ATOM
      1 N1         19.7790    4.2800    7.8010 N.ar      1 CC5        -0.2698
      2 C2         20.0980    5.3930    8.4510 C.ar      1 CC5         0.0533
      3 N3         19.2200    6.3550    8.6680 N.ar      1 CC5        -0.2714
      4 C4         17.9650    6.2340    8.2110 C.ar      1 CC5         0.1613
      5 N9         16.9050    7.0300    8.2790 N.pl3     1 CC5        -0.1919
      6 C8         15.8900    6.4130    7.6560 C.2       1 CC5         0.1123
      7 N7         16.3050    5.2300    7.1930 N.2       1 CC5        -0.2958
      8 C5         17.5860    5.0880    7.5270 C.ar      1 CC5         0.1045
      9 C6         18.5360    4.0890    7.3290 C.ar      1 CC5         0.1298
     10 N6         18.2410    2.9660    6.6780 N.pl3     1 CC5        -0.3152
     11 C1'        16.8840    8.3770    8.9400 C.3       1 CC5         0.2006
     12 C2'        16.7340    9.4890    7.8850 C.3       1 CC5         0.1381
     13 C3'        15.5200   10.3030    8.3650 C.3       1 CC5         0.1096
     14 C4'        15.4000    9.9120    9.8450 C.3       1 CC5         0.0797
     15 O4'        15.7720    8.5210    9.8630 O.3       1 CC5        -0.3424
     16 O2'        17.9230   10.2990    7.8820 O.3       1 CC5        -0.3836
     17 O3'        15.7650   11.7210    8.2420 O.3       1 CC5        -0.3868
     18 H1         21.1116    5.5158    8.8151 H         1 CC5         0.0996
     19 H2         14.8836    6.8139    7.5447 H         1 CC5         0.1349
     20 H3         17.2889    2.8162    6.3147 H         1 CC5         0.1820
     21 H4         18.9648    2.2468    6.5375 H         1 CC5         0.1820
     22 H5         17.8285    8.5123    9.4874 H         1 CC5         0.0996
     23 H6         16.5588    9.0710    6.8827 H         1 CC5         0.0676
     24 H7         14.6132   10.0320    7.8044 H         1 CC5         0.0644
     25 H8         14.3689   10.0467   10.2038 H         1 CC5         0.0588
     26 H9         16.0849   10.5090   10.4650 H         1 CC5         0.0588
     27 H10        17.7995   11.0387    7.2988 H         1 CC5         0.2101
     28 H11        16.5738   11.9414    8.6890 H         1 CC5         0.2100
@<TRIPOS>BOND
     1    1    2 ar 
     2    1    9 ar 
     3    2    3 ar 
     4    3    4 ar 
     5    4    5 1  
     6    4    8 ar 
     7    5    6 1  
     8    5   11 1  
     9    6    7 2  
    10    7    8 1  
    11    8    9 ar 
    12    9   10 1  
    13   11   12 1  
    14   11   15 1  
    15   12   13 1  
    16   12   16 1  
    17   13   14 1  
    18   13   17 1  
    19   14   15 1  
    20    2   18 1  
    21    6   19 1  
    22   10   20 1  
    23   10   21 1  
    24   11   22 1  
    25   12   23 1  
    26   13   24 1  
    27   14   25 1  
    28   14   26 1  
    29   16   27 1  
    30   17   28 1  
@<TRIPOS>SUBSTRUCTURE
     1 CC5         1

