### 
### Created by X-TOOL on Mon Sep 10 21:12:55 2018
### 

@<TRIPOS>MOLECULE
2i2c_ligand
   62    67     1     0     0
SMALL
GAST_HUCK


@<TRIPOS>ATOM
      1 N62        18.5590    3.0940    6.7060 N.pl3     1 DTA        -0.3152
      2 C62        18.7240    4.2500    7.3660 C.ar      1 DTA         0.1298
      3 N12        19.9290    4.5530    7.8720 N.ar      1 DTA        -0.2698
      4 C22        20.1590    5.6710    8.5410 C.ar      1 DTA         0.0533
      5 N32        19.1980    6.5590    8.7380 N.ar      1 DTA        -0.2714
      6 C42        17.9580    6.3190    8.2600 C.ar      1 DTA         0.1613
      7 C52        17.6790    5.1590    7.5570 C.ar      1 DTA         0.1045
      8 N72        16.3880    5.2020    7.2170 N.2       1 DTA        -0.2958
      9 C82        15.8740    6.3500    7.6830 C.2       1 DTA         0.1123
     10 N92        16.8390    7.0310    8.3190 N.pl3     1 DTA        -0.1919
     11 C1'        16.7510    8.3490    9.0050 C.3       1 DTA         0.2009
     12 O4'        15.5520    8.4440    9.8090 O.3       1 DTA        -0.3382
     13 C2'        16.6510    9.4640    7.9550 C.3       1 DTA         0.1385
     14 O2'        17.8330   10.2710    8.0070 O.3       1 DTA        -0.3836
     15 C3'        15.4190   10.2640    8.4070 C.3       1 DTA         0.1132
     16 O3'        15.6470   11.6680    8.3270 O.3       1 DTA        -0.3864
     17 C4'        15.2430    9.8360    9.8630 C.3       1 DTA         0.1003
     18 C5'        13.7780   10.0340   10.2670 C.3       1 DTA         0.0329
     19 S5'        13.3070    9.3070   11.8850 S.3       1 DTA        -0.0904
     20 S5R        14.9200    9.5490   13.1210 S.3       1 DTA        -0.0904
     21 C5R        15.4540    7.8380   13.5400 C.3       1 DTA         0.0329
     22 C4R        16.9750    7.6710   13.8250 C.3       1 DTA         0.1003
     23 O4R        17.7440    8.5720   12.9740 O.3       1 DTA        -0.3382
     24 C3R        17.3480    8.0260   15.2750 C.3       1 DTA         0.1132
     25 O3R        18.2810    7.0580   15.7880 O.3       1 DTA        -0.3864
     26 C2R        18.0060    9.4000   15.1540 C.3       1 DTA         0.1385
     27 O2R        18.9740    9.6180   16.1940 O.3       1 DTA        -0.3836
     28 C1R        18.7060    9.2610   13.8150 C.3       1 DTA         0.2009
     29 N91        19.0230   10.5760   13.1930 N.pl3     1 DTA        -0.1919
     30 C81        18.1550   11.5260   12.8280 C.2       1 DTA         0.1123
     31 N71        18.8190   12.5570   12.3050 N.2       1 DTA        -0.2958
     32 C51        20.1160   12.2540   12.3240 C.ar      1 DTA         0.1045
     33 C41        20.2450   10.9910   12.8880 C.ar      1 DTA         0.1613
     34 N31        21.4650   10.4380   13.0380 N.ar      1 DTA        -0.2714
     35 C21        22.5480   11.0940   12.6400 C.ar      1 DTA         0.0533
     36 N11        22.4620   12.3040   12.0960 N.ar      1 DTA        -0.2698
     37 C61        21.2760   12.9140   11.9140 C.ar      1 DTA         0.1298
     38 N61        21.2180   14.1270   11.3620 N.pl3     1 DTA        -0.3152
     39 H1         17.6379    2.8519    6.3137 H         1 DTA         0.1820
     40 H2         19.3534    2.4484    6.5915 H         1 DTA         0.1820
     41 H3         21.1509    5.8627    8.9341 H         1 DTA         0.0996
     42 H4         14.8417    6.6760    7.5644 H         1 DTA         0.1349
     43 H5         17.6406    8.4935    9.6356 H         1 DTA         0.0996
     44 H6         16.5144    9.0573    6.9421 H         1 DTA         0.0676
     45 H7         17.7724   10.9616    7.3575 H         1 DTA         0.2101
     46 H8         14.5366   10.0002    7.8055 H         1 DTA         0.0647
     47 H9         15.8459   11.9047    7.4287 H         1 DTA         0.2100
     48 H10        15.9125   10.3826   10.5433 H         1 DTA         0.0632
     49 H11        13.1465    9.5758    9.4916 H         1 DTA         0.0411
     50 H12        13.5801   11.1152   10.3095 H         1 DTA         0.0411
     51 H13        15.1918    7.1831   12.6960 H         1 DTA         0.0411
     52 H14        14.9025    7.5191   14.4367 H         1 DTA         0.0411
     53 H15        17.2589    6.6283   13.6199 H         1 DTA         0.0632
     54 H16        16.4574    8.0676   15.9193 H         1 DTA         0.0647
     55 H17        18.5078    7.2818   16.6830 H         1 DTA         0.2100
     56 H18        17.2635   10.2116   15.1533 H         1 DTA         0.0676
     57 H19        18.5456    9.5641   17.0402 H         1 DTA         0.2101
     58 H20        19.6299    8.6743   13.9256 H         1 DTA         0.0996
     59 H21        17.0735   11.4665   12.9406 H         1 DTA         0.1349
     60 H22        23.5221   10.6340   12.7609 H         1 DTA         0.0996
     61 H23        22.0837   14.5997   11.0652 H         1 DTA         0.1820
     62 H24        20.3075   14.5909   11.2326 H         1 DTA         0.1820
@<TRIPOS>BOND
     1    1    2 1  
     2    2    3 ar 
     3    2    7 ar 
     4    3    4 ar 
     5    4    5 ar 
     6    5    6 ar 
     7    6    7 ar 
     8    6   10 1  
     9    7    8 1  
    10    8    9 2  
    11    9   10 1  
    12   10   11 1  
    13   11   12 1  
    14   11   13 1  
    15   12   17 1  
    16   13   14 1  
    17   13   15 1  
    18   15   16 1  
    19   15   17 1  
    20   17   18 1  
    21   18   19 1  
    22   19   20 1  
    23   20   21 1  
    24   21   22 1  
    25   22   23 1  
    26   22   24 1  
    27   23   28 1  
    28   24   25 1  
    29   24   26 1  
    30   26   27 1  
    31   26   28 1  
    32   28   29 1  
    33   29   30 1  
    34   29   33 1  
    35   30   31 2  
    36   31   32 1  
    37   32   33 ar 
    38   32   37 ar 
    39   33   34 ar 
    40   34   35 ar 
    41   35   36 ar 
    42   36   37 ar 
    43   37   38 1  
    44    1   39 1  
    45    1   40 1  
    46    4   41 1  
    47    9   42 1  
    48   11   43 1  
    49   13   44 1  
    50   14   45 1  
    51   15   46 1  
    52   16   47 1  
    53   17   48 1  
    54   18   49 1  
    55   18   50 1  
    56   21   51 1  
    57   21   52 1  
    58   22   53 1  
    59   24   54 1  
    60   25   55 1  
    61   26   56 1  
    62   27   57 1  
    63   28   58 1  
    64   30   59 1  
    65   35   60 1  
    66   38   61 1  
    67   38   62 1  
@<TRIPOS>SUBSTRUCTURE
     1 DTA         1

