### 
### Created by X-TOOL on Mon Sep 10 21:12:53 2018
### 

@<TRIPOS>MOLECULE
2i3h_ligand
   67    69     1     0     0
SMALL
GAST_HUCK


@<TRIPOS>ATOM
      1 N          86.3520   60.5130   15.1240 N.4       1 ALA         0.2377
      2 CA         84.9340   60.6570   15.5620 C.3       1 ALA         0.0621
      3 C          84.0950   61.2160   14.4240 C.2       1 ALA         0.2264
      4 O          84.6320   61.6650   13.4160 O.2       1 ALA        -0.3907
      5 CB         84.8430   61.5650   16.7920 C.3       1 ALA        -0.0040
      6 N          82.7760   61.1720   14.5860 N.am      1 VAL        -0.2608
      7 CA         81.8450   61.6900   13.5840 C.3       1 VAL         0.1336
      8 C          80.6830   62.4300   14.2470 C.2       1 VAL         0.2067
      9 O          80.3250   62.1210   15.3800 O.2       1 VAL        -0.3942
     10 CB         81.2600   60.5600   12.6980 C.3       1 VAL        -0.0062
     11 CG1        82.3490   59.9240   11.8400 C.3       1 VAL        -0.0584
     12 CG2        80.5400   59.5050   13.5440 C.3       1 VAL        -0.0584
     13 N          80.0790   63.3950   13.5540 N.am      1 PRO        -0.2498
     14 CA         78.9390   64.1300   14.1230 C.3       1 PRO         0.1337
     15 C          77.6760   63.2760   14.3100 C.2       1 PRO         0.2036
     16 O          77.5380   62.2410   13.6600 O.2       1 PRO        -0.3944
     17 CB         78.6820   65.2460   13.0940 C.3       1 PRO        -0.0104
     18 CG         79.8810   65.2710   12.2150 C.3       1 PRO        -0.0281
     19 CD         80.4220   63.8770   12.2040 C.3       1 PRO         0.0369
     20 N          76.7750   63.7120   15.1910 N.am      1 TRP        -0.2684
     21 CA         75.4590   63.0670   15.3420 C.3       1 TRP         0.0986
     22 C          74.3170   64.0580   15.5870 C.2       1 TRP         0.0613
     23 O          73.1950   63.9230   15.0910 O.co2     1 TRP        -0.5665
     24 CB         75.4960   62.0450   16.4760 C.3       1 TRP        -0.0013
     25 CG         75.8580   62.6310   17.7910 C.2       1 TRP        -0.0424
     26 CD1        77.1080   62.9410   18.2330 C.2       1 TRP         0.0166
     27 CD2        74.9610   62.9820   18.8460 C.ar      1 TRP        -0.0214
     28 NE1        77.0480   63.4640   19.5030 N.pl3     1 TRP        -0.2891
     29 CE2        75.7390   63.5030   19.9020 C.ar      1 TRP         0.0603
     30 CE3        73.5730   62.9070   19.0100 C.ar      1 TRP        -0.0747
     31 CZ2        75.1800   63.9450   21.0960 C.ar      1 TRP        -0.0443
     32 CZ3        73.0180   63.3470   20.2000 C.ar      1 TRP        -0.0792
     33 CH2        73.8230   63.8550   21.2270 C.ar      1 TRP        -0.0768
     34 OXT        74.4410   65.0450   16.3060 O.co2     1 TRP        -0.5665
     35 H1         86.9020   60.1422   15.8829 H         1 ALA         0.2015
     36 H2         86.7141   61.4147   14.8559 H         1 ALA         0.2015
     37 H3         86.3985   59.8848   14.3371 H         1 ALA         0.2015
     38 H4         84.5457   59.6636   15.8308 H         1 ALA         0.1095
     39 H5         83.7915   61.6598   17.1008 H         1 ALA         0.0310
     40 H6         85.2434   62.5591   16.5443 H         1 ALA         0.0310
     41 H7         85.4286   61.1282   17.6143 H         1 ALA         0.0310
     42 H8         82.4069   60.7699   15.4239 H         1 VAL         0.1885
     43 H9         82.3927   62.3937   12.9399 H         1 VAL         0.0803
     44 H10        80.5187   61.0117   12.0224 H         1 VAL         0.0343
     45 H11        81.9100   59.1270   11.2218 H         1 VAL         0.0234
     46 H12        83.1261   59.4970   12.4910 H         1 VAL         0.0234
     47 H13        82.7961   60.6892   11.1884 H         1 VAL         0.0234
     48 H14        79.7618   59.9906   14.1512 H         1 VAL         0.0234
     49 H15        81.2649   59.0085   14.2058 H         1 VAL         0.0234
     50 H16        80.0762   58.7585   12.8825 H         1 VAL         0.0234
     51 H17        79.2190   64.5580   15.0968 H         1 PRO         0.0802
     52 H18        78.5591   66.2141   13.6016 H         1 PRO         0.0313
     53 H19        77.7800   65.0236   12.5050 H         1 PRO         0.0313
     54 H20        80.6322   65.9679   12.6150 H         1 PRO         0.0287
     55 H21        79.6006   65.5788   11.1969 H         1 PRO         0.0287
     56 H22        79.9358   63.2674   11.4281 H         1 PRO         0.0524
     57 H23        81.5104   63.8736   12.0446 H         1 PRO         0.0524
     58 H24        76.9989   64.4992   15.7656 H         1 TRP         0.1876
     59 H25        75.2428   62.5342   14.4042 H         1 TRP         0.0741
     60 H26        76.2368   61.2720   16.2238 H         1 TRP         0.0390
     61 H27        74.5007   61.5848   16.5623 H         1 TRP         0.0390
     62 H28        78.0240   62.7955   17.6623 H         1 TRP         0.0795
     63 H29        77.8550   63.7753   20.0622 H         1 TRP         0.2216
     64 H30        72.9442   62.5119   18.2203 H         1 TRP         0.0540
     65 H31        75.7971   64.3455   21.8922 H         1 TRP         0.0541
     66 H32        71.9440   63.2974   20.3386 H         1 TRP         0.0510
     67 H33        73.3580   64.1851   22.1489 H         1 TRP         0.0530
@<TRIPOS>BOND
     1    1    2 1  
     2    2    3 1  
     3    2    5 1  
     4    3    4 2  
     5    3    6 am 
     6    6    7 1  
     7    7    8 1  
     8    7   10 1  
     9    8    9 2  
    10    8   13 am 
    11   10   11 1  
    12   10   12 1  
    13   13   14 1  
    14   13   19 1  
    15   14   15 1  
    16   14   17 1  
    17   15   16 2  
    18   15   20 am 
    19   17   18 1  
    20   18   19 1  
    21   20   21 1  
    22   21   22 1  
    23   21   24 1  
    24   22   23 ar 
    25   22   34 ar 
    26   24   25 1  
    27   25   26 2  
    28   25   27 1  
    29   26   28 1  
    30   27   29 ar 
    31   27   30 ar 
    32   28   29 1  
    33   29   31 ar 
    34   30   32 ar 
    35   31   33 ar 
    36   32   33 ar 
    37    1   35 1  
    38    1   36 1  
    39    1   37 1  
    40    2   38 1  
    41    5   39 1  
    42    5   40 1  
    43    5   41 1  
    44    6   42 1  
    45    7   43 1  
    46   10   44 1  
    47   11   45 1  
    48   11   46 1  
    49   11   47 1  
    50   12   48 1  
    51   12   49 1  
    52   12   50 1  
    53   14   51 1  
    54   17   52 1  
    55   17   53 1  
    56   18   54 1  
    57   18   55 1  
    58   19   56 1  
    59   19   57 1  
    60   20   58 1  
    61   21   59 1  
    62   24   60 1  
    63   24   61 1  
    64   26   62 1  
    65   28   63 1  
    66   30   64 1  
    67   31   65 1  
    68   32   66 1  
    69   33   67 1  
@<TRIPOS>SUBSTRUCTURE
     1 ALA         1

