### 
### Created by X-TOOL on Mon Sep 10 21:12:54 2018
### 

@<TRIPOS>MOLECULE
2i3i_ligand
   70    73     1     0     0
SMALL
GAST_HUCK


@<TRIPOS>ATOM
      1 O6         84.6490   61.3310   12.9700 O.2       1 618        -0.3907
      2 C5         84.0570   61.0430   13.9930 C.2       1 618         0.2265
      3 C3         84.8460   60.4470   15.1870 C.3       1 618         0.0637
      4 N2         86.2510   60.0790   14.8380 N.4       1 618         0.2438
      5 C1         86.3710   58.9560   13.8820 C.3       1 618        -0.0428
      6 C4         84.8190   61.3510   16.4370 C.3       1 618        -0.0039
      7 N7         82.7510   61.2480   14.1980 N.am      1 618        -0.2610
      8 C8         81.5940   60.9910   13.2980 C.3       1 618         0.1313
      9 C9         80.5700   62.0900   13.7100 C.2       1 618         0.2074
     10 O15        80.3690   62.1550   14.9240 O.2       1 618        -0.3941
     11 C14        81.9670   60.8170   11.8140 C.3       1 618        -0.0123
     12 C13        80.8220   60.6120   10.8070 C.3       1 618        -0.0460
     13 C12        79.8020   61.7620   10.6210 C.3       1 618        -0.0198
     14 C11        80.0160   63.0610   11.4290 C.3       1 618         0.0942
     15 N10        79.8590   62.9270   12.8930 N.am      1 618        -0.2352
     16 S16        78.7100   64.2060   10.9450 S.3       1 618        -0.1219
     17 C17        78.5670   65.0050   12.5530 C.3       1 618         0.0540
     18 C19        77.2060   65.7210   12.6910 C.3       1 618        -0.0463
     19 C20        79.6490   66.1010   12.7180 C.3       1 618        -0.0463
     20 C18        78.7830   63.7860   13.4890 C.3       1 618         0.1555
     21 C21        77.5400   62.8530   13.7060 C.2       1 618         0.2365
     22 O22        77.3280   61.9020   12.9520 O.2       1 618        -0.3803
     23 N23        76.7480   63.1890   14.7340 N.am      1 618        -0.2018
     24 C24        75.3800   62.7940   15.0410 C.2       1 618         0.1939
     25 C25        74.4960   62.3450   14.0870 C.2       1 618        -0.0283
     26 C26        73.2980   62.0660   14.7370 C.2       1 618        -0.0191
     27 C29        72.0120   61.5450   14.1270 C.3       1 618        -0.0332
     28 N27        73.4410   62.3330   16.0780 N.2       1 618        -0.2434
     29 N28        74.7040   62.7850   16.2920 N.pl3     1 618        -0.1533
     30 C30        75.1510   63.1330   17.4540 C.ar      1 618         0.1040
     31 C31        74.3230   63.8860   18.3210 C.ar      1 618        -0.0285
     32 C32        74.7700   64.2680   19.5840 C.ar      1 618        -0.0674
     33 C33        76.0480   63.9020   19.9960 C.ar      1 618        -0.0700
     34 C34        76.8760   63.1590   19.1520 C.ar      1 618        -0.0674
     35 C35        76.4480   62.7700   17.8900 C.ar      1 618        -0.0285
     36 H1         84.3326   59.5131   15.4597 H         1 618         0.1096
     37 H2         86.7295   59.8222   15.6872 H         1 618         0.2032
     38 H3         86.6967   60.8869   14.4323 H         1 618         0.2032
     39 H4         87.4342   58.7552   13.6838 H         1 618         0.0777
     40 H5         85.8661   59.2199   12.9410 H         1 618         0.0777
     41 H6         85.9020   58.0580   14.3104 H         1 618         0.0777
     42 H7         83.7780   61.6115   16.6787 H         1 618         0.0310
     43 H8         85.3900   62.2698   16.2375 H         1 618         0.0310
     44 H9         85.2697   60.8163   17.2861 H         1 618         0.0310
     45 H10        82.5168   61.6320   15.0911 H         1 618         0.1884
     46 H11        81.1532   60.0255   13.5871 H         1 618         0.0800
     47 H12        82.6281   59.9408   11.7422 H         1 618         0.0312
     48 H13        82.5176   61.7181   11.5060 H         1 618         0.0312
     49 H14        80.2583   59.7240   11.1291 H         1 618         0.0268
     50 H15        81.2802   60.4195    9.8257 H         1 618         0.0268
     51 H16        78.8117   61.3676   10.8927 H         1 618         0.0296
     52 H17        79.8082   62.0352    9.5555 H         1 618         0.0296
     53 H18        81.0116   63.4684   11.1993 H         1 618         0.0676
     54 H19        77.1424   66.2003   13.6790 H         1 618         0.0245
     55 H20        76.3933   64.9871   12.5865 H         1 618         0.0245
     56 H21        77.1127   66.4857   11.9059 H         1 618         0.0245
     57 H22        79.5433   66.5749   13.7050 H         1 618         0.0245
     58 H23        79.5249   66.8601   11.9317 H         1 618         0.0245
     59 H24        80.6472   65.6464   12.6346 H         1 618         0.0245
     60 H25        79.1058   64.1645   14.4701 H         1 618         0.0823
     61 H26        77.1635   63.8114   15.3973 H         1 618         0.2336
     62 H27        74.6965   62.2297   13.0228 H         1 618         0.0133
     63 H28        71.2523   61.4316   14.9144 H         1 618         0.0376
     64 H29        72.1991   60.5693   13.6548 H         1 618         0.0376
     65 H30        71.6512   62.2560   13.3691 H         1 618         0.0376
     66 H31        73.3278   64.1691   17.9978 H         1 618         0.0572
     67 H32        74.1282   64.8451   20.2399 H         1 618         0.0596
     68 H33        76.4026   64.1953   20.9775 H         1 618         0.0547
     69 H34        77.8687   62.8816   19.4876 H         1 618         0.0596
     70 H35        77.1008   62.1937   17.2445 H         1 618         0.0572
@<TRIPOS>BOND
     1    1    2 2  
     2    2    3 1  
     3    2    7 am 
     4    3    4 1  
     5    3    6 1  
     6    4    5 1  
     7    7    8 1  
     8    8    9 1  
     9    8   11 1  
    10    9   10 2  
    11    9   15 am 
    12   11   12 1  
    13   12   13 1  
    14   13   14 1  
    15   14   15 1  
    16   14   16 1  
    17   15   20 1  
    18   16   17 1  
    19   17   18 1  
    20   17   19 1  
    21   17   20 1  
    22   20   21 1  
    23   21   22 2  
    24   21   23 am 
    25   23   24 1  
    26   24   25 2  
    27   24   29 1  
    28   25   26 1  
    29   26   27 1  
    30   26   28 2  
    31   28   29 1  
    32   29   30 1  
    33   30   31 ar 
    34   30   35 ar 
    35   31   32 ar 
    36   32   33 ar 
    37   33   34 ar 
    38   34   35 ar 
    39    3   36 1  
    40    4   37 1  
    41    4   38 1  
    42    5   39 1  
    43    5   40 1  
    44    5   41 1  
    45    6   42 1  
    46    6   43 1  
    47    6   44 1  
    48    7   45 1  
    49    8   46 1  
    50   11   47 1  
    51   11   48 1  
    52   12   49 1  
    53   12   50 1  
    54   13   51 1  
    55   13   52 1  
    56   14   53 1  
    57   18   54 1  
    58   18   55 1  
    59   18   56 1  
    60   19   57 1  
    61   19   58 1  
    62   19   59 1  
    63   20   60 1  
    64   23   61 1  
    65   25   62 1  
    66   27   63 1  
    67   27   64 1  
    68   27   65 1  
    69   31   66 1  
    70   32   67 1  
    71   33   68 1  
    72   34   69 1  
    73   35   70 1  
@<TRIPOS>SUBSTRUCTURE
     1 618         1

