### 
### Created by X-TOOL on Fri Sep 26 17:34:34 2014
### 

@<TRIPOS>MOLECULE
2i3v_ligand
   18    17     1     0     0
SMALL
GAST_HUCK


@<TRIPOS>ATOM
      1 N           0.5280   71.8270   81.2660 N.4       1 GLU         0.2328
      2 CA          1.2150   71.8080   79.9430 C.3       1 GLU         0.0298
      3 C           2.5230   72.5640   79.9900 C.2       1 GLU         0.0845
      4 O           3.1810   72.6180   78.9380 O.co2     1 GLU        -0.5643
      5 CB          0.3150   72.4040   78.8640 C.3       1 GLU         0.0139
      6 CG         -0.8770   71.5110   78.5050 C.3       1 GLU         0.0069
      7 CD         -0.5210   70.3310   77.5940 C.2       1 GLU         0.0351
      8 OE1        -1.3840   69.4590   77.4060 O.co2     1 GLU        -0.5690
      9 OE2         0.6020   70.2610   77.0560 O.co2     1 GLU        -0.5690
     10 OXT         2.8830   73.0630   81.0850 O.co2     1 GLU        -0.5643
     11 H1         -0.3385   71.3160   81.2020 H         1 GLU         0.2010
     12 H2          0.3370   72.7804   81.5318 H         1 GLU         0.2010
     13 H3          1.1210   71.3974   81.9587 H         1 GLU         0.2010
     14 H4          1.4287   70.7611   79.6815 H         1 GLU         0.1025
     15 H5          0.9166   72.5638   77.9571 H         1 GLU         0.0356
     16 H6         -0.0689   73.3698   79.2243 H         1 GLU         0.0356
     17 H7         -1.6296   72.1284   77.9928 H         1 GLU         0.0433
     18 H8         -1.3030   71.1117   79.4372 H         1 GLU         0.0433
@<TRIPOS>BOND
     1    1    2 1  
     2    2    3 1  
     3    2    5 1  
     4    3    4 ar 
     5    3   10 ar 
     6    5    6 1  
     7    6    7 1  
     8    7    8 ar 
     9    7    9 ar 
    10    1   11 1  
    11    1   12 1  
    12    1   13 1  
    13    2   14 1  
    14    5   15 1  
    15    5   16 1  
    16    6   17 1  
    17    6   18 1  
@<TRIPOS>SUBSTRUCTURE
     1 GLU         1

