### 
### Created by X-TOOL on Mon Sep 10 21:12:55 2018
### 

@<TRIPOS>MOLECULE
2i3z_ligand
   48    51     1     0     0
SMALL
GAST_HUCK


@<TRIPOS>ATOM
      1 C4         18.9310   39.7530  -78.2190 C.2       1 LIR         0.2269
      2 C7         15.3950   38.7980  -78.6020 C.2       1 LIR         0.2234
      3 N12        14.0610   38.3140  -78.4140 N.pl3     1 LIR        -0.2592
      4 C13        13.9640   36.9110  -78.8170 C.3       1 LIR         0.0772
      5 C15        12.0480   36.5670  -77.2410 C.3       1 LIR        -0.0060
      6 C17        13.5320   38.5860  -77.0460 C.3       1 LIR         0.0350
      7 C20        15.4000   39.2300  -82.2610 C.ar      1 LIR         0.0229
      8 C21        15.2980   40.2200  -83.2540 C.ar      1 LIR        -0.0460
      9 C22        15.7600   39.9780  -84.5590 C.ar      1 LIR        -0.0597
     10 C24        16.4870   37.7420  -83.9140 C.ar      1 LIR        -0.0333
     11 C26        16.1880   36.9090  -81.6670 C.1       1 LIR         0.0935
     12 C1         18.2790   40.4220  -80.2700 C.2       1 LIR         0.2533
     13 C2         17.1550   39.7620  -79.6010 C.2       1 LIR         0.1650
     14 C3         17.5290   39.3780  -78.4130 C.2       1 LIR         0.0977
     15 N5         19.3060   40.3510  -79.3790 N.am      1 LIR        -0.1920
     16 N6         15.7570   39.3800  -79.7600 N.pl3     1 LIR        -0.1978
     17 N8         16.4080   38.7340  -77.7100 N.2       1 LIR        -0.2999
     18 O9         18.2930   40.8990  -81.3970 O.2       1 LIR        -0.3715
     19 O10        19.6100   39.5400  -77.2350 O.2       1 LIR        -0.3753
     20 C11        20.6410   40.8950  -79.6240 C.3       1 LIR         0.0439
     21 C14        12.5580   36.3700  -78.6800 C.3       1 LIR        -0.0034
     22 C16        12.0760   38.0710  -76.9130 C.3       1 LIR        -0.0272
     23 N18        12.6090   34.9780  -79.1230 N.4       1 LIR         0.2222
     24 C19        14.8600   39.5620  -80.8990 C.3       1 LIR         0.1006
     25 C23        16.3660   38.7460  -84.8810 C.ar      1 LIR        -0.0574
     26 C25        16.0270   37.9790  -82.6080 C.ar      1 LIR         0.0996
     27 N27        16.4010   36.1210  -80.8380 N.1       1 LIR        -0.3348
     28 H1         14.6361   36.3137  -78.1833 H         1 LIR         0.0580
     29 H2         14.2761   36.8225  -79.8681 H         1 LIR         0.0580
     30 H3         12.6972   36.0224  -76.5396 H         1 LIR         0.0321
     31 H4         11.0186   36.1884  -77.1573 H         1 LIR         0.0321
     32 H5         13.5506   39.6700  -76.8599 H         1 LIR         0.0524
     33 H6         14.1652   38.0758  -76.3052 H         1 LIR         0.0524
     34 H7         14.8582   41.1804  -83.0104 H         1 LIR         0.0582
     35 H8         15.6501   40.7412  -85.3209 H         1 LIR         0.0671
     36 H9         16.9327   36.7878  -84.1709 H         1 LIR         0.0699
     37 H10        21.2803   40.7056  -78.7491 H         1 LIR         0.0531
     38 H11        20.5691   41.9788  -79.7978 H         1 LIR         0.0531
     39 H12        21.0779   40.4098  -80.5093 H         1 LIR         0.0531
     40 H13        11.8867   36.9251  -79.3517 H         1 LIR         0.0870
     41 H14        11.7199   38.2315  -75.8847 H         1 LIR         0.0287
     42 H15        11.4265   38.6144  -77.6150 H         1 LIR         0.0287
     43 H16        12.9519   34.9392  -80.0701 H         1 LIR         0.1997
     44 H17        11.6842   34.5788  -79.0839 H         1 LIR         0.1997
     45 H18        13.2261   34.4561  -78.5206 H         1 LIR         0.1997
     46 H19        13.9778   38.9272  -80.7295 H         1 LIR         0.0806
     47 H20        14.5543   40.6185  -80.9132 H         1 LIR         0.0806
     48 H21        16.7404   38.5758  -85.8839 H         1 LIR         0.0584
@<TRIPOS>BOND
     1   14    1 1  
     2    1   15 am 
     3    1   19 2  
     4    2    3 1  
     5   16    2 1  
     6    2   17 2  
     7    3    4 1  
     8    3    6 1  
     9    4   21 1  
    10   21    5 1  
    11   22    5 1  
    12    6   22 1  
    13    7    8 ar 
    14   24    7 1  
    15    7   26 ar 
    16    8    9 ar 
    17    9   25 ar 
    18   10   25 ar 
    19   26   10 ar 
    20   26   11 1  
    21   11   27 3  
    22   13   12 1  
    23   12   15 am 
    24   12   18 2  
    25   13   14 2  
    26   16   13 1  
    27   14   17 1  
    28   15   20 1  
    29   16   24 1  
    30   21   23 1  
    31    4   28 1  
    32    4   29 1  
    33    5   30 1  
    34    5   31 1  
    35    6   32 1  
    36    6   33 1  
    37    8   34 1  
    38    9   35 1  
    39   10   36 1  
    40   20   37 1  
    41   20   38 1  
    42   20   39 1  
    43   21   40 1  
    44   22   41 1  
    45   22   42 1  
    46   23   43 1  
    47   23   44 1  
    48   23   45 1  
    49   24   46 1  
    50   24   47 1  
    51   25   48 1  
@<TRIPOS>SUBSTRUCTURE
     1 LIR         1

