### 
### Created by X-TOOL on Mon Sep 10 21:12:54 2018
### 

@<TRIPOS>MOLECULE
2i40_ligand
   51    54     1     0     0
SMALL
GAST_HUCK


@<TRIPOS>ATOM
      1 C1         -6.7900  208.4020  110.9490 C.3       1 BLZ         0.0553
      2 O2         -7.4790  207.8610  112.0600 O.3       1 BLZ        -0.3304
      3 C3         -8.7540  207.4780  111.6640 C.ar      1 BLZ         0.1083
      4 C4         -9.2110  207.6380  110.3710 C.ar      1 BLZ        -0.0381
      5 C5        -10.5030  207.2120  110.1120 C.ar      1 BLZ         0.0200
      6 N6        -11.2020  207.2510  108.9350 N.2       1 BLZ        -0.3124
      7 C7        -12.3760  206.7330  109.2160 C.2       1 BLZ         0.1197
      8 N8        -12.4690  206.3490  110.5240 N.pl3     1 BLZ        -0.1846
      9 C9        -13.5800  205.7990  111.1400 C.2       1 BLZ         0.1578
     10 C10       -13.6700  204.8100  112.0950 C.2       1 BLZ        -0.0011
     11 C11       -15.0170  204.6010  112.5030 C.2       1 BLZ         0.0877
     12 O12       -15.4600  203.7190  113.4340 O.3       1 BLZ        -0.3129
     13 C13       -14.7030  203.6690  114.6620 C.3       1 BLZ         0.1108
     14 C14       -15.5660  202.9480  115.6730 C.3       1 BLZ        -0.0242
     15 C15       -14.2850  204.9930  115.2620 C.ar      1 BLZ         0.0038
     16 C16       -15.0740  206.1160  115.0920 C.ar      1 BLZ        -0.0569
     17 C17       -14.7140  207.3320  115.6260 C.ar      1 BLZ        -0.0683
     18 C18       -13.5500  207.4380  116.3510 C.ar      1 BLZ        -0.0682
     19 C19       -12.7560  206.3290  116.5350 C.ar      1 BLZ        -0.0545
     20 C20       -13.1120  205.1120  115.9960 C.ar      1 BLZ         0.0440
     21 CL2       -12.1910  203.9660  116.2420 Cl        1 BLZ        -0.0771
     22 C22       -15.9110  205.4310  111.8600 C.2       1 BLZ         0.1048
     23 S23       -15.1110  206.4580  110.7460 S.3       1 BLZ        -0.0076
     24 C24       -17.3270  205.5410  111.9970 C.2       1 BLZ         0.1768
     25 O25       -18.0030  206.4200  111.4850 O.2       1 BLZ        -0.4120
     26 N26       -17.8470  204.5600  112.7920 N.am      1 BLZ        -0.3082
     27 C27       -11.2730  206.6590  111.1190 C.ar      1 BLZ         0.0887
     28 C28       -10.8290  206.4950  112.4160 C.ar      1 BLZ        -0.0128
     29 C29        -9.5370  206.9270  112.6530 C.ar      1 BLZ         0.1111
     30 O30        -8.9230  206.8410  113.8990 O.3       1 BLZ        -0.3286
     31 C31        -9.8050  206.2620  114.8470 C.3       1 BLZ         0.0562
     32 H1         -5.7792  208.7070  111.2575 H         1 BLZ         0.0570
     33 H2         -7.3371  209.2773  110.5690 H         1 BLZ         0.0570
     34 H3         -6.7179  207.6423  110.1568 H         1 BLZ         0.0570
     35 H4         -8.5898  208.0750  109.5976 H         1 BLZ         0.0443
     36 H5        -13.1811  206.6225  108.4911 H         1 BLZ         0.1334
     37 H6        -12.8176  204.2578  112.4880 H         1 BLZ         0.0327
     38 H7        -13.7894  203.0865  114.4722 H         1 BLZ         0.0812
     39 H8        -15.0310  202.8833  116.6319 H         1 BLZ         0.0281
     40 H9        -15.7889  201.9344  115.3084 H         1 BLZ         0.0281
     41 H10       -16.5058  203.5018  115.8142 H         1 BLZ         0.0281
     42 H11       -15.9953  206.0366  114.5263 H         1 BLZ         0.0558
     43 H12       -15.3441  208.2013  115.4762 H         1 BLZ         0.0601
     44 H13       -13.2590  208.3918  116.7760 H         1 BLZ         0.0559
     45 H14       -11.8410  206.4139  117.1100 H         1 BLZ         0.0605
     46 H15       -18.8311  204.5273  112.9668 H         1 BLZ         0.1785
     47 H16       -17.2437  203.8743  113.1994 H         1 BLZ         0.1785
     48 H17       -11.4481  206.0594  113.1919 H         1 BLZ         0.0450
     49 H18        -9.3043  206.2017  115.8246 H         1 BLZ         0.0572
     50 H19       -10.0866  205.2514  114.5164 H         1 BLZ         0.0572
     51 H20       -10.7080  206.8839  114.9353 H         1 BLZ         0.0572
@<TRIPOS>BOND
     1    1    2 1  
     2    2    3 1  
     3    3    4 ar 
     4    3   29 ar 
     5    4    5 ar 
     6    5    6 1  
     7    5   27 ar 
     8    6    7 2  
     9    7    8 1  
    10    8    9 1  
    11    8   27 1  
    12    9   10 2  
    13    9   23 1  
    14   10   11 1  
    15   11   12 1  
    16   11   22 2  
    17   12   13 1  
    18   13   14 1  
    19   13   15 1  
    20   15   16 ar 
    21   15   20 ar 
    22   16   17 ar 
    23   17   18 ar 
    24   18   19 ar 
    25   19   20 ar 
    26   20   21 1  
    27   22   23 1  
    28   22   24 1  
    29   24   25 2  
    30   24   26 am 
    31   27   28 ar 
    32   28   29 ar 
    33   29   30 1  
    34   30   31 1  
    35    1   32 1  
    36    1   33 1  
    37    1   34 1  
    38    4   35 1  
    39    7   36 1  
    40   10   37 1  
    41   13   38 1  
    42   14   39 1  
    43   14   40 1  
    44   14   41 1  
    45   16   42 1  
    46   17   43 1  
    47   18   44 1  
    48   19   45 1  
    49   26   46 1  
    50   26   47 1  
    51   28   48 1  
    52   31   49 1  
    53   31   50 1  
    54   31   51 1  
@<TRIPOS>SUBSTRUCTURE
     1 BLZ         1

