### 
### Created by X-TOOL on Sun Sep  9 21:50:25 2018
### 

@<TRIPOS>MOLECULE
2i47_ligand
   62    64     1     0     0
SMALL
GAST_HUCK


@<TRIPOS>ATOM
      1 S1         19.6150   64.4160    8.4560 S.o2      1 NON         0.0552
      2 C2         18.8360   62.9090    8.6800 C.2       1 NON         0.1358
      3 O3         19.3040   65.1950    9.6140 O.2       1 NON        -0.1564
      4 O4         19.2390   65.0240    7.1960 O.2       1 NON        -0.1564
      5 C5         17.9090   62.2750    7.8530 C.2       1 NON         0.0345
      6 C6         19.0330   62.0600    9.7780 C.2       1 NON         0.1547
      7 N7         17.5870   61.0990    8.4630 N.2       1 NON        -0.1717
      8 C8         17.3370   62.7070    6.5730 C.3       1 NON        -0.0275
      9 O9         18.2480   60.9780    9.5910 O.3       1 NON        -0.1792
     10 C10        19.8970   62.2150   10.9620 C.3       1 NON         0.0100
     11 N11        21.2060   64.0140    8.3910 N.am      1 NON        -0.2394
     12 C12        22.1380   64.4400    9.4350 C.3       1 NON         0.0287
     13 C13        23.3260   65.2060    8.8250 C.3       1 NON        -0.0220
     14 C14        23.9830   64.5200    7.5870 C.3       1 NON         0.0752
     15 C15        22.9260   63.9260    6.5880 C.3       1 NON        -0.0220
     16 C16        21.7350   63.2210    7.2710 C.3       1 NON         0.0287
     17 C17        24.9650   63.4470    8.1140 C.2       1 NON         0.2255
     18 C18        24.8000   65.6510    6.9800 C.3       1 NON         0.0820
     19 O19        25.7330   63.7250    9.0290 O.2       1 NON        -0.3463
     20 N20        24.9200   62.2450    7.5060 N.am      1 NON        -0.1624
     21 S21        25.6070   65.5720    5.4130 S.o2      1 NON        -0.0082
     22 O22        25.6920   66.9400    5.0030 O.2       1 NON        -0.1709
     23 O23        24.8450   64.7100    4.5540 O.2       1 NON        -0.1709
     24 C24        27.2760   64.9970    5.5120 C.ar      1 NON         0.0768
     25 C25        27.6630   63.8120    4.8050 C.ar      1 NON        -0.0458
     26 C26        29.0190   63.3760    4.8710 C.ar      1 NON        -0.0313
     27 C27        29.9650   64.1170    5.6450 C.ar      1 NON         0.0925
     28 C28        29.5600   65.3090    6.3620 C.ar      1 NON        -0.0313
     29 C29        28.2080   65.7460    6.2970 C.ar      1 NON        -0.0458
     30 O30        31.2890   63.6240    5.6520 O.3       1 NON        -0.3055
     31 C31        32.3940   64.5680    5.6080 C.3       1 NON         0.1308
     32 C32        32.5310   65.2180    4.2860 C.1       1 NON        -0.0692
     33 C33        32.6240   65.7850    3.2290 C.1       1 NON        -0.1029
     34 C34        32.7820   66.4270    1.9370 C.3       1 NON        -0.0025
     35 O35        25.7500   61.2320    7.8910 O.3       1 NON        -0.2707
     36 H1         16.6335   61.9435    6.2095 H         1 NON         0.0374
     37 H2         18.1439   62.8419    5.8377 H         1 NON         0.0374
     38 H3         16.8046   63.6595    6.7121 H         1 NON         0.0374
     39 H4         19.7862   61.3362   11.6143 H         1 NON         0.0450
     40 H5         19.6041   63.1204   11.5137 H         1 NON         0.0450
     41 H6         20.9456   62.3039   10.6417 H         1 NON         0.0450
     42 H7         22.5146   63.5536    9.9664 H         1 NON         0.0476
     43 H8         21.6111   65.0960   10.1436 H         1 NON         0.0476
     44 H9         24.0961   65.3179    9.6025 H         1 NON         0.0273
     45 H10        22.9697   66.1998    8.5160 H         1 NON         0.0273
     46 H11        23.4347   63.1954    5.9419 H         1 NON         0.0273
     47 H12        22.5329   64.7486    5.9726 H         1 NON         0.0273
     48 H13        20.9357   63.0722    6.5301 H         1 NON         0.0476
     49 H14        22.0688   62.2444    7.6514 H         1 NON         0.0476
     50 H15        25.5934   65.8677    7.7105 H         1 NON         0.0494
     51 H16        24.1152   66.5095    6.9169 H         1 NON         0.0494
     52 H17        24.2692   62.0931    6.7621 H         1 NON         0.2232
     53 H18        26.9344   63.2544    4.2276 H         1 NON         0.0608
     54 H19        29.3312   62.4862    4.3364 H         1 NON         0.0542
     55 H20        30.2844   65.8655    6.9456 H         1 NON         0.0542
     56 H21        27.8891   66.6322    6.8336 H         1 NON         0.0608
     57 H22        33.3265   64.0306    5.8352 H         1 NON         0.0752
     58 H23        32.2244   65.3454    6.3675 H         1 NON         0.0752
     59 H24        32.0866   67.2760    1.8620 H         1 NON         0.0362
     60 H25        32.5638   65.7026    1.1385 H         1 NON         0.0362
     61 H26        33.8153   66.7891    1.8314 H         1 NON         0.0362
     62 H27        25.5802   60.4648    7.3571 H         1 NON         0.2497
@<TRIPOS>BOND
     1    1    2 1  
     2    1    3 2  
     3    1    4 2  
     4    1   11 am 
     5    2    5 1  
     6    2    6 2  
     7    5    7 2  
     8    5    8 1  
     9    6    9 1  
    10    6   10 1  
    11    7    9 1  
    12   11   12 1  
    13   11   16 1  
    14   12   13 1  
    15   13   14 1  
    16   14   15 1  
    17   14   17 1  
    18   14   18 1  
    19   15   16 1  
    20   17   19 2  
    21   17   20 am 
    22   18   21 1  
    23   20   35 1  
    24   21   22 2  
    25   21   23 2  
    26   21   24 1  
    27   24   25 ar 
    28   24   29 ar 
    29   25   26 ar 
    30   26   27 ar 
    31   27   28 ar 
    32   27   30 1  
    33   28   29 ar 
    34   30   31 1  
    35   31   32 1  
    36   32   33 3  
    37   33   34 1  
    38    8   36 1  
    39    8   37 1  
    40    8   38 1  
    41   10   39 1  
    42   10   40 1  
    43   10   41 1  
    44   12   42 1  
    45   12   43 1  
    46   13   44 1  
    47   13   45 1  
    48   15   46 1  
    49   15   47 1  
    50   16   48 1  
    51   16   49 1  
    52   18   50 1  
    53   18   51 1  
    54   20   52 1  
    55   25   53 1  
    56   26   54 1  
    57   28   55 1  
    58   29   56 1  
    59   31   57 1  
    60   31   58 1  
    61   34   59 1  
    62   34   60 1  
    63   34   61 1  
    64   35   62 1  
@<TRIPOS>SUBSTRUCTURE
     1 NON         1

