### 
### Created by X-TOOL on Mon Sep 10 21:12:56 2018
### 

@<TRIPOS>MOLECULE
2i4j_ligand
   68    70     1     0     0
SMALL
GAST_HUCK


@<TRIPOS>ATOM
      1 CAB        20.8460   20.1950   21.2420 C.3       1 DRJ        -0.0628
      2 CAO        21.1950   19.3430   20.0180 C.3       1 DRJ        -0.0179
      3 CBG        19.9780   18.6660   19.3810 C.3       1 DRJ         0.1310
      4 CAZ        19.3140   17.7690   20.4310 C.2       1 DRJ         0.0806
      5 OAE        20.0500   16.9290   20.9940 O.co2     1 DRJ        -0.5447
      6 OAD        18.0950   17.9350   20.6490 O.co2     1 DRJ        -0.5447
      7 CAC        18.9850   19.7150   18.8690 C.3       1 DRJ        -0.0269
      8 OAX        20.4570   17.8710   18.2870 O.3       1 DRJ        -0.3121
      9 CBB        19.5840   17.2500   17.4440 C.ar      1 DRJ         0.0839
     10 CAK        18.3590   16.7520   17.8890 C.ar      1 DRJ        -0.0397
     11 CAI        17.4790   16.1500   16.9980 C.ar      1 DRJ        -0.0687
     12 CAJ        19.9300   17.1230   16.1030 C.ar      1 DRJ        -0.0397
     13 CAH        19.0500   16.5210   15.2060 C.ar      1 DRJ        -0.0687
     14 CBA        17.8220   16.0450   15.6510 C.ar      1 DRJ        -0.0517
     15 CAT        16.8100   15.5160   14.6370 C.3       1 DRJ        -0.0030
     16 CAV        15.8270   16.6310   14.2680 C.3       1 DRJ         0.0464
     17 NBF        15.2460   16.3560   12.9500 N.pl3     1 DRJ        -0.2485
     18 CAU        13.9130   15.7340   12.8380 C.3       1 DRJ         0.0385
     19 CAS        13.5730   14.9680   14.1190 C.3       1 DRJ        -0.0318
     20 CAR        12.1800   14.3320   14.0800 C.3       1 DRJ        -0.0512
     21 CAQ        11.8140   13.8120   15.4750 C.3       1 DRJ        -0.0530
     22 CAP        10.3230   13.4700   15.5750 C.3       1 DRJ        -0.0533
     23 CAN         9.9320   13.2980   17.0470 C.3       1 DRJ        -0.0559
     24 CAA         8.5590   12.6350   17.1800 C.3       1 DRJ        -0.0653
     25 CBC        15.9860   16.6510   11.8880 C.2       1 DRJ         0.2790
     26 OAY        17.2570   17.1370   11.9940 O.3       1 DRJ        -0.1975
     27 CBE        17.7260   17.2810   10.7210 C.ar      1 DRJ         0.1385
     28 CAM        18.9350   17.7280   10.2130 C.ar      1 DRJ        -0.0329
     29 CAG        19.1360   17.7740    8.8310 C.ar      1 DRJ        -0.0763
     30 CAF        18.1210   17.3710    7.9770 C.ar      1 DRJ        -0.0792
     31 CAL        16.9030   16.9200    8.4950 C.ar      1 DRJ        -0.0662
     32 CBD        16.7020   16.8730    9.8640 C.ar      1 DRJ         0.0267
     33 NAW        15.6620   16.4970   10.6100 N.2       1 DRJ        -0.2971
     34 H1         21.7628   20.6488   21.6463 H         1 DRJ         0.0230
     35 H2         20.3816   19.5598   22.0106 H         1 DRJ         0.0230
     36 H3         20.1430   20.9884   20.9482 H         1 DRJ         0.0230
     37 H4         21.9057   18.5626   20.3276 H         1 DRJ         0.0286
     38 H5         21.6671   19.9912   19.2651 H         1 DRJ         0.0286
     39 H6         18.1193   19.2099   18.4158 H         1 DRJ         0.0253
     40 H7         19.4762   20.3478   18.1152 H         1 DRJ         0.0253
     41 H8         18.6466   20.3401   19.7085 H         1 DRJ         0.0253
     42 H9         18.0921   16.8352   18.9363 H         1 DRJ         0.0525
     43 H10        16.5291   15.7634   17.3491 H         1 DRJ         0.0530
     44 H11        20.8873   17.4935   15.7545 H         1 DRJ         0.0525
     45 H12        19.3229   16.4238   14.1614 H         1 DRJ         0.0530
     46 H13        16.2585   14.6713   15.0757 H         1 DRJ         0.0425
     47 H14        17.3385   15.1791   13.7330 H         1 DRJ         0.0425
     48 H15        16.3584   17.5937   14.2405 H         1 DRJ         0.0552
     49 H16        15.0251   16.6761   15.0196 H         1 DRJ         0.0552
     50 H17        13.9084   15.0372   11.9869 H         1 DRJ         0.0531
     51 H18        13.1595   16.5184   12.6738 H         1 DRJ         0.0531
     52 H19        13.6165   15.6663   14.9678 H         1 DRJ         0.0285
     53 H20        14.3187   14.1718   14.2605 H         1 DRJ         0.0285
     54 H21        12.1791   13.4956   13.3655 H         1 DRJ         0.0266
     55 H22        11.4424   15.0846   13.7645 H         1 DRJ         0.0266
     56 H23        12.0536   14.5860   16.2190 H         1 DRJ         0.0265
     57 H24        12.4029   12.9069   15.6847 H         1 DRJ         0.0265
     58 H25        10.1249   12.5341   15.0320 H         1 DRJ         0.0265
     59 H26         9.7303   14.2837   15.1316 H         1 DRJ         0.0265
     60 H27         9.9013   14.2867   17.5282 H         1 DRJ         0.0263
     61 H28        10.6839   12.6699   17.5472 H         1 DRJ         0.0263
     62 H29         8.3065   12.5253   18.2450 H         1 DRJ         0.0230
     63 H30         8.5831   11.6432   16.7048 H         1 DRJ         0.0230
     64 H31         7.8006   13.2600   16.6859 H         1 DRJ         0.0230
     65 H32        19.7240   18.0417   10.8869 H         1 DRJ         0.0551
     66 H33        20.0803   18.1228    8.4289 H         1 DRJ         0.0520
     67 H34        18.2721   17.4056    6.9041 H         1 DRJ         0.0520
     68 H35        16.1132   16.6060    7.8222 H         1 DRJ         0.0523
@<TRIPOS>BOND
     1    1    2 1  
     2    2    3 1  
     3    3    4 1  
     4    3    7 1  
     5    3    8 1  
     6    4    5 ar 
     7    4    6 ar 
     8    8    9 1  
     9    9   10 ar 
    10    9   12 ar 
    11   10   11 ar 
    12   11   14 ar 
    13   12   13 ar 
    14   13   14 ar 
    15   14   15 1  
    16   15   16 1  
    17   16   17 1  
    18   17   18 1  
    19   17   25 1  
    20   18   19 1  
    21   19   20 1  
    22   20   21 1  
    23   21   22 1  
    24   22   23 1  
    25   23   24 1  
    26   25   26 1  
    27   25   33 2  
    28   26   27 1  
    29   27   28 ar 
    30   27   32 ar 
    31   28   29 ar 
    32   29   30 ar 
    33   30   31 ar 
    34   31   32 ar 
    35   32   33 1  
    36    1   34 1  
    37    1   35 1  
    38    1   36 1  
    39    2   37 1  
    40    2   38 1  
    41    7   39 1  
    42    7   40 1  
    43    7   41 1  
    44   10   42 1  
    45   11   43 1  
    46   12   44 1  
    47   13   45 1  
    48   15   46 1  
    49   15   47 1  
    50   16   48 1  
    51   16   49 1  
    52   18   50 1  
    53   18   51 1  
    54   19   52 1  
    55   19   53 1  
    56   20   54 1  
    57   20   55 1  
    58   21   56 1  
    59   21   57 1  
    60   22   58 1  
    61   22   59 1  
    62   23   60 1  
    63   23   61 1  
    64   24   62 1  
    65   24   63 1  
    66   24   64 1  
    67   28   65 1  
    68   29   66 1  
    69   30   67 1  
    70   31   68 1  
@<TRIPOS>SUBSTRUCTURE
     1 DRJ         1

