### 
### Created by X-TOOL on Mon Sep 10 21:12:56 2018
### 

@<TRIPOS>MOLECULE
2i4p_ligand
   68    70     1     0     0
SMALL
GAST_HUCK


@<TRIPOS>ATOM
      1 CAB        19.9570   20.9670   17.2010 C.3       1 DRH        -0.0628
      2 CAO        19.0550   19.9690   17.9360 C.3       1 DRH        -0.0179
      3 CBG        19.8090   18.7160   18.3920 C.3       1 DRH         0.1310
      4 CAZ        18.9360   17.9330   19.3800 C.2       1 DRH         0.0806
      5 OAE        19.4040   17.6920   20.5030 O.co2     1 DRH        -0.5447
      6 OAD        17.7790   17.6120   18.9950 O.co2     1 DRH        -0.5447
      7 CAC        21.0940   19.1130   19.1230 C.3       1 DRH        -0.0269
      8 OAX        20.2170   17.9380   17.2560 O.3       1 DRH        -0.3121
      9 CBB        19.3900   17.1840   16.4650 C.ar      1 DRH         0.0839
     10 CAK        18.3430   16.4410   16.9850 C.ar      1 DRH        -0.0397
     11 CAI        17.5640   15.6260   16.1510 C.ar      1 DRH        -0.0687
     12 CAJ        19.6490   17.1360   15.1040 C.ar      1 DRH        -0.0397
     13 CAH        18.8730   16.3230   14.2660 C.ar      1 DRH        -0.0687
     14 CBA        17.8350   15.5780   14.7930 C.ar      1 DRH        -0.0517
     15 CAT        17.0370   14.6420   13.8650 C.3       1 DRH        -0.0030
     16 CAV        15.5210   14.7040   14.0440 C.3       1 DRH         0.0464
     17 NBF        14.8500   15.8340   13.3700 N.pl3     1 DRH        -0.2485
     18 CAU        13.3900   15.7750   13.2080 C.3       1 DRH         0.0385
     19 CAS        12.7020   15.1560   14.4280 C.3       1 DRH        -0.0318
     20 CAR        11.2420   14.8350   14.1190 C.3       1 DRH        -0.0512
     21 CAQ        10.5970   14.3020   15.4000 C.3       1 DRH        -0.0530
     22 CAP         9.1610   13.8240   15.1880 C.3       1 DRH        -0.0533
     23 CAN         8.5480   13.4210   16.5270 C.3       1 DRH        -0.0559
     24 CAA         9.4180   12.3890   17.2580 C.3       1 DRH        -0.0653
     25 CBC        15.4700   16.7130   12.5870 C.2       1 DRH         0.2790
     26 OAY        16.7540   16.6140   12.1140 O.3       1 DRH        -0.1975
     27 CBE        16.8900   17.6190   11.1970 C.ar      1 DRH         0.1385
     28 CAM        17.9280   17.9980   10.3620 C.ar      1 DRH        -0.0329
     29 CAG        17.7640   19.0650    9.4830 C.ar      1 DRH        -0.0763
     30 CAF        16.5510   19.7590    9.4430 C.ar      1 DRH        -0.0792
     31 CAL        15.5130   19.3780   10.2800 C.ar      1 DRH        -0.0662
     32 CBD        15.6760   18.3100   11.1550 C.ar      1 DRH         0.0267
     33 NAW        14.8440   17.7310   12.0150 N.2       1 DRH        -0.2971
     34 H1         19.3644   21.8429   16.8984 H         1 DRH         0.0230
     35 H2         20.3838   20.4869   16.3081 H         1 DRH         0.0230
     36 H3         20.7700   21.2874   17.8690 H         1 DRH         0.0230
     37 H4         18.2427   19.6643   17.2597 H         1 DRH         0.0286
     38 H5         18.6290   20.4649   18.8207 H         1 DRH         0.0286
     39 H6         21.6271   18.2066   19.4458 H         1 DRH         0.0253
     40 H7         20.8418   19.7230   20.0029 H         1 DRH         0.0253
     41 H8         21.7365   19.6946   18.4456 H         1 DRH         0.0253
     42 H9         18.1239   16.4899   18.0455 H         1 DRH         0.0525
     43 H10        16.7544   15.0369   16.5664 H         1 DRH         0.0530
     44 H11        20.4544   17.7292   14.6862 H         1 DRH         0.0525
     45 H12        19.0872   16.2787   13.2043 H         1 DRH         0.0530
     46 H13        17.3626   13.6092   14.0582 H         1 DRH         0.0425
     47 H14        17.2701   14.9114   12.8243 H         1 DRH         0.0425
     48 H15        15.3089   14.7767   15.1209 H         1 DRH         0.0552
     49 H16        15.0939   13.7707   13.6483 H         1 DRH         0.0552
     50 H17        13.1553   15.1673   12.3216 H         1 DRH         0.0531
     51 H18        13.0070   16.7961   13.0644 H         1 DRH         0.0531
     52 H19        12.7458   15.8666   15.2665 H         1 DRH         0.0285
     53 H20        13.2246   14.2287   14.7055 H         1 DRH         0.0285
     54 H21        11.1861   14.0732   13.3274 H         1 DRH         0.0266
     55 H22        10.7207   15.7457   13.7890 H         1 DRH         0.0266
     56 H23        10.5922   15.1055   16.1512 H         1 DRH         0.0265
     57 H24        11.1970   13.4576   15.7701 H         1 DRH         0.0265
     58 H25         9.1607   12.9574   14.5105 H         1 DRH         0.0265
     59 H26         8.5672   14.6367   14.7442 H         1 DRH         0.0265
     60 H27         7.5532   12.9869   16.3482 H         1 DRH         0.0263
     61 H28         8.4493   14.3162   17.1585 H         1 DRH         0.0263
     62 H29         8.9458   12.1237   18.2154 H         1 DRH         0.0230
     63 H30        10.4138   12.8165   17.4464 H         1 DRH         0.0230
     64 H31         9.5178   11.4872   16.6361 H         1 DRH         0.0230
     65 H32        18.8701   17.4627   10.3930 H         1 DRH         0.0551
     66 H33        18.5774   19.3580    8.8291 H         1 DRH         0.0520
     67 H34        16.4224   20.5914    8.7606 H         1 DRH         0.0520
     68 H35        14.5716   19.9146   10.2519 H         1 DRH         0.0523
@<TRIPOS>BOND
     1    1    2 1  
     2    2    3 1  
     3    3    4 1  
     4    3    7 1  
     5    3    8 1  
     6    4    5 ar 
     7    4    6 ar 
     8    8    9 1  
     9    9   10 ar 
    10    9   12 ar 
    11   10   11 ar 
    12   11   14 ar 
    13   12   13 ar 
    14   13   14 ar 
    15   14   15 1  
    16   15   16 1  
    17   16   17 1  
    18   17   18 1  
    19   17   25 1  
    20   18   19 1  
    21   19   20 1  
    22   20   21 1  
    23   21   22 1  
    24   22   23 1  
    25   23   24 1  
    26   25   26 1  
    27   25   33 2  
    28   26   27 1  
    29   27   28 ar 
    30   27   32 ar 
    31   28   29 ar 
    32   29   30 ar 
    33   30   31 ar 
    34   31   32 ar 
    35   32   33 1  
    36    1   34 1  
    37    1   35 1  
    38    1   36 1  
    39    2   37 1  
    40    2   38 1  
    41    7   39 1  
    42    7   40 1  
    43    7   41 1  
    44   10   42 1  
    45   11   43 1  
    46   12   44 1  
    47   13   45 1  
    48   15   46 1  
    49   15   47 1  
    50   16   48 1  
    51   16   49 1  
    52   18   50 1  
    53   18   51 1  
    54   19   52 1  
    55   19   53 1  
    56   20   54 1  
    57   20   55 1  
    58   21   56 1  
    59   21   57 1  
    60   22   58 1  
    61   22   59 1  
    62   23   60 1  
    63   23   61 1  
    64   24   62 1  
    65   24   63 1  
    66   24   64 1  
    67   28   65 1  
    68   29   66 1  
    69   30   67 1  
    70   31   68 1  
@<TRIPOS>SUBSTRUCTURE
     1 DRH         1

