### 
### Created by X-TOOL on Sun Sep  9 21:50:33 2018
### 

@<TRIPOS>MOLECULE
2i4t_ligand
   35    37     1     0     0
SMALL
GAST_HUCK


@<TRIPOS>ATOM
      1 C2        -87.0970   15.7050   15.9950 C.ar      1 NON         0.0439
      2 C4        -86.8710   16.8870   17.9840 C.ar      1 NON         0.0487
      3 C5        -88.2600   16.8790   18.1480 C.ar      1 NON         0.1304
      4 C6        -89.0450   16.2330   17.1330 C.ar      1 NON         0.1459
      5 C9        -86.3150   17.5720   19.0790 C.2       1 NON         0.0222
      6 N3        -86.2890   16.3060   16.9020 N.ar      1 NON        -0.3132
      7 N1        -88.4390   15.6370   16.0890 N.ar      1 NON        -0.2741
      8 C8        -87.3340   17.9950   19.9190 C.2       1 NON         0.0330
      9 N7        -88.5000   17.5650   19.3340 N.pl3     1 NON        -0.2768
     10 N6        -90.3910   16.1660   17.1270 N.pl3     1 NON        -0.3157
     11 O5'       -86.2040   20.2500   17.3380 O.3       1 NON        -0.3894
     12 C5'       -84.8880   20.7080   17.2840 C.3       1 NON         0.0894
     13 C4'       -84.0560   20.0220   18.3450 C.3       1 NON         0.0313
     14 N4'       -84.8150   19.3540   19.4160 N.4       1 NON         0.2437
     15 C3'       -83.2180   18.9540   17.7100 C.3       1 NON         0.1318
     16 O3'       -81.9030   19.3070   18.1680 O.3       1 NON        -0.3832
     17 C2'       -83.7520   17.6420   18.3250 C.3       1 NON         0.1329
     18 O2'       -82.6480   17.0980   19.0560 O.3       1 NON        -0.3821
     19 C1'       -84.8680   17.9050   19.3730 C.3       1 NON         0.0271
     20 H1        -86.6295   15.2458   15.1315 H         1 NON         0.0956
     21 H2        -87.2312   18.5522   20.8490 H         1 NON         0.0886
     22 H3        -89.4381   17.7304   19.7259 H         1 NON         0.2266
     23 H4        -90.8792   15.6826   16.3596 H         1 NON         0.1805
     24 H5        -90.9316   16.5982   17.8898 H         1 NON         0.1805
     25 H6        -86.7177   20.6863   16.6686 H         1 NON         0.2097
     26 H7        -84.8733   21.7944   17.4559 H         1 NON         0.0614
     27 H8        -84.4664   20.4879   16.2921 H         1 NON         0.0614
     28 H9        -83.4043   20.7811   18.8023 H         1 NON         0.0900
     29 H10       -85.7627   19.6952   19.3768 H         1 NON         0.2029
     30 H11       -84.3988   19.6181   20.2953 H         1 NON         0.2029
     31 H12       -83.2779   18.9356   16.6118 H         1 NON         0.0680
     32 H13       -81.2714   18.6872   17.8221 H         1 NON         0.2102
     33 H14       -84.1078   16.9574   17.5409 H         1 NON         0.0693
     34 H15       -81.9243   16.9378   18.4618 H         1 NON         0.2103
     35 H16       -84.5907   17.4370   20.3291 H         1 NON         0.0963
@<TRIPOS>BOND
     1    6    1 ar 
     2    1    7 ar 
     3    2    3 ar 
     4    5    2 1  
     5    2    6 ar 
     6    3    4 ar 
     7    9    3 1  
     8    4    7 ar 
     9    4   10 1  
    10    5    8 2  
    11   19    5 1  
    12    8    9 1  
    13   12   11 1  
    14   13   12 1  
    15   14   13 1  
    16   13   15 1  
    17   14   19 1  
    18   15   16 1  
    19   15   17 1  
    20   17   18 1  
    21   17   19 1  
    22    1   20 1  
    23    8   21 1  
    24    9   22 1  
    25   10   23 1  
    26   10   24 1  
    27   11   25 1  
    28   12   26 1  
    29   12   27 1  
    30   13   28 1  
    31   14   29 1  
    32   14   30 1  
    33   15   31 1  
    34   16   32 1  
    35   17   33 1  
    36   18   34 1  
    37   19   35 1  
@<TRIPOS>SUBSTRUCTURE
     1 NON         1

