### 
### Created by X-TOOL on Mon Sep 10 21:12:56 2018
### 

@<TRIPOS>MOLECULE
2i4w_ligand
   98   101     1     0     0
SMALL
GAST_HUCK


@<TRIPOS>ATOM
      1 N          13.5400   22.0940   17.9760 N.am      1 KGQ        -0.2552
      2 C          11.9370   17.9440   18.4890 C.3       1 KGQ         0.0449
      3 O          12.1090   19.1130   12.6550 O.3       1 KGQ        -0.2959
      4 C6         14.5510   22.9180   17.3510 C.3       1 KGQ         0.0793
      5 C8         13.8900   23.4620   16.0180 C.3       1 KGQ         0.0013
      6 C9         13.4240   22.3280   15.1360 C.ar      1 KGQ        -0.0515
      7 C11        14.3200   21.6190   14.3290 C.ar      1 KGQ        -0.0687
      8 C13        13.8990   20.5570   13.5070 C.ar      1 KGQ        -0.0395
      9 C14        12.5280   20.1630   13.4670 C.ar      1 KGQ         0.0867
     10 C15        11.9180   17.8280   13.2720 C.3       1 KGQ         0.1918
     11 P          11.4020   16.6160   12.0950 P.3       1 KGQ         0.3038
     12 O3         12.5330   15.5270   11.9960 O.3       1 KGQ        -0.2312
     13 C18        13.8020   16.1400   11.7590 C.3       1 KGQ         0.0894
     14 C19        14.9000   15.0580   11.6560 C.3       1 KGQ        -0.0350
     15 O2         10.2080   15.8110   12.7000 O.2       1 KGQ        -0.5335
     16 O1         10.8120   17.1080   10.8230 O.3       1 KGQ        -0.2312
     17 C16        10.2550   16.0390   10.0480 C.3       1 KGQ         0.0894
     18 C17         9.5640   16.6250    8.7980 C.3       1 KGQ        -0.0350
     19 C12        11.6130   20.8840   14.2860 C.ar      1 KGQ        -0.0395
     20 C10        12.0690   21.9440   15.0970 C.ar      1 KGQ        -0.0687
     21 C7         14.9970   24.0710   18.2830 C.3       1 KGQ         0.0965
     22 O8         13.9040   24.9200   18.6040 O.3       1 KGQ        -0.3878
     23 C20        16.1220   24.9090   17.6430 C.3       1 KGQ         0.0578
     24 N1         17.3970   24.1830   17.6460 N.am      1 KGQ        -0.2325
     25 C21        18.3040   25.0060   18.4720 C.3       1 KGQ         0.0319
     26 C22        18.4310   24.6260   19.9720 C.3       1 KGQ        -0.0296
     27 C30        19.8470   24.7710   20.5550 C.3       1 KGQ        -0.0612
     28 C29        17.8490   23.2470   20.3040 C.3       1 KGQ        -0.0612
     29 S          17.9450   24.1860   16.0680 S.o2      1 KGQ         0.0657
     30 O10        18.8290   22.9500   15.8410 O.2       1 KGQ        -0.1515
     31 O9         16.7720   24.0010   15.0850 O.2       1 KGQ        -0.1515
     32 C23        18.8580   25.6100   15.6160 C.ar      1 KGQ         0.0971
     33 C28        20.2020   25.7460   15.8180 C.ar      1 KGQ        -0.0440
     34 C27        20.9390   26.8780   15.4660 C.ar      1 KGQ        -0.0313
     35 C26        20.3340   27.9020   14.9010 C.ar      1 KGQ         0.0908
     36 O5         21.1560   29.1910   14.5000 O.3       1 KGQ        -0.3212
     37 C31        22.2700   29.2850   15.1070 C.3       1 KGQ         0.0594
     38 C25        19.0440   27.8590   14.6660 C.ar      1 KGQ        -0.0313
     39 C24        18.3110   26.7130   15.0240 C.ar      1 KGQ        -0.0440
     40 C4         13.9150   20.7900   18.3160 C.2       1 KGQ         0.3203
     41 O7         15.0200   20.2890   18.1250 O.2       1 KGQ        -0.3775
     42 O6         12.8520   20.1890   18.8680 O.3       1 KGQ        -0.2578
     43 C5         12.9480   18.8260   19.2860 C.3       1 KGQ         0.1189
     44 C3         12.3310   18.6890   20.6890 C.3       1 KGQ         0.0815
     45 O4         10.9350   18.8900   20.5200 O.3       1 KGQ        -0.3480
     46 C32        10.6630   18.0690   19.3880 C.3       1 KGQ         0.1648
     47 O11         9.5670   18.6060   18.6220 O.3       1 KGQ        -0.3509
     48 C2         10.1970   19.3400   17.5770 C.3       1 KGQ         0.0512
     49 C1         11.3800   18.4670   17.1290 C.3       1 KGQ        -0.0191
     50 H1         12.6189   22.4392   18.1561 H         1 KGQ         0.1873
     51 H2         12.3208   16.9188   18.3812 H         1 KGQ         0.0380
     52 H3         15.4313   22.3057   17.1058 H         1 KGQ         0.0602
     53 H4         14.6309   24.0619   15.4692 H         1 KGQ         0.0428
     54 H5         13.0268   24.0927   16.2772 H         1 KGQ         0.0428
     55 H6         15.3682   21.8953   14.3370 H         1 KGQ         0.0530
     56 H7         14.6250   20.0319   12.8968 H         1 KGQ         0.0525
     57 H8         11.1492   17.9173   14.0536 H         1 KGQ         0.0904
     58 H9         12.8664   17.5047   13.7258 H         1 KGQ         0.0904
     59 H10        14.0385   16.8211   12.5898 H         1 KGQ         0.0635
     60 H11        13.7618   16.7090   10.8184 H         1 KGQ         0.0635
     61 H12        15.8725   15.5387   11.4737 H         1 KGQ         0.0257
     62 H13        14.6664   14.3764   10.8248 H         1 KGQ         0.0257
     63 H14        14.9430   14.4886   12.5961 H         1 KGQ         0.0257
     64 H15         9.5177   15.4912   10.6532 H         1 KGQ         0.0635
     65 H16        11.0569   15.3530    9.7375 H         1 KGQ         0.0635
     66 H17         9.1346   15.8080    8.1995 H         1 KGQ         0.0257
     67 H18        10.3021   17.1731    8.1941 H         1 KGQ         0.0257
     68 H19         8.7629   17.3113    9.1097 H         1 KGQ         0.0257
     69 H20        10.5623   20.6172   14.2861 H         1 KGQ         0.0525
     70 H21        11.3539   22.4805   15.7101 H         1 KGQ         0.0530
     71 H22        15.3801   23.6283   19.2142 H         1 KGQ         0.0634
     72 H23        13.5494   25.2934   17.8056 H         1 KGQ         0.2100
     73 H24        16.2405   25.8431   18.2117 H         1 KGQ         0.0504
     74 H25        15.8465   25.1445   16.6044 H         1 KGQ         0.0504
     75 H26        17.9469   26.0452   18.4221 H         1 KGQ         0.0480
     76 H27        19.3080   24.9415   18.0273 H         1 KGQ         0.0480
     77 H28        17.8089   25.3566   20.5098 H         1 KGQ         0.0311
     78 H29        19.8381   24.4811   21.6161 H         1 KGQ         0.0233
     79 H30        20.1760   25.8166   20.4634 H         1 KGQ         0.0233
     80 H31        20.5396   24.1190   20.0026 H         1 KGQ         0.0233
     81 H32        16.8379   23.1638   19.8789 H         1 KGQ         0.0233
     82 H33        17.7990   23.1233   21.3959 H         1 KGQ         0.0233
     83 H34        18.4925   22.4646   19.8754 H         1 KGQ         0.0233
     84 H35        20.7307   24.9212   16.2819 H         1 KGQ         0.0608
     85 H36        22.0054   26.9139   15.6571 H         1 KGQ         0.0542
     86 H37        22.7880   30.1997   14.7830 H         1 KGQ         0.0577
     87 H38        22.8914   28.4086   14.8709 H         1 KGQ         0.0577
     88 H39        22.0939   29.3281   16.1920 H         1 KGQ         0.0577
     89 H40        18.5462   28.7011   14.1990 H         1 KGQ         0.0542
     90 H41        17.2469   26.7046   14.8175 H         1 KGQ         0.0608
     91 H42        13.9842   18.4619   19.2246 H         1 KGQ         0.0675
     92 H43        12.7479   19.4487   21.3665 H         1 KGQ         0.0590
     93 H44        12.5268   17.6865   21.0972 H         1 KGQ         0.0590
     94 H45        10.3837   17.0660   19.7429 H         1 KGQ         0.0913
     95 H46        10.5537   20.3118   17.9488 H         1 KGQ         0.0561
     96 H47         9.4983   19.5006   16.7427 H         1 KGQ         0.0561
     97 H48        11.0438   17.6371   16.4901 H         1 KGQ         0.0293
     98 H49        12.1334   19.0616   16.5916 H         1 KGQ         0.0293
@<TRIPOS>BOND
     1    1    4 1  
     2   40    1 am 
     3   43    2 1  
     4    2   46 1  
     5    2   49 1  
     6    9    3 1  
     7    3   10 1  
     8    4    5 1  
     9    4   21 1  
    10    5    6 1  
    11    6    7 ar 
    12    6   20 ar 
    13    7    8 ar 
    14    8    9 ar 
    15   19    9 ar 
    16   10   11 1  
    17   11   12 1  
    18   11   15 2  
    19   11   16 1  
    20   12   13 1  
    21   13   14 1  
    22   16   17 1  
    23   17   18 1  
    24   20   19 ar 
    25   21   22 1  
    26   21   23 1  
    27   23   24 1  
    28   24   25 1  
    29   24   29 am 
    30   25   26 1  
    31   26   27 1  
    32   26   28 1  
    33   29   30 2  
    34   29   31 2  
    35   29   32 1  
    36   32   33 ar 
    37   32   39 ar 
    38   33   34 ar 
    39   34   35 ar 
    40   35   36 1  
    41   38   35 ar 
    42   36   37 1  
    43   39   38 ar 
    44   40   41 2  
    45   42   40 1  
    46   42   43 1  
    47   43   44 1  
    48   44   45 1  
    49   45   46 1  
    50   46   47 1  
    51   47   48 1  
    52   48   49 1  
    53    1   50 1  
    54    2   51 1  
    55    4   52 1  
    56    5   53 1  
    57    5   54 1  
    58    7   55 1  
    59    8   56 1  
    60   10   57 1  
    61   10   58 1  
    62   13   59 1  
    63   13   60 1  
    64   14   61 1  
    65   14   62 1  
    66   14   63 1  
    67   17   64 1  
    68   17   65 1  
    69   18   66 1  
    70   18   67 1  
    71   18   68 1  
    72   19   69 1  
    73   20   70 1  
    74   21   71 1  
    75   22   72 1  
    76   23   73 1  
    77   23   74 1  
    78   25   75 1  
    79   25   76 1  
    80   26   77 1  
    81   27   78 1  
    82   27   79 1  
    83   27   80 1  
    84   28   81 1  
    85   28   82 1  
    86   28   83 1  
    87   33   84 1  
    88   34   85 1  
    89   37   86 1  
    90   37   87 1  
    91   37   88 1  
    92   38   89 1  
    93   39   90 1  
    94   43   91 1  
    95   44   92 1  
    96   44   93 1  
    97   46   94 1  
    98   48   95 1  
    99   48   96 1  
   100   49   97 1  
   101   49   98 1  
@<TRIPOS>SUBSTRUCTURE
     1 KGQ         1

