### 
### Created by X-TOOL on Mon Sep 10 21:12:56 2018
### 

@<TRIPOS>MOLECULE
2i4x_ligand
   98   101     1     0     0
SMALL
GAST_HUCK


@<TRIPOS>ATOM
      1 N          13.4730   22.1090   17.8170 N.am      1 KGQ        -0.2552
      2 C          11.7410   17.9830   18.3630 C.3       1 KGQ         0.0449
      3 O          12.3050   18.9340   12.4460 O.3       1 KGQ        -0.2959
      4 C6         14.4130   22.9560   17.1040 C.3       1 KGQ         0.0793
      5 C8         13.7300   23.4230   15.7780 C.3       1 KGQ         0.0013
      6 C9         13.3440   22.2380   14.8870 C.ar      1 KGQ        -0.0515
      7 C11        14.3060   21.6160   14.0710 C.ar      1 KGQ        -0.0687
      8 C13        13.9610   20.5220   13.2620 C.ar      1 KGQ        -0.0395
      9 C14        12.6410   20.0320   13.2540 C.ar      1 KGQ         0.0867
     10 C15        11.4110   17.9640   13.0050 C.3       1 KGQ         0.1918
     11 P          11.4860   16.4440   11.9980 P.3       1 KGQ         0.3038
     12 O3         12.9740   15.8600   11.9930 O.3       1 KGQ        -0.2312
     13 C18        13.5850   15.1940   10.8740 C.3       1 KGQ         0.0894
     14 C19        15.0260   14.7800   11.2600 C.3       1 KGQ        -0.0350
     15 O2         10.5540   15.4320   12.5810 O.2       1 KGQ        -0.5335
     16 O1         11.0670   16.7420   10.4880 O.3       1 KGQ        -0.2312
     17 C16         9.8080   17.2670   10.0700 C.3       1 KGQ         0.0894
     18 C17         9.8220   17.3870    8.5290 C.3       1 KGQ        -0.0350
     19 C12        11.6670   20.6530   14.0660 C.ar      1 KGQ        -0.0395
     20 C10        12.0190   21.7510   14.8760 C.ar      1 KGQ        -0.0687
     21 C7         14.7880   24.1500   18.0260 C.3       1 KGQ         0.0965
     22 O8         13.6400   24.9830   18.1640 O.3       1 KGQ        -0.3878
     23 C20        15.9240   25.0660   17.4750 C.3       1 KGQ         0.0578
     24 N1         17.2230   24.3480   17.3230 N.am      1 KGQ        -0.2325
     25 C21        18.2800   24.6180   18.3460 C.3       1 KGQ         0.0319
     26 C22        18.1980   23.7680   19.6570 C.3       1 KGQ        -0.0296
     27 C30        19.5130   22.9770   19.8340 C.3       1 KGQ        -0.0612
     28 C29        17.0320   22.7470   19.6110 C.3       1 KGQ        -0.0612
     29 S          17.8120   24.1050   15.7620 S.o2      1 KGQ         0.0657
     30 O10        18.7750   23.0300   15.8190 O.2       1 KGQ        -0.1515
     31 O9         16.7170   23.9160   14.8380 O.2       1 KGQ        -0.1515
     32 C23        18.6990   25.6000   15.3270 C.ar      1 KGQ         0.0971
     33 C28        20.0820   25.7000   15.5790 C.ar      1 KGQ        -0.0440
     34 C27        20.7880   26.8630   15.2490 C.ar      1 KGQ        -0.0313
     35 C26        20.1240   27.9520   14.6530 C.ar      1 KGQ         0.0908
     36 O5         20.8210   29.1170   14.3210 O.3       1 KGQ        -0.3212
     37 C31        22.1840   29.3210   14.7220 C.3       1 KGQ         0.0594
     38 C25        18.7440   27.8520   14.3990 C.ar      1 KGQ        -0.0313
     39 C24        18.0360   26.6850   14.7300 C.ar      1 KGQ        -0.0440
     40 C4         13.7280   20.8210   18.1030 C.2       1 KGQ         0.3203
     41 O7         14.7640   20.2300   17.8020 O.2       1 KGQ        -0.3775
     42 O6         12.6760   20.2780   18.7520 O.3       1 KGQ        -0.2578
     43 C5         12.7420   18.8820   19.1220 C.3       1 KGQ         0.1189
     44 C3         12.2090   18.7940   20.5650 C.3       1 KGQ         0.0815
     45 O4         10.8060   18.9500   20.3330 O.3       1 KGQ        -0.3480
     46 C32        10.4620   18.0910   19.2430 C.3       1 KGQ         0.1648
     47 O11         9.4410   18.6750   18.4080 O.3       1 KGQ        -0.3509
     48 C2         10.0750   19.4490   17.3840 C.3       1 KGQ         0.0512
     49 C1         11.2380   18.5220   16.9960 C.3       1 KGQ        -0.0191
     50 H1         12.5998   22.5006   18.1071 H         1 KGQ         0.1873
     51 H2         12.1294   16.9586   18.2642 H         1 KGQ         0.0380
     52 H3         15.3231   22.3878   16.8616 H         1 KGQ         0.0602
     53 H4         14.4283   24.0699   15.2268 H         1 KGQ         0.0428
     54 H5         12.8219   23.9917   16.0267 H         1 KGQ         0.0428
     55 H6         15.3251   21.9855   14.0668 H         1 KGQ         0.0530
     56 H7         14.7145   20.0521   12.6403 H         1 KGQ         0.0525
     57 H8         10.3850   18.3606   12.9994 H         1 KGQ         0.0904
     58 H9         11.7110   17.7375   14.0388 H         1 KGQ         0.0904
     59 H10        13.6157   15.8754   10.0110 H         1 KGQ         0.0635
     60 H11        13.0012   14.2987   10.6138 H         1 KGQ         0.0635
     61 H12        15.5011   14.2695   10.4093 H         1 KGQ         0.0257
     62 H13        14.9932   14.0998   12.1239 H         1 KGQ         0.0257
     63 H14        15.6076   15.6764   11.5210 H         1 KGQ         0.0257
     64 H15         9.6505   18.2587   10.5192 H         1 KGQ         0.0635
     65 H16         8.9997   16.5899   10.3833 H         1 KGQ         0.0635
     66 H17         8.8587   17.7907    8.1839 H         1 KGQ         0.0257
     67 H18         9.9832   16.3935    8.0853 H         1 KGQ         0.0257
     68 H19        10.6340   18.0622    8.2211 H         1 KGQ         0.0257
     69 H20        10.6475   20.2847   14.0663 H         1 KGQ         0.0525
     70 H21        11.2665   22.2254   15.4955 H         1 KGQ         0.0530
     71 H22        15.0920   23.7538   19.0061 H         1 KGQ         0.0634
     72 H23        13.8505   25.7199   18.7255 H         1 KGQ         0.2100
     73 H24        16.0663   25.9064   18.1703 H         1 KGQ         0.0504
     74 H25        15.6185   25.4517   16.4912 H         1 KGQ         0.0504
     75 H26        18.2124   25.6791   18.6280 H         1 KGQ         0.0480
     76 H27        19.2572   24.4241   17.8797 H         1 KGQ         0.0480
     77 H28        18.0533   24.4443   20.5124 H         1 KGQ         0.0311
     78 H29        19.4593   22.3779   20.7550 H         1 KGQ         0.0233
     79 H30        20.3570   23.6792   19.9021 H         1 KGQ         0.0233
     80 H31        19.6591   22.3106   18.9711 H         1 KGQ         0.0233
     81 H32        16.0798   23.2833   19.4852 H         1 KGQ         0.0233
     82 H33        17.0089   22.1742   20.5498 H         1 KGQ         0.0233
     83 H34        17.1799   22.0593   18.7654 H         1 KGQ         0.0233
     84 H35        20.6052   24.8666   16.0337 H         1 KGQ         0.0608
     85 H36        21.8508   26.9253   15.4533 H         1 KGQ         0.0542
     86 H37        22.5316   30.2983   14.3558 H         1 KGQ         0.0577
     87 H38        22.8140   28.5253   14.2978 H         1 KGQ         0.0577
     88 H39        22.2510   29.2959   15.8197 H         1 KGQ         0.0577
     89 H40        18.2212   28.6848   13.9428 H         1 KGQ         0.0542
     90 H41        16.9737   26.6214   14.5239 H         1 KGQ         0.0608
     91 H42        13.7711   18.5068   19.0216 H         1 KGQ         0.0675
     92 H43        12.6088   19.6016   21.1958 H         1 KGQ         0.0590
     93 H44        12.4392   17.8215   21.0246 H         1 KGQ         0.0590
     94 H45        10.1399   17.1066   19.6133 H         1 KGQ         0.0913
     95 H46        10.4379   20.4123   17.7716 H         1 KGQ         0.0561
     96 H47         9.3991   19.6267   16.5346 H         1 KGQ         0.0561
     97 H48        10.8887   17.7004   16.3535 H         1 KGQ         0.0293
     98 H49        12.0308   19.0812   16.4777 H         1 KGQ         0.0293
@<TRIPOS>BOND
     1    1    4 1  
     2   40    1 am 
     3   43    2 1  
     4    2   46 1  
     5    2   49 1  
     6    9    3 1  
     7    3   10 1  
     8    4    5 1  
     9    4   21 1  
    10    5    6 1  
    11    6    7 ar 
    12    6   20 ar 
    13    7    8 ar 
    14    8    9 ar 
    15   19    9 ar 
    16   10   11 1  
    17   11   12 1  
    18   11   15 2  
    19   11   16 1  
    20   12   13 1  
    21   13   14 1  
    22   16   17 1  
    23   17   18 1  
    24   20   19 ar 
    25   21   22 1  
    26   21   23 1  
    27   23   24 1  
    28   24   25 1  
    29   24   29 am 
    30   25   26 1  
    31   26   27 1  
    32   26   28 1  
    33   29   30 2  
    34   29   31 2  
    35   29   32 1  
    36   32   33 ar 
    37   32   39 ar 
    38   33   34 ar 
    39   34   35 ar 
    40   35   36 1  
    41   38   35 ar 
    42   36   37 1  
    43   39   38 ar 
    44   40   41 2  
    45   42   40 1  
    46   42   43 1  
    47   43   44 1  
    48   44   45 1  
    49   45   46 1  
    50   46   47 1  
    51   47   48 1  
    52   48   49 1  
    53    1   50 1  
    54    2   51 1  
    55    4   52 1  
    56    5   53 1  
    57    5   54 1  
    58    7   55 1  
    59    8   56 1  
    60   10   57 1  
    61   10   58 1  
    62   13   59 1  
    63   13   60 1  
    64   14   61 1  
    65   14   62 1  
    66   14   63 1  
    67   17   64 1  
    68   17   65 1  
    69   18   66 1  
    70   18   67 1  
    71   18   68 1  
    72   19   69 1  
    73   20   70 1  
    74   21   71 1  
    75   22   72 1  
    76   23   73 1  
    77   23   74 1  
    78   25   75 1  
    79   25   76 1  
    80   26   77 1  
    81   27   78 1  
    82   27   79 1  
    83   27   80 1  
    84   28   81 1  
    85   28   82 1  
    86   28   83 1  
    87   33   84 1  
    88   34   85 1  
    89   37   86 1  
    90   37   87 1  
    91   37   88 1  
    92   38   89 1  
    93   39   90 1  
    94   43   91 1  
    95   44   92 1  
    96   44   93 1  
    97   46   94 1  
    98   48   95 1  
    99   48   96 1  
   100   49   97 1  
   101   49   98 1  
@<TRIPOS>SUBSTRUCTURE
     1 KGQ         1

