### 
### Created by X-TOOL on Mon Sep 10 21:12:56 2018
### 

@<TRIPOS>MOLECULE
2i4z_ligand
   68    70     1     0     0
SMALL
GAST_HUCK


@<TRIPOS>ATOM
      1 CAB        20.3000   20.6650   17.3190 C.3       1 DRH        -0.0628
      2 CAO        19.4260   19.9370   18.3420 C.3       1 DRH        -0.0179
      3 CBG        20.2080   18.8450   19.0780 C.3       1 DRH         0.1310
      4 CAZ        19.3130   18.1370   20.1000 C.2       1 DRH         0.0806
      5 OAE        19.8810   17.5570   21.0510 O.co2     1 DRH        -0.5447
      6 OAD        18.0780   18.1780   19.9110 O.co2     1 DRH        -0.5447
      7 CAC        21.3870   19.4650   19.8330 C.3       1 DRH        -0.0269
      8 OAX        20.7490   17.9110   18.1350 O.3       1 DRH        -0.3121
      9 CBB        19.9920   17.1370   17.3030 C.ar      1 DRH         0.0839
     10 CAK        18.7520   16.6200   17.6720 C.ar      1 DRH        -0.0397
     11 CAI        18.0570   15.7740   16.8100 C.ar      1 DRH        -0.0687
     12 CAJ        20.5230   16.8090   16.0590 C.ar      1 DRH        -0.0397
     13 CAH        19.8300   15.9640   15.1970 C.ar      1 DRH        -0.0687
     14 CBA        18.5960   15.4410   15.5700 C.ar      1 DRH        -0.0517
     15 CAT        17.8990   14.4570   14.6240 C.3       1 DRH        -0.0030
     16 CAV        16.3690   14.5010   14.6760 C.3       1 DRH         0.0464
     17 NBF        15.7340   15.2790   13.5980 N.pl3     1 DRH        -0.2485
     18 CAU        14.2710   15.2320   13.4370 C.3       1 DRH         0.0385
     19 CAS        13.5840   14.5440   14.6180 C.3       1 DRH        -0.0318
     20 CAR        12.0750   14.4180   14.4020 C.3       1 DRH        -0.0512
     21 CAQ        11.4290   13.8830   15.6810 C.3       1 DRH        -0.0530
     22 CAP         9.9140   13.7210   15.5420 C.3       1 DRH        -0.0533
     23 CAN         9.2820   13.3410   16.8830 C.3       1 DRH        -0.0559
     24 CAA         9.8490   12.0280   17.4290 C.3       1 DRH        -0.0653
     25 CBC        16.4220   15.8790   12.6270 C.2       1 DRH         0.2790
     26 OAY        17.7700   15.7870   12.4210 O.3       1 DRH        -0.1975
     27 CBE        18.0220   16.4680   11.2650 C.ar      1 DRH         0.1385
     28 CAM        19.1880   16.6990   10.5420 C.ar      1 DRH        -0.0329
     29 CAG        19.1370   17.4280    9.3570 C.ar      1 DRH        -0.0763
     30 CAF        17.9210   17.9260    8.8990 C.ar      1 DRH        -0.0792
     31 CAL        16.7540   17.6960    9.6210 C.ar      1 DRH        -0.0662
     32 CBD        16.8070   16.9640   10.8030 C.ar      1 DRH         0.0267
     33 NAW        15.8580   16.5890   11.6550 N.2       1 DRH        -0.2971
     34 H1         19.7045   21.4391   16.8129 H         1 DRH         0.0230
     35 H2         20.6722   19.9445   16.5758 H         1 DRH         0.0230
     36 H3         21.1517   21.1349   17.8326 H         1 DRH         0.0230
     37 H4         18.5747   19.4758   17.8200 H         1 DRH         0.0286
     38 H5         19.0542   20.6662   19.0768 H         1 DRH         0.0286
     39 H6         21.9426   18.6742   20.3583 H         1 DRH         0.0253
     40 H7         21.0108   20.1961   20.5638 H         1 DRH         0.0253
     41 H8         22.0546   19.9701   19.1194 H         1 DRH         0.0253
     42 H9         18.3256   16.8772   18.6348 H         1 DRH         0.0525
     43 H10        17.0939   15.3739   17.1056 H         1 DRH         0.0530
     44 H11        21.4827   17.2143   15.7594 H         1 DRH         0.0525
     45 H12        20.2534   15.7125   14.2313 H         1 DRH         0.0530
     46 H13        18.2225   13.4393   14.8877 H         1 DRH         0.0425
     47 H14        18.2145   14.6871   13.5957 H         1 DRH         0.0425
     48 H15        16.0723   14.9446   15.6379 H         1 DRH         0.0552
     49 H16        15.9952   13.4681   14.6177 H         1 DRH         0.0552
     50 H17        14.0330   14.6785   12.5167 H         1 DRH         0.0531
     51 H18        13.8899   16.2606   13.3552 H         1 DRH         0.0531
     52 H19        13.7653   15.1340   15.5285 H         1 DRH         0.0285
     53 H20        14.0112   13.5380   14.7418 H         1 DRH         0.0285
     54 H21        11.8785   13.7236   13.5719 H         1 DRH         0.0266
     55 H22        11.6536   15.4053   14.1618 H         1 DRH         0.0266
     56 H23        11.6358   14.5850   16.5022 H         1 DRH         0.0265
     57 H24        11.8694   12.9030   15.9166 H         1 DRH         0.0265
     58 H25         9.7019   12.9308   14.8068 H         1 DRH         0.0265
     59 H26         9.4802   14.6705   15.1953 H         1 DRH         0.0265
     60 H27         8.1963   13.2298   16.7458 H         1 DRH         0.0263
     61 H28         9.4796   14.1431   17.6094 H         1 DRH         0.0263
     62 H29         9.3691   11.7931   18.3905 H         1 DRH         0.0230
     63 H30        10.9343   12.1303   17.5763 H         1 DRH         0.0230
     64 H31         9.6510   11.2171   16.7127 H         1 DRH         0.0230
     65 H32        20.1348   16.3119   10.9008 H         1 DRH         0.0551
     66 H33        20.0441   17.6076    8.7914 H         1 DRH         0.0520
     67 H34        17.8828   18.4948    7.9770 H         1 DRH         0.0520
     68 H35        15.8075   18.0855    9.2640 H         1 DRH         0.0523
@<TRIPOS>BOND
     1    1    2 1  
     2    2    3 1  
     3    3    4 1  
     4    3    7 1  
     5    3    8 1  
     6    4    5 ar 
     7    4    6 ar 
     8    8    9 1  
     9    9   10 ar 
    10    9   12 ar 
    11   10   11 ar 
    12   11   14 ar 
    13   12   13 ar 
    14   13   14 ar 
    15   14   15 1  
    16   15   16 1  
    17   16   17 1  
    18   17   18 1  
    19   17   25 1  
    20   18   19 1  
    21   19   20 1  
    22   20   21 1  
    23   21   22 1  
    24   22   23 1  
    25   23   24 1  
    26   25   26 1  
    27   25   33 2  
    28   26   27 1  
    29   27   28 ar 
    30   27   32 ar 
    31   28   29 ar 
    32   29   30 ar 
    33   30   31 ar 
    34   31   32 ar 
    35   32   33 1  
    36    1   34 1  
    37    1   35 1  
    38    1   36 1  
    39    2   37 1  
    40    2   38 1  
    41    7   39 1  
    42    7   40 1  
    43    7   41 1  
    44   10   42 1  
    45   11   43 1  
    46   12   44 1  
    47   13   45 1  
    48   15   46 1  
    49   15   47 1  
    50   16   48 1  
    51   16   49 1  
    52   18   50 1  
    53   18   51 1  
    54   19   52 1  
    55   19   53 1  
    56   20   54 1  
    57   20   55 1  
    58   21   56 1  
    59   21   57 1  
    60   22   58 1  
    61   22   59 1  
    62   23   60 1  
    63   23   61 1  
    64   24   62 1  
    65   24   63 1  
    66   24   64 1  
    67   28   65 1  
    68   29   66 1  
    69   30   67 1  
    70   31   68 1  
@<TRIPOS>SUBSTRUCTURE
     1 DRH         1

