### 
### Created by X-TOOL on Mon Sep 10 21:12:55 2018
### 

@<TRIPOS>MOLECULE
2i5j_ligand
   41    43     1     0     0
SMALL
GAST_HUCK


@<TRIPOS>ATOM
      1 N1         46.4000  -25.4720   18.1360 N.2       1 K05        -0.1621
      2 N2         46.9780  -24.7940   19.0680 N.2       1 K05        -0.0951
      3 C3         46.4110  -24.7610   20.4470 C.2       1 K05         0.2598
      4 O3         45.1570  -25.5280   20.7720 O.2       1 K05        -0.3394
      5 OH3        48.9550  -21.7310   24.6730 O.3       1 K05        -0.3328
      6 OH4        49.7120  -21.2790   22.1550 O.3       1 K05        -0.3357
      7 C11        46.6730  -25.0380   16.8660 C.3       1 K05         0.0966
      8 C12        46.1190  -25.6240   15.6510 C.ar      1 K05         0.0175
      9 C13        45.2320  -24.6940   14.8470 C.ar      1 K05         0.0942
     10 O13        45.0500  -23.4240   15.3730 O.3       1 K05        -0.3263
     11 C14        44.5880  -25.1980   13.5680 C.ar      1 K05        -0.0366
     12 C15        44.8190  -26.5270   13.0790 C.ar      1 K05        -0.0653
     13 C25        45.6580  -27.4400   13.8260 C.ar      1 K05        -0.0309
     14 C16        45.8810  -28.8030   13.3010 C.ar      1 K05        -0.0613
     15 C17        46.7310  -29.7340   14.0410 C.ar      1 K05        -0.0665
     16 C18        47.3710  -29.2830   15.2840 C.ar      1 K05        -0.0665
     17 C19        47.1960  -27.9520   15.8580 C.ar      1 K05        -0.0606
     18 C29        46.3660  -26.9910   15.1590 C.ar      1 K05        -0.0202
     19 C10        44.2540  -22.4200   14.7700 C.3       1 K05         0.0572
     20 C1'        47.0860  -23.9690   21.4750 C.ar      1 K05         0.0362
     21 C2'        48.1380  -22.9600   21.1870 C.ar      1 K05        -0.0214
     22 C3'        48.7470  -22.2160   22.3270 C.ar      1 K05         0.1222
     23 C4'        48.3410  -22.4580   23.6900 C.ar      1 K05         0.1223
     24 C5'        47.3010  -23.4510   23.9860 C.ar      1 K05        -0.0346
     25 C6'        46.7040  -24.1780   22.8930 C.ar      1 K05        -0.0608
     26 H1         49.8892  -21.9024   24.6554 H         1 K05         0.2466
     27 H2         49.9634  -20.9260   23.0005 H         1 K05         0.2443
     28 H3         47.7651  -25.1125   16.7575 H         1 K05         0.0679
     29 H4         46.3738  -23.9797   16.8456 H         1 K05         0.0679
     30 H5         43.9362  -24.5362   13.0092 H         1 K05         0.0563
     31 H6         44.3645  -26.8479   12.1487 H         1 K05         0.0539
     32 H7         45.4164  -29.1112   12.3713 H         1 K05         0.0602
     33 H8         46.8869  -30.7433   13.6775 H         1 K05         0.0585
     34 H9         48.0132  -29.9819   15.8076 H         1 K05         0.0591
     35 H10        47.6789  -27.6868   16.7916 H         1 K05         0.0596
     36 H11        44.2791  -21.5111   15.3891 H         1 K05         0.0574
     37 H12        43.2170  -22.7766   14.6841 H         1 K05         0.0574
     38 H13        44.6476  -22.1923   13.7684 H         1 K05         0.0574
     39 H14        48.4564  -22.7685   20.1687 H         1 K05         0.0559
     40 H15        46.9876  -23.6344   25.0074 H         1 K05         0.0526
     41 H16        45.9393  -24.9125   23.1185 H         1 K05         0.0554
@<TRIPOS>BOND
     1    2    1 2  
     2    1    7 1  
     3    3    2 1  
     4    3    4 2  
     5   20    3 1  
     6   23    5 1  
     7   22    6 1  
     8    7    8 1  
     9    8    9 ar 
    10    8   18 ar 
    11    9   10 1  
    12    9   11 ar 
    13   10   19 1  
    14   11   12 ar 
    15   13   12 ar 
    16   13   14 ar 
    17   18   13 ar 
    18   14   15 ar 
    19   16   15 ar 
    20   17   16 ar 
    21   18   17 ar 
    22   21   20 ar 
    23   20   25 ar 
    24   22   21 ar 
    25   22   23 ar 
    26   23   24 ar 
    27   24   25 ar 
    28    5   26 1  
    29    6   27 1  
    30    7   28 1  
    31    7   29 1  
    32   11   30 1  
    33   12   31 1  
    34   14   32 1  
    35   15   33 1  
    36   16   34 1  
    37   17   35 1  
    38   19   36 1  
    39   19   37 1  
    40   19   38 1  
    41   21   39 1  
    42   24   40 1  
    43   25   41 1  
@<TRIPOS>SUBSTRUCTURE
     1 K05         1

