### 
### Created by X-TOOL on Mon Sep 10 21:12:55 2018
### 

@<TRIPOS>MOLECULE
2i6a_ligand
   32    34     1     0     0
SMALL
GAST_HUCK


@<TRIPOS>ATOM
      1 N1          9.2040  -23.2940   19.1150 N.ar      1 5I5        -0.2731
      2 C1          8.7190  -23.4210   20.3710 C.ar      1 5I5         0.1166
      3 C2          8.5670  -22.3240   21.2160 C.ar      1 5I5         0.0529
      4 C3          8.9590  -21.0670   20.6700 C.ar      1 5I5         0.1421
      5 N2          9.4360  -20.9480   19.4080 N.ar      1 5I5        -0.2765
      6 C4          9.5560  -22.0680   18.6690 C.ar      1 5I5         0.0503
      7 C5          8.1130  -22.0690   22.5680 C.2       1 5I5         0.0169
      8 C6          8.2590  -20.6790   22.7740 C.2       1 5I5         0.0441
      9 N3          8.7520  -20.0790   21.6460 N.pl3     1 5I5        -0.2190
     10 I           7.4000  -23.3900   23.9530 I         1 5I5        -0.0795
     11 N4          8.4410  -24.6810   20.7050 N.pl3     1 5I5        -0.3158
     12 C7          8.0150  -16.4550   21.7470 C.3       1 5I5         0.1121
     13 C8          7.6100  -17.9290   21.5380 C.3       1 5I5         0.1382
     14 C9          8.9670  -18.6270   21.4660 C.3       1 5I5         0.1969
     15 O3          9.6500  -17.9920   22.5080 O.3       1 5I5        -0.3396
     16 C10         9.4020  -16.6020   22.4110 C.3       1 5I5         0.0878
     17 O2          8.1030  -15.8420   20.4740 O.3       1 5I5        -0.3865
     18 O1          6.7620  -18.0930   20.3650 O.3       1 5I5        -0.3836
     19 C11         9.4530  -15.9540   23.7960 C.3       1 5I5        -0.0360
     20 H1          9.9555  -21.9812   17.6650 H         1 5I5         0.0976
     21 H2          8.0142  -20.1585   23.6987 H         1 5I5         0.0985
     22 H3          8.0655  -24.8951   21.6399 H         1 5I5         0.1825
     23 H4          8.6017  -25.4406   20.0282 H         1 5I5         0.1825
     24 H5          7.3095  -15.9094   22.3909 H         1 5I5         0.0647
     25 H6          7.0510  -18.2993   22.4100 H         1 5I5         0.0676
     26 H7          9.4736  -18.4510   20.5056 H         1 5I5         0.0994
     27 H8         10.1648  -16.1304   21.7740 H         1 5I5         0.0621
     28 H9          7.2336  -15.7690   20.0982 H         1 5I5         0.2100
     29 H10         5.9445  -17.6278   20.4990 H         1 5I5         0.2101
     30 H11        10.4572  -16.0851   24.2254 H         1 5I5         0.0255
     31 H12         8.7090  -16.4304   24.4514 H         1 5I5         0.0255
     32 H13         9.2296  -14.8806   23.7071 H         1 5I5         0.0255
@<TRIPOS>BOND
     1    2    1 ar 
     2    6    1 ar 
     3    3    2 ar 
     4    2   11 1  
     5    4    3 ar 
     6    7    3 1  
     7    4    5 ar 
     8    9    4 1  
     9    5    6 ar 
    10    8    7 2  
    11    7   10 1  
    12    9    8 1  
    13   14    9 1  
    14   13   12 1  
    15   12   16 1  
    16   12   17 1  
    17   13   14 1  
    18   13   18 1  
    19   14   15 1  
    20   15   16 1  
    21   16   19 1  
    22    6   20 1  
    23    8   21 1  
    24   11   22 1  
    25   11   23 1  
    26   12   24 1  
    27   13   25 1  
    28   14   26 1  
    29   16   27 1  
    30   17   28 1  
    31   18   29 1  
    32   19   30 1  
    33   19   31 1  
    34   19   32 1  
@<TRIPOS>SUBSTRUCTURE
     1 5I5         1

