### 
### Created by X-TOOL on Mon Sep 10 21:12:56 2018
### 

@<TRIPOS>MOLECULE
2i6b_ligand
   54    57     1     0     0
SMALL
GAST_HUCK


@<TRIPOS>ATOM
      1 C1          5.4310   -2.7960   30.0430 C.ar      1 89I         0.0670
      2 N2          4.4190   -3.0710   29.2520 N.ar      1 89I        -0.2746
      3 C3          4.7550   -3.0830   27.9580 C.ar      1 89I         0.0994
      4 C4          5.9930   -2.8350   27.4290 C.ar      1 89I         0.0566
      5 C5          6.9530   -2.5590   28.3860 C.ar      1 89I         0.1319
      6 N6          6.6810   -2.5210   29.6860 N.ar      1 89I        -0.2561
      7 C8          6.2730   -2.9550   26.0070 C.ar      1 89I        -0.0227
      8 C9          6.2180   -4.2190   25.5030 C.ar      1 89I        -0.0650
      9 C10         6.4990   -4.4980   24.1820 C.ar      1 89I        -0.0427
     10 C11         6.8320   -3.5190   23.2900 C.ar      1 89I         0.0414
     11 C12         6.8550   -2.2340   23.7990 C.ar      1 89I        -0.0427
     12 C13         6.5930   -1.9570   25.1290 C.ar      1 89I        -0.0650
     13 C18         0.7700   -3.2230   25.0930 C.ar      1 89I         0.0143
     14 N19        -0.0470   -3.0390   24.0520 N.ar      1 89I        -0.2811
     15 C20         0.5830   -2.9290   22.8590 C.ar      1 89I         0.1162
     16 C21         1.9640   -2.9820   22.7140 C.ar      1 89I        -0.0132
     17 C22         2.7630   -3.1410   23.8310 C.ar      1 89I        -0.0366
     18 C23         2.1300   -3.2900   25.0350 C.ar      1 89I         0.0442
     19 C27         0.6130   -2.5050   20.4470 C.3       1 89I         0.0537
     20 C28        -0.2360   -2.9250   19.2490 C.3       1 89I         0.0679
     21 O29        -1.5580   -2.4180   19.4650 O.3       1 89I        -0.3758
     22 C30        -2.1700   -3.0110   20.5860 C.3       1 89I         0.0679
     23 C31        -1.5180   -2.4170   21.8120 C.3       1 89I         0.0537
     24 N32        -0.1540   -2.7770   21.6690 N.pl3     1 89I        -0.2885
     25 C41         3.7200   -3.3910   27.0540 C.1       1 89I        -0.0417
     26 C42         2.8540   -3.4130   26.1980 C.1       1 89I        -0.0533
     27 N43         7.1100   -3.9290   21.9500 N.pl3     1 89I        -0.3141
     28 C44         7.6530   -2.9050   21.0350 C.3       1 89I         0.0156
     29 C48         8.0330   -5.0450   22.1150 C.3       1 89I         0.0156
     30 N52         8.2440   -2.2920   27.9870 N.pl3     1 89I        -0.3143
     31 H1          5.2229   -2.7931   31.1068 H         1 89I         0.1053
     32 H2          5.9439   -5.0340   26.1631 H         1 89I         0.0589
     33 H3          6.4542   -5.5261   23.8412 H         1 89I         0.0521
     34 H4          7.0870   -1.4124   23.1310 H         1 89I         0.0521
     35 H5          6.6422   -0.9327   25.4804 H         1 89I         0.0589
     36 H6          0.3109   -3.3282   26.0693 H         1 89I         0.0809
     37 H7          2.4123   -2.8991   21.7305 H         1 89I         0.0616
     38 H8          3.8444   -3.1474   23.7563 H         1 89I         0.0721
     39 H9          0.8429   -1.4312   20.3827 H         1 89I         0.0544
     40 H10         1.5503   -3.0806   20.4596 H         1 89I         0.0544
     41 H11        -0.2616   -4.0220   19.1718 H         1 89I         0.0580
     42 H12         0.1828   -2.5020   18.3240 H         1 89I         0.0580
     43 H13        -2.0174   -4.1002   20.5675 H         1 89I         0.0580
     44 H14        -3.2479   -2.7917   20.5879 H         1 89I         0.0580
     45 H15        -1.9437   -2.8465   22.7308 H         1 89I         0.0544
     46 H16        -1.6362   -1.3235   21.8294 H         1 89I         0.0544
     47 H17         7.8201   -3.3509   20.0434 H         1 89I         0.0479
     48 H18         8.6064   -2.5268   21.4323 H         1 89I         0.0479
     49 H19         6.9369   -2.0746   20.9476 H         1 89I         0.0479
     50 H20         7.5949   -5.7847   22.8012 H         1 89I         0.0479
     51 H21         8.9828   -4.6770   22.5304 H         1 89I         0.0479
     52 H22         8.2178   -5.5155   21.1381 H         1 89I         0.0479
     53 H23         8.9679   -2.0850   28.6899 H         1 89I         0.1816
     54 H24         8.4855   -2.2993   26.9857 H         1 89I         0.1816
@<TRIPOS>BOND
     1    2    1 ar 
     2    1    6 ar 
     3    3    2 ar 
     4    3    4 ar 
     5   25    3 1  
     6    4    5 ar 
     7    4    7 1  
     8    5    6 ar 
     9    5   30 1  
    10    7    8 ar 
    11    7   12 ar 
    12    8    9 ar 
    13    9   10 ar 
    14   11   10 ar 
    15   10   27 1  
    16   12   11 ar 
    17   13   14 ar 
    18   18   13 ar 
    19   14   15 ar 
    20   16   15 ar 
    21   15   24 1  
    22   17   16 ar 
    23   18   17 ar 
    24   26   18 1  
    25   19   20 1  
    26   24   19 1  
    27   20   21 1  
    28   22   21 1  
    29   23   22 1  
    30   24   23 1  
    31   25   26 3  
    32   27   28 1  
    33   27   29 1  
    34    1   31 1  
    35    8   32 1  
    36    9   33 1  
    37   11   34 1  
    38   12   35 1  
    39   13   36 1  
    40   16   37 1  
    41   17   38 1  
    42   19   39 1  
    43   19   40 1  
    44   20   41 1  
    45   20   42 1  
    46   22   43 1  
    47   22   44 1  
    48   23   45 1  
    49   23   46 1  
    50   28   47 1  
    51   28   48 1  
    52   28   49 1  
    53   29   50 1  
    54   29   51 1  
    55   29   52 1  
    56   30   53 1  
    57   30   54 1  
@<TRIPOS>SUBSTRUCTURE
     1 89I         1

