### 
### Created by X-TOOL on Mon Sep 10 21:12:53 2018
### 

@<TRIPOS>MOLECULE
2i7c_ligand
   60    62     1     0     0
SMALL
GAST_HUCK


@<TRIPOS>ATOM
      1 N          12.9340  113.1580   32.2670 N.4       1 AAT         0.2250
      2 CA         12.2760  114.1620   31.4080 C.3       1 AAT        -0.0279
      3 CB         13.3360  114.6800   30.6750 C.2       1 AAT        -0.0543
      4 CG         13.6450  114.6990   29.3220 C.2       1 AAT        -0.0180
      5 SD         15.1650  115.4200   28.7920 S.3       1 AAT        -0.1107
      6 C5'        16.3750  115.0470   30.1310 C.3       1 AAT         0.0345
      7 C4'        17.8070  115.6890   29.9140 C.3       1 AAT         0.1015
      8 O4'        18.5280  115.4350   28.6660 O.3       1 AAT        -0.3381
      9 C3'        17.8270  117.2380   30.0410 C.3       1 AAT         0.1133
     10 O3'        18.1270  117.5520   31.3990 O.3       1 AAT        -0.3864
     11 C2'        18.9330  117.6690   29.0690 C.3       1 AAT         0.1385
     12 O2'        19.8660  118.6580   29.5850 O.3       1 AAT        -0.3836
     13 C1'        19.6660  116.3420   28.8060 C.3       1 AAT         0.2009
     14 N9         20.5290  116.3540   27.5840 N.pl3     1 AAT        -0.1919
     15 C8         20.2660  116.9640   26.4260 C.2       1 AAT         0.1123
     16 N7         21.2580  116.7570   25.5680 N.2       1 AAT        -0.2958
     17 C5         22.1680  115.9900   26.1770 C.ar      1 AAT         0.1045
     18 C6         23.3920  115.4500   25.7820 C.ar      1 AAT         0.1298
     19 N6         23.8770  115.6710   24.5530 N.pl3     1 AAT        -0.3152
     20 N1         24.0840  114.7090   26.6740 N.ar      1 AAT        -0.2698
     21 C2         23.6040  114.4860   27.8940 C.ar      1 AAT         0.0533
     22 N3         22.4370  114.9870   28.2990 N.ar      1 AAT        -0.2714
     23 C4         21.7010  115.7430   27.4560 C.ar      1 AAT         0.1613
     24 C11        12.6710  114.2370   28.2430 C.3       1 AAT        -0.0182
     25 C12        12.0470  115.5070   27.6060 C.3       1 AAT        -0.0437
     26 C13        11.3600  115.2180   26.2590 C.3       1 AAT        -0.0465
     27 C14        10.7960  116.4950   25.5860 C.3       1 AAT        -0.0125
     28 C15         9.6920  116.1550   24.5620 C.3       1 AAT        -0.0354
     29 N16         9.3640  117.3490   23.7650 N.4       1 AAT         0.2185
     30 H1         12.2444  112.7123   32.8516 H         1 AAT         0.2001
     31 H2         13.6232  113.6113   32.8463 H         1 AAT         0.2001
     32 H3         13.3837  112.4648   31.6897 H         1 AAT         0.2001
     33 H4         11.7918  114.9439   32.0115 H         1 AAT         0.0886
     34 H5         11.5304  113.6927   30.7493 H         1 AAT         0.0886
     35 H6         14.0829  115.1764   31.2928 H         1 AAT         0.0302
     36 H7         16.4931  113.9552   30.1941 H         1 AAT         0.0427
     37 H8         15.9673  115.4272   31.0793 H         1 AAT         0.0427
     38 H9         18.4251  115.2765   30.7251 H         1 AAT         0.0634
     39 H10        16.8630  117.6847   29.7560 H         1 AAT         0.0647
     40 H11        18.9745  117.1885   31.6271 H         1 AAT         0.2100
     41 H12        18.4860  118.0630   28.1444 H         1 AAT         0.0676
     42 H13        20.3031  118.3090   30.3529 H         1 AAT         0.2101
     43 H14        20.2893  116.0650   29.6690 H         1 AAT         0.0996
     44 H15        19.3697  117.5458   26.2160 H         1 AAT         0.1349
     45 H16        24.7824  115.2654   24.2760 H         1 AAT         0.1820
     46 H17        23.3445  116.2465   23.8850 H         1 AAT         0.1820
     47 H18        24.1803  113.8772   28.5812 H         1 AAT         0.0996
     48 H19        11.8821  113.6145   28.6903 H         1 AAT         0.0419
     49 H20        13.2061  113.6565   27.4771 H         1 AAT         0.0419
     50 H21        12.8441  116.2473   27.4431 H         1 AAT         0.0287
     51 H22        11.3004  115.9190   28.3008 H         1 AAT         0.0287
     52 H23        10.5308  114.5160   26.4309 H         1 AAT         0.0269
     53 H24        12.0947  114.7589   25.5812 H         1 AAT         0.0269
     54 H25        11.6142  117.0176   25.0689 H         1 AAT         0.0317
     55 H26        10.3741  117.1511   26.3616 H         1 AAT         0.0317
     56 H27         8.7924  115.8137   25.0951 H         1 AAT         0.0813
     57 H28        10.0473  115.3567   23.8939 H         1 AAT         0.0813
     58 H29         8.6430  117.1205   23.0987 H         1 AAT         0.1994
     59 H30        10.1872  117.6625   23.2750 H         1 AAT         0.1994
     60 H31         9.0372  118.0813   24.3757 H         1 AAT         0.1994
@<TRIPOS>BOND
     1    1    2 1  
     2    2    3 1  
     3    3    4 2  
     4    4    5 1  
     5    4   24 1  
     6    5    6 1  
     7    6    7 1  
     8    7    8 1  
     9    7    9 1  
    10    8   13 1  
    11    9   10 1  
    12    9   11 1  
    13   11   12 1  
    14   11   13 1  
    15   13   14 1  
    16   14   15 1  
    17   14   23 1  
    18   15   16 2  
    19   16   17 1  
    20   17   18 ar 
    21   17   23 ar 
    22   18   19 1  
    23   18   20 ar 
    24   20   21 ar 
    25   21   22 ar 
    26   22   23 ar 
    27   24   25 1  
    28   25   26 1  
    29   26   27 1  
    30   27   28 1  
    31   28   29 1  
    32    1   30 1  
    33    1   31 1  
    34    1   32 1  
    35    2   33 1  
    36    2   34 1  
    37    3   35 1  
    38    6   36 1  
    39    6   37 1  
    40    7   38 1  
    41    9   39 1  
    42   10   40 1  
    43   11   41 1  
    44   12   42 1  
    45   13   43 1  
    46   15   44 1  
    47   19   45 1  
    48   19   46 1  
    49   21   47 1  
    50   24   48 1  
    51   24   49 1  
    52   25   50 1  
    53   25   51 1  
    54   26   52 1  
    55   26   53 1  
    56   27   54 1  
    57   27   55 1  
    58   28   56 1  
    59   28   57 1  
    60   29   58 1  
    61   29   59 1  
    62   29   60 1  
@<TRIPOS>SUBSTRUCTURE
     1 AAT         1

