### 
### Created by X-TOOL on Sun Sep  9 21:50:24 2018
### 

@<TRIPOS>MOLECULE
2i80_ligand
   31    31     1     0     0
SMALL
GAST_HUCK


@<TRIPOS>ATOM
      1 F23        35.2990   -0.6100   25.9930 F         1 NON        -0.2441
      2 C20        34.8620    0.0310   24.9550 C.3       1 NON         0.3502
      3 F21        35.8440   -0.0780   24.0830 F         1 NON        -0.2441
      4 F22        33.8260   -0.5680   24.4860 F         1 NON        -0.2441
      5 C3         34.7170    1.4860   25.2660 C.ar      1 NON         0.0212
      6 C2         34.8970    2.3980   24.2630 C.ar      1 NON        -0.0436
      7 C1         34.8500    3.7460   24.5360 C.ar      1 NON        -0.0039
      8 C4         34.5230    1.9250   26.5580 C.ar      1 NON        -0.0436
      9 C5         34.4600    3.2690   26.8320 C.ar      1 NON        -0.0039
     10 C6         34.6050    4.2040   25.8240 C.ar      1 NON         0.1105
     11 N11        34.5510    5.5030   26.1680 N.am      1 NON        -0.2064
     12 C12        34.7650    6.4940   25.3320 C.2       1 NON         0.2468
     13 O18        34.9960    6.2400   24.1720 O.2       1 NON        -0.3227
     14 C13        34.6770    7.9720   25.6960 C.3       1 NON         0.0685
     15 C14        34.3720    8.3890   27.1510 C.3       1 NON        -0.0515
     16 C15        36.0180    8.5760   25.1800 C.3       1 NON        -0.0515
     17 C16        33.4970    8.4080   24.8830 C.3       1 NON         0.0351
     18 CL17       33.3260    7.5860   23.3390 Cl        1 NON        -0.1263
     19 H1         35.0773    2.0580   23.2496 H         1 NON         0.0803
     20 H2         35.0063    4.4597   23.7352 H         1 NON         0.0632
     21 H3         34.4196    1.2054   27.3621 H         1 NON         0.0803
     22 H4         34.2946    3.6008   27.8506 H         1 NON         0.0632
     23 H5         34.3348    5.7285   27.1180 H         1 NON         0.2494
     24 H6         34.3482    9.4865   27.2205 H         1 NON         0.0222
     25 H7         35.1547    7.9963   27.8167 H         1 NON         0.0222
     26 H8         33.3958    7.9813   27.4523 H         1 NON         0.0222
     27 H9         36.1912    8.2519   24.1432 H         1 NON         0.0222
     28 H10        36.8455    8.2283   25.8159 H         1 NON         0.0222
     29 H11        35.9638    9.6740   25.2167 H         1 NON         0.0222
     30 H12        33.5944    9.4862   24.6883 H         1 NON         0.0421
     31 H13        32.5871    8.2226   25.4726 H         1 NON         0.0421
@<TRIPOS>BOND
     1    1    2 1  
     2    2    3 1  
     3    2    4 1  
     4    2    5 1  
     5    5    6 ar 
     6    5    8 ar 
     7    6    7 ar 
     8    7   10 ar 
     9    8    9 ar 
    10    9   10 ar 
    11   10   11 1  
    12   11   12 am 
    13   12   13 2  
    14   12   14 1  
    15   14   15 1  
    16   14   16 1  
    17   14   17 1  
    18   17   18 1  
    19    6   19 1  
    20    7   20 1  
    21    8   21 1  
    22    9   22 1  
    23   11   23 1  
    24   15   24 1  
    25   15   25 1  
    26   15   26 1  
    27   16   27 1  
    28   16   28 1  
    29   16   29 1  
    30   17   30 1  
    31   17   31 1  
@<TRIPOS>SUBSTRUCTURE
     1 NON         1

