### 
### Created by X-TOOL on Mon Sep 10 21:12:54 2018
### 

@<TRIPOS>MOLECULE
2ica_ligand
   57    61     1     0     0
SMALL
GAST_HUCK


@<TRIPOS>ATOM
      1 C2         -5.9170   -0.3460   28.3750 C.ar      1 2IC         0.0298
      2 C3         -5.3870   -0.1250   29.6500 C.ar      1 2IC        -0.0474
      3 C8         -7.8190    1.1030   28.8260 C.ar      1 2IC         0.0978
      4 C9         -7.1200    0.2360   27.9440 C.ar      1 2IC        -0.0214
      5 C12       -10.1350    1.7020   29.1900 C.2       1 2IC         0.3194
      6 C14       -10.7030    2.5370   27.0990 C.3       1 2IC         0.2040
      7 C15       -10.9490    3.9460   26.5410 C.3       1 2IC         0.0074
      8 N18       -11.7360    3.7710   25.2940 N.4       1 2IC         0.2520
      9 C19       -11.4780    2.4260   24.8100 C.3       1 2IC        -0.0148
     10 C22       -11.3600    1.6130   26.0770 C.3       1 2IC         0.0758
     11 C24       -10.8010    0.2210   25.9750 C.ar      1 2IC        -0.0239
     12 C27       -10.8020   -2.0610   26.8730 C.ar      1 2IC        -0.0334
     13 C30        -9.1710   -1.4240   25.1750 C.ar      1 2IC        -0.0334
     14 C32        -9.7220   -0.1330   25.1160 C.ar      1 2IC        -0.0483
     15 C34        -9.1980   -3.7090   26.0550 C.1       1 2IC         0.0934
     16 CL1        -5.0550   -1.4000   27.3100 Cl        1 2IC        -0.0743
     17 C5         -6.1080    0.7090   30.5060 C.ar      1 2IC         0.0298
     18 C6         -7.2970    1.3340   30.1120 C.ar      1 2IC        -0.0214
     19 N11        -8.9920    1.6820   28.4480 N.am      1 2IC        -0.1152
     20 N13       -11.1120    2.2600   28.4660 N.am      1 2IC        -0.2342
     21 C25       -11.3580   -0.7730   26.8130 C.ar      1 2IC        -0.0483
     22 C29        -9.7150   -2.3790   26.0470 C.ar      1 2IC         0.0883
     23 N35        -8.8040   -4.7980   26.0330 N.1       1 2IC        -0.3338
     24 C36       -11.4910    4.6370   24.1370 C.3       1 2IC         0.0139
     25 C39       -12.1830    5.9530   24.2900 C.2       1 2IC         0.0591
     26 S40       -11.3500    7.2220   25.1550 S.3       1 2IC        -0.0316
     27 C41       -12.7530    8.2560   25.0140 C.2       1 2IC        -0.0007
     28 C43       -13.6670    7.7260   24.1900 C.2       1 2IC        -0.0189
     29 C44       -13.3550    6.3550   23.7660 C.2       1 2IC        -0.0635
     30 C46       -14.8570    8.4870   23.7440 C.2       1 2IC         0.0446
     31 O47       -15.6030    7.9730   22.8830 O.co2     1 2IC        -0.5664
     32 O48       -15.0660    9.6200   24.2290 O.co2     1 2IC        -0.5664
     33 C50        -9.2020    2.2330   27.2230 C.2       1 2IC         0.2863
     34 O51        -8.3850    2.4670   26.3330 O.2       1 2IC        -0.3227
     35 C52       -12.4870    2.4400   28.9310 C.3       1 2IC         0.0236
     36 O56       -10.2820    1.2740   30.3330 O.2       1 2IC        -0.3820
     37 CL57       -5.5300    0.9450   32.1050 Cl        1 2IC        -0.0743
     38 H1         -4.4547   -0.5825   29.9607 H         1 2IC         0.0515
     39 H2         -7.5091    0.0271   26.9541 H         1 2IC         0.0529
     40 H3         -9.9915    4.4405   26.3204 H         1 2IC         0.0826
     41 H4        -11.5146    4.5492   27.2664 H         1 2IC         0.0826
     42 H5        -12.7077    3.8692   25.5435 H         1 2IC         0.2051
     43 H6        -10.5438    2.3889   24.2305 H         1 2IC         0.0843
     44 H7        -12.3102    2.0656   24.1875 H         1 2IC         0.0843
     45 H8        -12.3906    1.4548   26.4274 H         1 2IC         0.0548
     46 H9        -11.2093   -2.8020   27.5513 H         1 2IC         0.0701
     47 H10        -8.3259   -1.6821   24.5471 H         1 2IC         0.0701
     48 H11        -9.3256    0.5939   24.4163 H         1 2IC         0.0583
     49 H12        -7.8151    1.9953   30.7970 H         1 2IC         0.0529
     50 H13       -12.2264   -0.5372   27.4175 H         1 2IC         0.0583
     51 H14       -11.8646    4.1386   23.2304 H         1 2IC         0.1007
     52 H15       -10.4089    4.8098   24.0410 H         1 2IC         0.1007
     53 H16       -12.8690    9.2082   25.5296 H         1 2IC         0.0678
     54 H17       -13.9850    5.7480   23.1174 H         1 2IC         0.0292
     55 H18       -12.5528    2.1684   29.9949 H         1 2IC         0.0483
     56 H19       -13.1593    1.7954   28.3458 H         1 2IC         0.0483
     57 H20       -12.7830    3.4915   28.8021 H         1 2IC         0.0483
@<TRIPOS>BOND
     1    1    2 ar 
     2    4    1 ar 
     3    1   16 1  
     4    2   17 ar 
     5    3    4 ar 
     6    3   18 ar 
     7   19    3 1  
     8    5   19 am 
     9   20    5 am 
    10    5   36 2  
    11    6    7 1  
    12    6   10 1  
    13    6   20 1  
    14    6   33 1  
    15    7    8 1  
    16    8    9 1  
    17    8   24 1  
    18    9   10 1  
    19   10   11 1  
    20   11   14 ar 
    21   11   21 ar 
    22   21   12 ar 
    23   12   22 ar 
    24   14   13 ar 
    25   13   22 ar 
    26   22   15 1  
    27   15   23 3  
    28   17   18 ar 
    29   17   37 1  
    30   19   33 am 
    31   20   35 1  
    32   24   25 1  
    33   25   26 1  
    34   25   29 2  
    35   26   27 1  
    36   27   28 2  
    37   28   29 1  
    38   28   30 1  
    39   30   31 ar 
    40   30   32 ar 
    41   33   34 2  
    42    2   38 1  
    43    4   39 1  
    44    7   40 1  
    45    7   41 1  
    46    8   42 1  
    47    9   43 1  
    48    9   44 1  
    49   10   45 1  
    50   12   46 1  
    51   13   47 1  
    52   14   48 1  
    53   18   49 1  
    54   21   50 1  
    55   24   51 1  
    56   24   52 1  
    57   27   53 1  
    58   29   54 1  
    59   35   55 1  
    60   35   56 1  
    61   35   57 1  
@<TRIPOS>SUBSTRUCTURE
     1 2IC         1

