### 
### Created by X-TOOL on Mon Sep 10 21:12:55 2018
### 

@<TRIPOS>MOLECULE
2idk_ligand
   57    59     1     0     0
SMALL
GAST_HUCK


@<TRIPOS>ATOM
      1 N1          7.4540  -23.7380   20.3090 N.pl3     1 C2F        -0.2066
      2 C2          6.9230  -23.2360   21.4200 C.cat     1 C2F         0.1927
      3 NA2         5.8930  -23.8970   22.0460 N.pl3     1 C2F        -0.3360
      4 N3          7.3960  -22.0560   21.9510 N.am      1 C2F        -0.2490
      5 C4          8.4280  -21.3590   21.3520 C.2       1 C2F         0.2792
      6 O4          8.8160  -20.3200   21.8520 O.2       1 C2F        -0.3607
      7 C4A         9.0170  -21.8790   20.1520 C.2       1 C2F         0.2842
      8 N5         10.1320  -21.2220   19.4180 N.pl3     1 C2F        -0.2434
      9 C6         10.6950  -21.8850   18.1480 C.3       1 C2F         0.1042
     10 C7         10.4380  -23.4020   18.2870 C.3       1 C2F         0.0792
     11 N8          9.0180  -23.6340   18.5220 N.pl3     1 C2F        -0.2367
     12 C8A         8.4800  -23.1010   19.6630 C.2       1 C2F         0.2982
     13 C9         12.2310  -21.7180   18.0210 C.3       1 C2F         0.0553
     14 N10        12.6740  -20.3160   17.8170 N.pl3     1 C2F        -0.3171
     15 C11        10.7030  -19.9330   19.8930 C.3       1 C2F         0.0393
     16 C12        16.8000  -19.3870   17.5890 C.ar      1 C2F         0.0362
     17 C13        15.8330  -18.3540   17.4460 C.ar      1 C2F        -0.0535
     18 C14        14.4630  -18.6630   17.5220 C.ar      1 C2F        -0.0382
     19 C15        14.0440  -20.0060   17.7320 C.ar      1 C2F         0.0433
     20 C16        15.0160  -21.0350   17.8650 C.ar      1 C2F        -0.0382
     21 C17        16.3630  -20.7310   17.7950 C.ar      1 C2F        -0.0535
     22 C          18.2680  -19.1330   17.5330 C.2       1 C2F         0.1968
     23 O          18.7180  -18.0150   17.3590 O.2       1 C2F        -0.3908
     24 N          19.0400  -20.2470   17.6960 N.am      1 C2F        -0.2725
     25 CA         20.5190  -20.5440   17.7220 C.3       1 C2F         0.0951
     26 CB         21.5010  -19.5280   18.3930 C.3       1 C2F        -0.0064
     27 CG         21.6340  -18.1520   17.7290 C.3       1 C2F         0.0038
     28 CD         22.6260  -17.2860   18.5120 C.2       1 C2F         0.0350
     29 OE1        23.1770  -17.7050   19.5110 O.co2     1 C2F        -0.5690
     30 OE2        22.8950  -16.0360   18.0920 O.co2     1 C2F        -0.5690
     31 CT         20.5780  -21.8520   18.4630 C.2       1 C2F         0.0601
     32 O1         21.6070  -22.5140   18.4790 O.co2     1 C2F        -0.5666
     33 O2         19.4680  -22.2930   19.1110 O.co2     1 C2F        -0.5666
     34 H1          7.0872  -24.6216   19.9275 H         1 C2F         0.2372
     35 H2          5.4803  -23.5099   22.9066 H         1 C2F         0.1756
     36 H3          5.5339  -24.7794   21.6544 H         1 C2F         0.1756
     37 H4          6.9836  -21.6961   22.7879 H         1 C2F         0.1817
     38 H5         10.1957  -21.4755   17.2575 H         1 C2F         0.0666
     39 H6         11.0191  -23.7965   19.1336 H         1 C2F         0.0603
     40 H7         10.7449  -23.9123   17.3621 H         1 C2F         0.0603
     41 H8          8.4446  -24.1750   17.8590 H         1 C2F         0.2197
     42 H9         12.5738  -22.3166   17.1641 H         1 C2F         0.0543
     43 H10        12.6969  -22.0967   18.9427 H         1 C2F         0.0543
     44 H11        11.9738  -19.5649   17.7371 H         1 C2F         0.1776
     45 H12        10.1793  -19.6144   20.8064 H         1 C2F         0.0549
     46 H13        10.5787  -19.1673   19.1131 H         1 C2F         0.0549
     47 H14        11.7732  -20.0641   20.1108 H         1 C2F         0.0549
     48 H15        16.1510  -17.3312   17.2789 H         1 C2F         0.0636
     49 H16        13.7247  -17.8758   17.4203 H         1 C2F         0.0530
     50 H17        14.7004  -22.0601   18.0216 H         1 C2F         0.0530
     51 H18        17.0964  -21.5226   17.8977 H         1 C2F         0.0636
     52 H19        18.4886  -21.0701   17.8318 H         1 C2F         0.1864
     53 H20        20.8586  -20.6781   16.6844 H         1 C2F         0.0726
     54 H21        22.4996  -19.9892   18.4053 H         1 C2F         0.0323
     55 H22        21.1586  -19.3671   19.4259 H         1 C2F         0.0323
     56 H23        20.6514  -17.6579   17.7148 H         1 C2F         0.0432
     57 H24        21.9958  -18.2785   16.6979 H         1 C2F         0.0432
@<TRIPOS>BOND
     1    1    2 ar 
     2   12    1 1  
     3    2    3 ar 
     4    4    2 ar 
     5    5    4 am 
     6    5    6 2  
     7    7    5 1  
     8    8    7 1  
     9    7   12 2  
    10    9    8 1  
    11    8   15 1  
    12    9   10 1  
    13   13    9 1  
    14   10   11 1  
    15   11   12 1  
    16   14   13 1  
    17   19   14 1  
    18   17   16 ar 
    19   16   21 ar 
    20   16   22 1  
    21   18   17 ar 
    22   18   19 ar 
    23   19   20 ar 
    24   20   21 ar 
    25   22   23 2  
    26   22   24 am 
    27   24   25 1  
    28   25   26 1  
    29   25   31 1  
    30   26   27 1  
    31   27   28 1  
    32   28   29 ar 
    33   28   30 ar 
    34   31   32 ar 
    35   31   33 ar 
    36    1   34 1  
    37    3   35 1  
    38    3   36 1  
    39    4   37 1  
    40    9   38 1  
    41   10   39 1  
    42   10   40 1  
    43   11   41 1  
    44   13   42 1  
    45   13   43 1  
    46   14   44 1  
    47   15   45 1  
    48   15   46 1  
    49   15   47 1  
    50   17   48 1  
    51   18   49 1  
    52   20   50 1  
    53   21   51 1  
    54   24   52 1  
    55   25   53 1  
    56   26   54 1  
    57   26   55 1  
    58   27   56 1  
    59   27   57 1  
@<TRIPOS>SUBSTRUCTURE
     1 C2F         1

