### 
### Created by X-TOOL on Mon Sep 10 21:12:53 2018
### 

@<TRIPOS>MOLECULE
2idw_ligand
   75    78     1     0     0
SMALL
GAST_HUCK


@<TRIPOS>ATOM
      1 N1         15.3690   36.5220   17.9520 N.pl3     1 017        -0.3369
      2 C2         15.9710   35.5180   17.2530 C.ar      1 017         0.0353
      3 C3         15.5780   34.1640   17.3890 C.ar      1 017        -0.0429
      4 C4         16.2710   33.1730   16.6660 C.ar      1 017        -0.0471
      5 C5         17.3250   33.5760   15.8080 C.ar      1 017         0.0949
      6 C6         17.7210   34.8920   15.7080 C.ar      1 017        -0.0471
      7 C7         17.0080   35.8800   16.3990 C.ar      1 017        -0.0429
      8 S8         18.3100   32.3420   14.8990 S.o2      1 017         0.0648
      9 O9         17.4960   31.2130   14.4070 O.2       1 017        -0.1518
     10 O10        19.0020   33.1840   13.9170 O.2       1 017        -0.1518
     11 N11        19.5470   31.7050   15.8720 N.am      1 017        -0.2327
     12 C12        20.3850   32.7190   16.5390 C.3       1 017         0.0319
     13 C13        21.8640   32.3260   16.5690 C.3       1 017        -0.0296
     14 C14        22.4090   32.2810   15.1420 C.3       1 017        -0.0612
     15 C15        22.5990   33.3500   17.4220 C.3       1 017        -0.0612
     16 C16        19.2170   30.4480   16.6290 C.3       1 017         0.0578
     17 C17        20.0820   29.3110   16.0150 C.3       1 017         0.0967
     18 O18        19.9920   28.1990   16.9290 O.3       1 017        -0.3877
     19 C19        19.6830   28.8680   14.6060 C.3       1 017         0.0807
     20 N20        20.6790   27.9400   14.0990 N.am      1 017        -0.2550
     21 C21        21.5310   28.2870   13.1310 C.2       1 017         0.3203
     22 O22        21.6160   29.3430   12.5260 O.2       1 017        -0.3775
     23 O23        22.3860   27.2350   12.8840 O.3       1 017        -0.2578
     24 C24        23.2070   27.3160   11.7000 C.3       1 017         0.1189
     25 C25        24.5260   26.6250   12.0470 C.3       1 017         0.0815
     26 O26        24.2540   25.2370   11.9650 O.3       1 017        -0.3480
     27 C27        23.2570   25.0460   10.9730 C.3       1 017         0.1648
     28 O28        22.2290   24.2290   11.5270 O.3       1 017        -0.3509
     29 C29        20.9860   24.9640   11.5690 C.3       1 017         0.0512
     30 C30        21.1760   26.1630   10.6050 C.3       1 017        -0.0191
     31 C31        22.6530   26.3780   10.6130 C.3       1 017         0.0449
     32 C32        18.3040   28.1780   14.5230 C.3       1 017         0.0064
     33 C33        17.8700   26.3610   12.8110 C.ar      1 017        -0.0603
     34 C34        17.5890   25.9580   11.5090 C.ar      1 017        -0.0686
     35 C35        17.4630   26.8810   10.4860 C.ar      1 017        -0.0687
     36 C36        17.5580   28.2440   10.8030 C.ar      1 017        -0.0686
     37 C37        17.8340   28.6820   12.0820 C.ar      1 017        -0.0603
     38 C38        17.9850   27.7310   13.1140 C.ar      1 017        -0.0408
     39 H1         14.5959   36.3080   18.5981 H         1 017         0.1719
     40 H2         15.6874   37.4944   17.8340 H         1 017         0.1719
     41 H3         14.7550   33.8938   18.0407 H         1 017         0.0515
     42 H4         16.0044   32.1268   16.7636 H         1 017         0.0602
     43 H5         18.5771   35.1604   15.0997 H         1 017         0.0602
     44 H6         17.2638   36.9253   16.2686 H         1 017         0.0515
     45 H7         20.0318   32.8444   17.5732 H         1 017         0.0480
     46 H8         20.2837   33.6719   15.9988 H         1 017         0.0480
     47 H9         21.9737   31.3303   17.0235 H         1 017         0.0311
     48 H10        23.4719   31.9985   15.1642 H         1 017         0.0233
     49 H11        22.3028   33.2724   14.6775 H         1 017         0.0233
     50 H12        21.8448   31.5396   14.5572 H         1 017         0.0233
     51 H13        22.1777   33.3509   18.4381 H         1 017         0.0233
     52 H14        22.4836   34.3491   16.9764 H         1 017         0.0233
     53 H15        23.6669   33.0902   17.4680 H         1 017         0.0233
     54 H16        18.1484   30.2107   16.5208 H         1 017         0.0504
     55 H17        19.4587   30.5737   17.6947 H         1 017         0.0504
     56 H18        21.1243   29.6595   15.9682 H         1 017         0.0634
     57 H19        19.0842   27.9316   17.0122 H         1 017         0.2100
     58 H20        19.6593   29.7607   13.9638 H         1 017         0.0604
     59 H21        20.7278   27.0185   14.4844 H         1 017         0.1873
     60 H22        23.3275   28.3526   11.3522 H         1 017         0.0675
     61 H23        24.8467   26.8953   13.0639 H         1 017         0.0590
     62 H24        25.3095   26.9071   11.3283 H         1 017         0.0590
     63 H25        23.6911   24.5695   10.0817 H         1 017         0.0913
     64 H26        20.7855   25.3207   12.5900 H         1 017         0.0561
     65 H27        20.1533   24.3291   11.2322 H         1 017         0.0561
     66 H28        20.6461   27.0534   10.9741 H         1 017         0.0293
     67 H29        20.8190   25.9166    9.5942 H         1 017         0.0293
     68 H30        22.9760   26.7248    9.6204 H         1 017         0.0380
     69 H31        17.5307   28.8860   14.8558 H         1 017         0.0449
     70 H32        18.3051   27.2988   15.1840 H         1 017         0.0449
     71 H33        18.0003   25.6203   13.5916 H         1 017         0.0557
     72 H34        17.4667   24.9029   11.2926 H         1 017         0.0599
     73 H35        17.2950   26.5587    9.4647 H         1 017         0.0559
     74 H36        17.4098   28.9768   10.0180 H         1 017         0.0599
     75 H37        17.9334   29.7410   12.2912 H         1 017         0.0557
@<TRIPOS>BOND
     1    2    1 1  
     2    3    2 ar 
     3    7    2 ar 
     4    4    3 ar 
     5    5    4 ar 
     6    5    6 ar 
     7    8    5 1  
     8    6    7 ar 
     9    8    9 2  
    10    8   10 2  
    11   11    8 am 
    12   11   12 1  
    13   16   11 1  
    14   12   13 1  
    15   13   14 1  
    16   13   15 1  
    17   17   16 1  
    18   17   18 1  
    19   19   17 1  
    20   19   20 1  
    21   32   19 1  
    22   20   21 am 
    23   21   22 2  
    24   21   23 1  
    25   23   24 1  
    26   24   25 1  
    27   24   31 1  
    28   25   26 1  
    29   27   26 1  
    30   27   28 1  
    31   31   27 1  
    32   29   28 1  
    33   30   29 1  
    34   31   30 1  
    35   38   32 1  
    36   33   34 ar 
    37   33   38 ar 
    38   34   35 ar 
    39   35   36 ar 
    40   36   37 ar 
    41   37   38 ar 
    42    1   39 1  
    43    1   40 1  
    44    3   41 1  
    45    4   42 1  
    46    6   43 1  
    47    7   44 1  
    48   12   45 1  
    49   12   46 1  
    50   13   47 1  
    51   14   48 1  
    52   14   49 1  
    53   14   50 1  
    54   15   51 1  
    55   15   52 1  
    56   15   53 1  
    57   16   54 1  
    58   16   55 1  
    59   17   56 1  
    60   18   57 1  
    61   19   58 1  
    62   20   59 1  
    63   24   60 1  
    64   25   61 1  
    65   25   62 1  
    66   27   63 1  
    67   29   64 1  
    68   29   65 1  
    69   30   66 1  
    70   30   67 1  
    71   31   68 1  
    72   32   69 1  
    73   32   70 1  
    74   33   71 1  
    75   34   72 1  
    76   35   73 1  
    77   36   74 1  
    78   37   75 1  
@<TRIPOS>SUBSTRUCTURE
     1 017         1

