### 
### Created by X-TOOL on Mon Sep 10 21:12:55 2018
### 

@<TRIPOS>MOLECULE
2ie4_ligand
  124   130     1     0     0
SMALL
GAST_HUCK


@<TRIPOS>ATOM
      1 C1         35.6590  -44.6880  -39.3530 C.2       1 OKA         0.0761
      2 C2         34.7600  -43.5790  -38.7960 C.3       1 OKA         0.1097
      3 C3         33.3300  -44.1080  -38.6610 C.3       1 OKA         0.0053
      4 C4         33.2740  -45.3800  -37.8080 C.3       1 OKA         0.0447
      5 C5         31.7970  -45.7530  -37.6660 C.3       1 OKA        -0.0270
      6 C6         31.6540  -46.9740  -36.7580 C.3       1 OKA        -0.0339
      7 C7         32.2990  -46.6690  -35.4070 C.3       1 OKA         0.0604
      8 C8         33.7500  -46.2140  -35.5820 C.3       1 OKA         0.1391
      9 C9         34.1700  -45.7170  -34.3540 C.2       1 OKA        -0.0395
     10 C10        35.3960  -46.0520  -33.7910 C.2       1 OKA         0.0097
     11 C11        36.3390  -47.0050  -34.5240 C.3       1 OKA         0.0560
     12 C12        35.9230  -47.1490  -35.9890 C.3       1 OKA         0.0782
     13 C13        36.6630  -48.3700  -36.5450 C.3       1 OKA         0.0022
     14 C14        36.3180  -48.6250  -38.0140 C.2       1 OKA        -0.0907
     15 C15        34.9990  -48.8870  -38.3730 C.2       1 OKA        -0.0699
     16 C16        34.5970  -49.1210  -39.6810 C.3       1 OKA         0.0795
     17 C17        35.1400  -50.4110  -40.3070 C.3       1 OKA        -0.0148
     18 C18        33.9320  -50.9990  -41.0450 C.3       1 OKA         0.0055
     19 C19        32.9210  -49.8550  -40.9590 C.3       1 OKA         0.1734
     20 C20        31.4580  -50.2950  -41.0300 C.3       1 OKA         0.0040
     21 C21        30.5930  -49.0660  -40.7410 C.3       1 OKA        -0.0187
     22 C22        30.9390  -47.9160  -41.6920 C.3       1 OKA         0.0933
     23 C23        32.4420  -47.6730  -41.7140 C.3       1 OKA         0.1258
     24 C24        32.7180  -46.6560  -42.8230 C.3       1 OKA         0.1212
     25 C25        31.9320  -45.4000  -42.4520 C.2       1 OKA        -0.0118
     26 C26        30.4600  -45.5740  -42.0770 C.3       1 OKA         0.1222
     27 C27        29.6650  -45.7410  -43.3720 C.3       1 OKA         0.0935
     28 C28        29.7310  -44.4570  -44.2040 C.3       1 OKA        -0.0172
     29 C29        28.9490  -44.5750  -45.5150 C.3       1 OKA        -0.0146
     30 C30        29.1910  -43.3520  -46.4050 C.3       1 OKA         0.0671
     31 C31        28.9110  -42.0650  -45.6270 C.3       1 OKA        -0.0170
     32 C32        29.1370  -40.8560  -46.5360 C.3       1 OKA        -0.0432
     33 C33        28.2670  -41.0010  -47.7850 C.3       1 OKA         0.0017
     34 C34        28.5760  -42.3310  -48.4740 C.3       1 OKA         0.1703
     35 C35        27.6600  -42.4950  -49.6900 C.3       1 OKA         0.0015
     36 C36        27.9720  -43.8070  -50.4120 C.3       1 OKA        -0.0461
     37 C37        29.4570  -43.8290  -50.7780 C.3       1 OKA        -0.0292
     38 C38        30.2990  -43.5740  -49.5250 C.3       1 OKA         0.0509
     39 C39        27.4820  -42.0760  -45.0790 C.3       1 OKA        -0.0601
     40 C40        29.3330  -45.8520  -46.2680 C.3       1 OKA        -0.0600
     41 C41        32.5400  -44.1490  -42.4520 C.2       1 OKA        -0.1239
     42 C42        38.1760  -48.1920  -36.4040 C.3       1 OKA        -0.0531
     43 C43        35.7890  -45.4570  -32.4380 C.3       1 OKA         0.0182
     44 C44        34.7750  -42.3800  -39.7470 C.3       1 OKA        -0.0312
     45 O1         36.5290  -45.1530  -38.5870 O.co2     1 OKA        -0.5451
     46 O2         35.4560  -45.0500  -40.5320 O.co2     1 OKA        -0.5451
     47 O3         35.2570  -43.1860  -37.5130 O.3       1 OKA        -0.3851
     48 O4         33.8540  -45.1330  -36.5180 O.3       1 OKA        -0.4173
     49 O5         32.3160  -47.8700  -34.6310 O.3       1 OKA        -0.4027
     50 O6         34.5030  -47.3540  -36.0150 O.3       1 OKA        -0.4110
     51 O7         33.1760  -49.3290  -39.6580 O.3       1 OKA        -0.3362
     52 O8         33.2070  -48.8650  -41.9500 O.3       1 OKA        -0.3376
     53 O9         30.2630  -46.7290  -41.2400 O.3       1 OKA        -0.3528
     54 O10        34.1150  -46.3640  -42.8980 O.3       1 OKA        -0.3738
     55 O11        28.3160  -46.0780  -43.0400 O.3       1 OKA        -0.3867
     56 O12        28.3460  -43.4140  -47.5640 O.3       1 OKA        -0.3449
     57 O13        29.9410  -42.3260  -48.9090 O.3       1 OKA        -0.3486
     58 H1         32.9373  -44.3336  -39.6634 H         1 OKA         0.0310
     59 H2         32.7069  -43.3344  -38.1886 H         1 OKA         0.0310
     60 H3         33.8222  -46.1936  -38.3054 H         1 OKA         0.0579
     61 H4         31.3825  -45.9856  -38.6580 H         1 OKA         0.0290
     62 H5         31.2475  -44.9066  -37.2283 H         1 OKA         0.0290
     63 H6         32.1558  -47.8373  -37.2194 H         1 OKA         0.0278
     64 H7         30.5879  -47.2034  -36.6140 H         1 OKA         0.0278
     65 H8         31.7225  -45.8877  -34.8900 H         1 OKA         0.0465
     66 H9         33.5130  -45.0386  -33.8117 H         1 OKA         0.0430
     67 H10        36.3049  -47.9919  -34.0394 H         1 OKA         0.0713
     68 H11        37.3638  -46.6082  -34.4761 H         1 OKA         0.0713
     69 H12        36.1868  -46.2490  -36.5638 H         1 OKA         0.0659
     70 H13        36.3575  -49.2500  -35.9600 H         1 OKA         0.0449
     71 H14        37.0987  -48.6016  -38.7728 H         1 OKA         0.0454
     72 H15        34.2443  -48.9096  -37.5882 H         1 OKA         0.0475
     73 H16        34.8699  -48.2571  -40.3048 H         1 OKA         0.0722
     74 H17        35.4985  -51.1023  -39.5302 H         1 OKA         0.0311
     75 H18        35.9583  -50.1914  -41.0085 H         1 OKA         0.0311
     76 H19        33.5571  -51.9026  -40.5421 H         1 OKA         0.0319
     77 H20        34.1788  -51.2368  -42.0902 H         1 OKA         0.0319
     78 H21        31.2638  -51.0756  -40.2797 H         1 OKA         0.0318
     79 H22        31.2317  -50.6859  -42.0330 H         1 OKA         0.0318
     80 H23        30.7656  -48.7401  -39.7047 H         1 OKA         0.0293
     81 H24        29.5337  -49.3331  -40.8699 H         1 OKA         0.0293
     82 H25        30.5998  -48.1682  -42.7075 H         1 OKA         0.0627
     83 H26        32.7475  -47.2525  -40.7446 H         1 OKA         0.0677
     84 H27        32.3746  -47.0476  -43.7919 H         1 OKA         0.0820
     85 H28        30.1123  -44.6790  -41.5402 H         1 OKA         0.0822
     86 H29        30.1024  -46.5617  -43.9595 H         1 OKA         0.0647
     87 H30        30.7838  -44.2405  -44.4381 H         1 OKA         0.0296
     88 H31        29.3092  -43.6304  -43.6134 H         1 OKA         0.0296
     89 H32        27.8769  -44.6230  -45.2734 H         1 OKA         0.0324
     90 H33        30.2422  -43.3506  -46.7290 H         1 OKA         0.0602
     91 H34        29.6099  -42.0041  -44.7797 H         1 OKA         0.0323
     92 H35        30.1963  -40.8076  -46.8284 H         1 OKA         0.0270
     93 H36        28.8620  -39.9355  -46.0002 H         1 OKA         0.0270
     94 H37        28.4788  -40.1725  -48.4769 H         1 OKA         0.0317
     95 H38        27.2057  -40.9760  -47.4968 H         1 OKA         0.0317
     96 H39        27.8183  -41.6535  -50.3805 H         1 OKA         0.0317
     97 H40        26.6117  -42.5038  -49.3569 H         1 OKA         0.0317
     98 H41        27.3651  -43.8788  -51.3266 H         1 OKA         0.0268
     99 H42        27.7417  -44.6560  -49.7515 H         1 OKA         0.0268
    100 H43        29.6622  -43.0456  -51.5224 H         1 OKA         0.0287
    101 H44        29.7157  -44.8118  -51.1990 H         1 OKA         0.0287
    102 H45        31.3621  -43.5445  -49.8059 H         1 OKA         0.0561
    103 H46        30.1319  -44.3904  -48.8070 H         1 OKA         0.0561
    104 H47        27.3451  -42.9533  -44.4297 H         1 OKA         0.0233
    105 H48        26.7690  -42.1240  -45.9152 H         1 OKA         0.0233
    106 H49        27.3049  -41.1588  -44.4982 H         1 OKA         0.0233
    107 H50        29.1565  -46.7252  -45.6228 H         1 OKA         0.0233
    108 H51        30.3970  -45.8091  -46.5439 H         1 OKA         0.0233
    109 H52        28.7213  -45.9390  -47.1781 H         1 OKA         0.0233
    110 H53        33.5904  -44.0541  -42.7234 H         1 OKA         0.0077
    111 H54        31.9657  -43.2645  -42.1806 H         1 OKA         0.0077
    112 H55        38.6886  -49.0774  -36.8081 H         1 OKA         0.0253
    113 H56        38.4337  -48.0723  -35.3413 H         1 OKA         0.0253
    114 H57        38.4936  -47.2984  -36.9612 H         1 OKA         0.0253
    115 H58        34.9826  -44.8014  -32.0776 H         1 OKA         0.0651
    116 H59        36.7143  -44.8727  -32.5492 H         1 OKA         0.0651
    117 H60        35.9527  -46.2688  -31.7140 H         1 OKA         0.0651
    118 H61        35.8032  -42.0010  -39.8430 H         1 OKA         0.0249
    119 H62        34.1275  -41.5861  -39.3464 H         1 OKA         0.0249
    120 H63        34.4052  -42.6911  -40.7352 H         1 OKA         0.0249
    121 H64        35.2535  -43.9360  -36.9300 H         1 OKA         0.2089
    122 H65        32.8198  -48.5336  -35.0875 H         1 OKA         0.2080
    123 H66        34.4168  -46.0468  -42.0549 H         1 OKA         0.2138
    124 H67        28.3077  -46.8765  -42.5254 H         1 OKA         0.2102
@<TRIPOS>BOND
     1    1    2 1  
     2    1   45 ar 
     3    1   46 ar 
     4    2    3 1  
     5    2   44 1  
     6    2   47 1  
     7    3    4 1  
     8    4    5 1  
     9    4   48 1  
    10    5    6 1  
    11    6    7 1  
    12    7    8 1  
    13    7   49 1  
    14    8    9 1  
    15    8   48 1  
    16    8   50 1  
    17    9   10 2  
    18   10   11 1  
    19   10   43 1  
    20   11   12 1  
    21   12   13 1  
    22   12   50 1  
    23   13   14 1  
    24   13   42 1  
    25   14   15 2  
    26   15   16 1  
    27   16   17 1  
    28   16   51 1  
    29   17   18 1  
    30   18   19 1  
    31   19   20 1  
    32   19   51 1  
    33   19   52 1  
    34   20   21 1  
    35   21   22 1  
    36   22   23 1  
    37   22   53 1  
    38   23   24 1  
    39   23   52 1  
    40   24   25 1  
    41   24   54 1  
    42   25   26 1  
    43   25   41 2  
    44   26   27 1  
    45   26   53 1  
    46   27   28 1  
    47   27   55 1  
    48   28   29 1  
    49   29   30 1  
    50   29   40 1  
    51   30   31 1  
    52   30   56 1  
    53   31   32 1  
    54   31   39 1  
    55   32   33 1  
    56   33   34 1  
    57   34   35 1  
    58   34   56 1  
    59   34   57 1  
    60   35   36 1  
    61   36   37 1  
    62   37   38 1  
    63   38   57 1  
    64    3   58 1  
    65    3   59 1  
    66    4   60 1  
    67    5   61 1  
    68    5   62 1  
    69    6   63 1  
    70    6   64 1  
    71    7   65 1  
    72    9   66 1  
    73   11   67 1  
    74   11   68 1  
    75   12   69 1  
    76   13   70 1  
    77   14   71 1  
    78   15   72 1  
    79   16   73 1  
    80   17   74 1  
    81   17   75 1  
    82   18   76 1  
    83   18   77 1  
    84   20   78 1  
    85   20   79 1  
    86   21   80 1  
    87   21   81 1  
    88   22   82 1  
    89   23   83 1  
    90   24   84 1  
    91   26   85 1  
    92   27   86 1  
    93   28   87 1  
    94   28   88 1  
    95   29   89 1  
    96   30   90 1  
    97   31   91 1  
    98   32   92 1  
    99   32   93 1  
   100   33   94 1  
   101   33   95 1  
   102   35   96 1  
   103   35   97 1  
   104   36   98 1  
   105   36   99 1  
   106   37  100 1  
   107   37  101 1  
   108   38  102 1  
   109   38  103 1  
   110   39  104 1  
   111   39  105 1  
   112   39  106 1  
   113   40  107 1  
   114   40  108 1  
   115   40  109 1  
   116   41  110 1  
   117   41  111 1  
   118   42  112 1  
   119   42  113 1  
   120   42  114 1  
   121   43  115 1  
   122   43  116 1  
   123   43  117 1  
   124   44  118 1  
   125   44  119 1  
   126   44  120 1  
   127   47  121 1  
   128   49  122 1  
   129   54  123 1  
   130   55  124 1  
@<TRIPOS>SUBSTRUCTURE
     1 OKA         1

