### 
### Created by X-TOOL on Mon Sep 10 21:12:56 2018
### 

@<TRIPOS>MOLECULE
2ieh_ligand
   42    44     1     0     0
SMALL
GAST_HUCK


@<TRIPOS>ATOM
      1 S          14.6600   14.6660  109.5560 S.2       1 MOY        -0.2903
      2 O3         21.2020   13.7110  109.2170 O.2       1 MOY        -0.4095
      3 O4         16.6150   12.0640  114.3700 O.3       1 MOY        -0.3350
      4 N1         17.0780   13.5100  109.5230 N.am      1 MOY        -0.2613
      5 N2         17.0260   15.8300  109.9770 N.am      1 MOY        -0.2125
      6 C1         16.3040   14.7030  109.6980 C.2       1 MOY         0.1755
      7 C2         18.3760   16.0070  109.4770 C.2       1 MOY         0.0727
      8 C3         19.1320   14.8240  109.3080 C.2       1 MOY         0.0391
      9 C4         18.5210   13.5690  110.0080 C.3       1 MOY         0.0932
     10 C5         16.3840   16.9090  110.7740 C.3       1 MOY         0.0543
     11 C6         18.7650   17.4390  109.1780 C.3       1 MOY        -0.0000
     12 C17        20.5210   14.6170  108.7450 C.2       1 MOY         0.1126
     13 C18        21.0490   15.4470  107.5960 C.ar      1 MOY         0.0204
     14 C19        22.4350   15.7570  107.5530 C.ar      1 MOY        -0.0453
     15 C20        22.9460   16.5510  106.4750 C.ar      1 MOY        -0.0567
     16 C21        22.0600   17.0210  105.4450 C.ar      1 MOY        -0.0579
     17 C22        20.7170   16.7080  105.5030 C.ar      1 MOY        -0.0567
     18 C23        20.1940   15.9260  106.5540 C.ar      1 MOY        -0.0453
     19 C24        18.5630   13.6270  111.5970 C.ar      1 MOY        -0.0239
     20 C25        17.5950   12.8310  112.2970 C.ar      1 MOY        -0.0300
     21 C26        17.5560   12.8310  113.7220 C.ar      1 MOY         0.0807
     22 C27        18.4720   13.6180  114.4650 C.ar      1 MOY        -0.0407
     23 C28        19.4210   14.3940  113.7940 C.ar      1 MOY        -0.0774
     24 C29        19.4770   14.4090  112.3710 C.ar      1 MOY        -0.0688
     25 H1         15.7455   12.3448  114.1099 H         1 MOY         0.2479
     26 H2         16.6933   12.6862  109.1066 H         1 MOY         0.2023
     27 H3         19.0657   12.6708  109.6817 H         1 MOY         0.0779
     28 H4         15.3697   16.5969  111.0636 H         1 MOY         0.0585
     29 H5         16.3269   17.8266  110.1700 H         1 MOY         0.0585
     30 H6         16.9804   17.1016  111.6780 H         1 MOY         0.0585
     31 H7         19.8000   17.4679  108.8066 H         1 MOY         0.0454
     32 H8         18.6882   18.0393  110.0966 H         1 MOY         0.0454
     33 H9         18.0896   17.8505  108.4135 H         1 MOY         0.0454
     34 H10        23.1002   15.3960  108.3290 H         1 MOY         0.0664
     35 H11        24.0009   16.7973  106.4362 H         1 MOY         0.0628
     36 H12        22.4450   17.6185  104.6265 H         1 MOY         0.0650
     37 H13        20.0522   17.0696  104.7269 H         1 MOY         0.0628
     38 H14        19.1370   15.6864  106.5722 H         1 MOY         0.0664
     39 H15        16.8895   12.2263  111.7387 H         1 MOY         0.0477
     40 H16        18.4363   13.6177  115.5484 H         1 MOY         0.0483
     41 H17        20.1232   14.9919  114.3637 H         1 MOY         0.0571
     42 H18        20.2196   15.0190  111.8695 H         1 MOY         0.0464
@<TRIPOS>BOND
     1    6    1 2  
     2   12    2 2  
     3   21    3 1  
     4    4    6 am 
     5    9    4 1  
     6    6    5 am 
     7    7    5 1  
     8    5   10 1  
     9    8    7 2  
    10    7   11 1  
    11    9    8 1  
    12    8   12 1  
    13   19    9 1  
    14   12   13 1  
    15   13   14 ar 
    16   13   18 ar 
    17   14   15 ar 
    18   15   16 ar 
    19   17   16 ar 
    20   18   17 ar 
    21   20   19 ar 
    22   19   24 ar 
    23   20   21 ar 
    24   21   22 ar 
    25   22   23 ar 
    26   23   24 ar 
    27    3   25 1  
    28    4   26 1  
    29    9   27 1  
    30   10   28 1  
    31   10   29 1  
    32   10   30 1  
    33   11   31 1  
    34   11   32 1  
    35   11   33 1  
    36   14   34 1  
    37   15   35 1  
    38   16   36 1  
    39   17   37 1  
    40   18   38 1  
    41   20   39 1  
    42   22   40 1  
    43   23   41 1  
    44   24   42 1  
@<TRIPOS>SUBSTRUCTURE
     1 MOY         1

