### 
### Created by X-TOOL on Mon Sep 10 21:12:53 2018
### 

@<TRIPOS>MOLECULE
2ien_ligand
   75    78     1     0     0
SMALL
GAST_HUCK


@<TRIPOS>ATOM
      1 N1         21.0910   28.7350   14.0670 N.pl3     1 017        -0.3369
      2 C2         20.5400   27.5660   14.5190 C.ar      1 017         0.0353
      3 C3         19.1880   27.3330   14.2100 C.ar      1 017        -0.0429
      4 C4         18.6260   26.1600   14.6750 C.ar      1 017        -0.0471
      5 C5         19.3840   25.2160   15.3450 C.ar      1 017         0.0949
      6 C6         20.7110   25.4230   15.7210 C.ar      1 017        -0.0471
      7 C7         21.2630   26.6460   15.2920 C.ar      1 017        -0.0429
      8 S8         18.4500   23.7990   15.9930 S.o2      1 017         0.0648
      9 O9         17.2570   23.4660   15.0690 O.2       1 017        -0.1518
     10 O10        19.4810   22.6380   16.2400 O.2       1 017        -0.1518
     11 N11        17.7940   24.1570   17.5840 N.am      1 017        -0.2327
     12 C12        18.7830   24.4260   18.6320 C.3       1 017         0.0319
     13 C13        18.4000   23.8560   20.0060 C.3       1 017        -0.0296
     14 C14        18.3680   22.3520   19.8930 C.3       1 017        -0.0612
     15 C15        19.5030   24.3350   20.9200 C.3       1 017        -0.0612
     16 C16        16.5050   24.8940   17.5640 C.3       1 017         0.0578
     17 C17        15.3940   23.9640   18.1580 C.3       1 017         0.0967
     18 O18        14.2320   24.7640   18.4090 O.3       1 017        -0.3877
     19 C19        15.0130   22.8280   17.1770 C.3       1 017         0.0807
     20 N20        14.1320   21.9410   17.8870 N.am      1 017        -0.2550
     21 C21        14.4880   20.6750   18.2230 C.2       1 017         0.3203
     22 O22        15.5870   20.0860   17.9550 O.2       1 017        -0.3775
     23 O23        13.4210   20.0660   18.9520 O.3       1 017        -0.2578
     24 C24        13.5050   18.6020   19.1020 C.3       1 017         0.1189
     25 C25        12.8390   18.3510   20.4850 C.3       1 017         0.0815
     26 O26        11.4120   18.4700   20.2840 O.3       1 017        -0.3480
     27 C27        11.2200   17.9780   18.9680 C.3       1 017         0.1648
     28 O28        10.2970   18.8060   18.2910 O.3       1 017        -0.3509
     29 C29        11.0420   19.4440   17.2410 C.3       1 017         0.0512
     30 C30        12.1310   18.4320   16.8180 C.3       1 017        -0.0191
     31 C31        12.4700   17.8870   18.2130 C.3       1 017         0.0449
     32 C32        14.2940   23.2850   15.8960 C.3       1 017         0.0064
     33 C33        12.5490   21.7500   14.8810 C.ar      1 017        -0.0603
     34 C34        12.1480   20.6610   14.0690 C.ar      1 017        -0.0686
     35 C35        13.1190   19.9330   13.3910 C.ar      1 017        -0.0687
     36 C36        14.4710   20.2400   13.5170 C.ar      1 017        -0.0686
     37 C37        14.8600   21.3260   14.3140 C.ar      1 017        -0.0603
     38 C38        13.9020   22.1140   14.9680 C.ar      1 017        -0.0408
     39 H1         20.5270   29.3853   13.5015 H         1 017         0.1719
     40 H2         22.0696   28.9641   14.2925 H         1 017         0.1719
     41 H3         18.6107   28.0446   13.6308 H         1 017         0.0515
     42 H4         17.5704   25.9754   14.5118 H         1 017         0.0602
     43 H5         21.2740   24.6989   16.2986 H         1 017         0.0602
     44 H6         22.2834   26.8846   15.5694 H         1 017         0.0515
     45 H7         18.8986   25.5156   18.7285 H         1 017         0.0480
     46 H8         19.7416   23.9811   18.3269 H         1 017         0.0480
     47 H9         17.4221   24.2299   20.3435 H         1 017         0.0311
     48 H10        18.0955   21.9170   20.8659 H         1 017         0.0233
     49 H11        19.3608   21.9856   19.5927 H         1 017         0.0233
     50 H12        17.6244   22.0567   19.1382 H         1 017         0.0233
     51 H13        19.4862   25.4337   20.9703 H         1 017         0.0233
     52 H14        20.4750   24.0007   20.5282 H         1 017         0.0233
     53 H15        19.3510   23.9195   21.9271 H         1 017         0.0233
     54 H16        16.2482   25.1652   16.5294 H         1 017         0.0504
     55 H17        16.5895   25.8067   18.1721 H         1 017         0.0504
     56 H18        15.7546   23.5225   19.0988 H         1 017         0.0634
     57 H19        13.9341   25.1520   17.5946 H         1 017         0.2100
     58 H20        15.9301   22.2944   16.8870 H         1 017         0.0604
     59 H21        13.2227   22.2691   18.1429 H         1 017         0.1873
     60 H22        14.5292   18.2168   18.9897 H         1 017         0.0675
     61 H23        13.1834   19.0997   21.2136 H         1 017         0.0590
     62 H24        13.0882   17.3434   20.8490 H         1 017         0.0590
     63 H25        10.7948   16.9661   19.0403 H         1 017         0.0913
     64 H26        11.5043   20.3717   17.6093 H         1 017         0.0561
     65 H27        10.3835   19.6749   16.3907 H         1 017         0.0561
     66 H28        12.9928   18.9222   16.3415 H         1 017         0.0293
     67 H29        11.7376   17.6515   16.1501 H         1 017         0.0293
     68 H30        12.7885   16.8406   18.0970 H         1 017         0.0380
     69 H31        14.9619   23.9613   15.3424 H         1 017         0.0449
     70 H32        13.3797   23.8256   16.1820 H         1 017         0.0449
     71 H33        11.8053   22.3067   15.4396 H         1 017         0.0557
     72 H34        11.1001   20.3992   13.9776 H         1 017         0.0599
     73 H35        12.8177   19.1107   12.7521 H         1 017         0.0559
     74 H36        15.2168   19.6444   13.0032 H         1 017         0.0599
     75 H37        15.9127   21.5590   14.4258 H         1 017         0.0557
@<TRIPOS>BOND
     1    2    1 1  
     2    3    2 ar 
     3    7    2 ar 
     4    4    3 ar 
     5    5    4 ar 
     6    5    6 ar 
     7    8    5 1  
     8    6    7 ar 
     9    8    9 2  
    10    8   10 2  
    11   11    8 am 
    12   11   12 1  
    13   16   11 1  
    14   12   13 1  
    15   13   14 1  
    16   13   15 1  
    17   17   16 1  
    18   17   18 1  
    19   19   17 1  
    20   19   20 1  
    21   32   19 1  
    22   20   21 am 
    23   21   22 2  
    24   21   23 1  
    25   23   24 1  
    26   24   25 1  
    27   24   31 1  
    28   25   26 1  
    29   27   26 1  
    30   27   28 1  
    31   31   27 1  
    32   29   28 1  
    33   30   29 1  
    34   31   30 1  
    35   38   32 1  
    36   33   34 ar 
    37   33   38 ar 
    38   34   35 ar 
    39   35   36 ar 
    40   36   37 ar 
    41   37   38 ar 
    42    1   39 1  
    43    1   40 1  
    44    3   41 1  
    45    4   42 1  
    46    6   43 1  
    47    7   44 1  
    48   12   45 1  
    49   12   46 1  
    50   13   47 1  
    51   14   48 1  
    52   14   49 1  
    53   14   50 1  
    54   15   51 1  
    55   15   52 1  
    56   15   53 1  
    57   16   54 1  
    58   16   55 1  
    59   17   56 1  
    60   18   57 1  
    61   19   58 1  
    62   20   59 1  
    63   24   60 1  
    64   25   61 1  
    65   25   62 1  
    66   27   63 1  
    67   29   64 1  
    68   29   65 1  
    69   30   66 1  
    70   30   67 1  
    71   31   68 1  
    72   32   69 1  
    73   32   70 1  
    74   33   71 1  
    75   34   72 1  
    76   35   73 1  
    77   36   74 1  
    78   37   75 1  
@<TRIPOS>SUBSTRUCTURE
     1 017         1

