### 
### Created by X-TOOL on Mon Sep 10 21:12:53 2018
### 

@<TRIPOS>MOLECULE
2ieo_ligand
   75    78     1     0     0
SMALL
GAST_HUCK


@<TRIPOS>ATOM
      1 N1         20.9120   28.9400   13.8770 N.pl3     1 017        -0.3369
      2 C2         20.3960   27.7490   14.3180 C.ar      1 017         0.0353
      3 C3         19.0550   27.4970   14.0710 C.ar      1 017        -0.0429
      4 C4         18.4460   26.3080   14.4870 C.ar      1 017        -0.0471
      5 C5         19.2490   25.3190   15.0740 C.ar      1 017         0.0949
      6 C6         20.5700   25.5650   15.4250 C.ar      1 017        -0.0471
      7 C7         21.1450   26.7850   15.0130 C.ar      1 017        -0.0429
      8 S8         18.3090   23.8960   15.7390 S.o2      1 017         0.0648
      9 O9         17.1170   23.6220   14.7590 O.2       1 017        -0.1518
     10 O10        19.2840   22.6650   15.8560 O.2       1 017        -0.1518
     11 N11        17.6690   24.2910   17.3490 N.am      1 017        -0.2327
     12 C12        18.6620   24.5460   18.4100 C.3       1 017         0.0319
     13 C13        18.3760   23.8900   19.7820 C.3       1 017        -0.0296
     14 C14        18.3260   22.3820   19.6680 C.3       1 017        -0.0612
     15 C15        19.5090   24.2820   20.7170 C.3       1 017        -0.0612
     16 C16        16.3770   25.0620   17.3560 C.3       1 017         0.0578
     17 C17        15.1840   24.1760   17.8640 C.3       1 017         0.0967
     18 O18        14.0630   24.9920   18.1820 O.3       1 017        -0.3877
     19 C19        14.8280   23.0050   16.8980 C.3       1 017         0.0807
     20 N20        13.9380   22.0840   17.5730 N.am      1 017        -0.2550
     21 C21        14.2540   20.8040   17.9010 C.2       1 017         0.3203
     22 O22        15.3620   20.2300   17.6100 O.2       1 017        -0.3775
     23 O23        13.1980   20.1860   18.6370 O.3       1 017        -0.2578
     24 C24        13.3750   18.7510   18.8950 C.3       1 017         0.1189
     25 C25        12.7750   18.5040   20.2960 C.3       1 017         0.0815
     26 O26        11.3490   18.5800   20.1260 O.3       1 017        -0.3480
     27 C27        11.0940   18.1750   18.7860 C.3       1 017         0.1648
     28 O28        10.1320   18.9830   18.0780 O.3       1 017        -0.3509
     29 C29        10.8780   19.5250   16.9990 C.3       1 017         0.0512
     30 C30        12.0020   18.5370   16.6520 C.3       1 017        -0.0191
     31 C31        12.3440   18.0180   18.0210 C.3       1 017         0.0449
     32 C32        14.1590   23.4190   15.5500 C.3       1 017         0.0064
     33 C33        12.4110   21.7690   14.6130 C.ar      1 017        -0.0603
     34 C34        12.0720   20.6320   13.8480 C.ar      1 017        -0.0686
     35 C35        13.0470   19.8970   13.1850 C.ar      1 017        -0.0687
     36 C36        14.3900   20.2920   13.3030 C.ar      1 017        -0.0686
     37 C37        14.7120   21.4400   14.0580 C.ar      1 017        -0.0603
     38 C38        13.7280   22.2030   14.7050 C.ar      1 017        -0.0408
     39 H1         20.3104   29.6065   13.3722 H         1 017         0.1719
     40 H2         21.9013   29.1684   14.0504 H         1 017         0.1719
     41 H3         18.4651   28.2380   13.5437 H         1 017         0.0515
     42 H4         17.3805   26.1550   14.3589 H         1 017         0.0602
     43 H5         21.1407   24.8425   15.9972 H         1 017         0.0602
     44 H6         22.1869   26.9831   15.2373 H         1 017         0.0515
     45 H7         18.7186   25.6338   18.5629 H         1 017         0.0480
     46 H8         19.6349   24.1743   18.0561 H         1 017         0.0480
     47 H9         17.4168   24.2574   20.1756 H         1 017         0.0311
     48 H10        18.1216   21.9461   20.6571 H         1 017         0.0233
     49 H11        19.2921   22.0101   19.2961 H         1 017         0.0233
     50 H12        17.5280   22.0934   18.9681 H         1 017         0.0233
     51 H13        19.5502   25.3778   20.8038 H         1 017         0.0233
     52 H14        20.4625   23.9100   20.3139 H         1 017         0.0233
     53 H15        19.3340   23.8419   21.7098 H         1 017         0.0233
     54 H16        16.1587   25.4040   16.3336 H         1 017         0.0504
     55 H17        16.4836   25.9331   18.0192 H         1 017         0.0504
     56 H18        15.5143   23.7092   18.8036 H         1 017         0.0634
     57 H19        13.7886   25.4673   17.4066 H         1 017         0.2100
     58 H20        15.7654   22.4824   16.6570 H         1 017         0.0604
     59 H21        13.0254   22.4135   17.8151 H         1 017         0.1873
     60 H22        14.4118   18.4059   18.7685 H         1 017         0.0675
     61 H23        13.1189   19.2742   21.0020 H         1 017         0.0590
     62 H24        13.0647   17.5101   20.6678 H         1 017         0.0590
     63 H25        10.6461   17.1729   18.8572 H         1 017         0.0913
     64 H26        11.3101   20.4928   17.2934 H         1 017         0.0561
     65 H27        10.2231   19.6660   16.1265 H         1 017         0.0561
     66 H28        12.8587   19.0445   16.1846 H         1 017         0.0293
     67 H29        11.6463   17.7334   15.9904 H         1 017         0.0293
     68 H30        12.6445   16.9638   17.9295 H         1 017         0.0380
     69 H31        14.8774   24.0155   14.9685 H         1 017         0.0449
     70 H32        13.2699   24.0281   15.7702 H         1 017         0.0449
     71 H33        11.6323   22.3117   15.1366 H         1 017         0.0557
     72 H34        11.0341   20.3274   13.7767 H         1 017         0.0599
     73 H35        12.7762   19.0341   12.5873 H         1 017         0.0559
     74 H36        15.1725   19.7197   12.8181 H         1 017         0.0599
     75 H37        15.7500   21.7412   14.1405 H         1 017         0.0557
@<TRIPOS>BOND
     1    2    1 1  
     2    3    2 ar 
     3    7    2 ar 
     4    4    3 ar 
     5    5    4 ar 
     6    5    6 ar 
     7    8    5 1  
     8    6    7 ar 
     9    8    9 2  
    10    8   10 2  
    11   11    8 am 
    12   11   12 1  
    13   16   11 1  
    14   12   13 1  
    15   13   14 1  
    16   13   15 1  
    17   17   16 1  
    18   17   18 1  
    19   19   17 1  
    20   19   20 1  
    21   32   19 1  
    22   20   21 am 
    23   21   22 2  
    24   21   23 1  
    25   23   24 1  
    26   24   25 1  
    27   24   31 1  
    28   25   26 1  
    29   27   26 1  
    30   27   28 1  
    31   31   27 1  
    32   29   28 1  
    33   30   29 1  
    34   31   30 1  
    35   38   32 1  
    36   33   34 ar 
    37   33   38 ar 
    38   34   35 ar 
    39   35   36 ar 
    40   36   37 ar 
    41   37   38 ar 
    42    1   39 1  
    43    1   40 1  
    44    3   41 1  
    45    4   42 1  
    46    6   43 1  
    47    7   44 1  
    48   12   45 1  
    49   12   46 1  
    50   13   47 1  
    51   14   48 1  
    52   14   49 1  
    53   14   50 1  
    54   15   51 1  
    55   15   52 1  
    56   15   53 1  
    57   16   54 1  
    58   16   55 1  
    59   17   56 1  
    60   18   57 1  
    61   19   58 1  
    62   20   59 1  
    63   24   60 1  
    64   25   61 1  
    65   25   62 1  
    66   27   63 1  
    67   29   64 1  
    68   29   65 1  
    69   30   66 1  
    70   30   67 1  
    71   31   68 1  
    72   32   69 1  
    73   32   70 1  
    74   33   71 1  
    75   34   72 1  
    76   35   73 1  
    77   36   74 1  
    78   37   75 1  
@<TRIPOS>SUBSTRUCTURE
     1 017         1

