### 
### Created by X-TOOL on Mon Sep 10 21:12:55 2018
### 

@<TRIPOS>MOLECULE
2ig0_ligand
   56    55     1     0     0
SMALL
GAST_HUCK


@<TRIPOS>ATOM
      1 N          -4.9300    4.1320    5.9880 N.4       1 ARG         0.2379
      2 CA         -6.0990    3.4530    5.3870 C.3       1 ARG         0.0650
      3 C          -7.2950    3.5310    6.3620 C.2       1 ARG         0.2247
      4 O          -8.4690    3.4320    5.9510 O.2       1 ARG        -0.3909
      5 CB         -5.7490    1.9960    5.0130 C.3       1 ARG         0.0110
      6 CG         -5.5250    1.7310    3.5050 C.3       1 ARG        -0.0125
      7 CD         -4.0690    1.3890    3.0440 C.3       1 ARG         0.0629
      8 NE         -3.4000    2.5110    2.4050 N.pl3     1 ARG        -0.2723
      9 CZ         -2.6450    3.3960    3.0430 C.cat     1 ARG         0.2882
     10 NH1        -2.4380    3.2890    4.3420 N.pl3     1 ARG        -0.2849
     11 NH2        -2.0910    4.3890    2.3770 N.pl3     1 ARG        -0.2849
     12 N          -6.9720    3.7130    7.6470 N.am      1 MLY        -0.2796
     13 CA         -7.9450    4.0070    8.7020 C.3       1 MLY         0.0394
     14 CB         -7.5630    3.4330   10.0900 C.3       1 MLY        -0.0300
     15 CG         -6.1900    2.7670   10.3190 C.3       1 MLY        -0.0462
     16 CD         -6.3480    1.2670   10.5850 C.3       1 MLY        -0.0125
     17 CE         -5.8520    0.6090   11.8910 C.3       1 MLY        -0.0324
     18 NZ         -4.3720    0.3200   11.9920 N.4       1 MLY         0.2309
     19 CH1        -4.0880   -1.0080   12.5690 C.3       1 MLY        -0.0433
     20 CH2        -3.6150    0.4990   10.7400 C.3       1 MLY        -0.0433
     21 C          -8.1640    5.5010    8.8060 C.3       1 MLY        -0.0420
     22 H1         -4.1490    4.0817    5.3527 H         1 ARG         0.2015
     23 H2         -4.6874    3.6790    6.8551 H         1 ARG         0.2015
     24 H3         -5.1570    5.0979    6.1655 H         1 ARG         0.2015
     25 H4         -6.3737    3.9835    4.4633 H         1 ARG         0.1098
     26 H5         -6.5738    1.3517    5.3514 H         1 ARG         0.0347
     27 H6         -4.8268    1.7214    5.5460 H         1 ARG         0.0347
     28 H7         -5.8403    2.6334    2.9607 H         1 ARG         0.0302
     29 H8         -6.1689    0.8863    3.2189 H         1 ARG         0.0302
     30 H9         -4.1140    0.5539    2.3295 H         1 ARG         0.0689
     31 H10        -3.4837    1.0867    3.9249 H         1 ARG         0.0689
     32 H11        -3.5204    2.6264    1.3886 H         1 ARG         0.2642
     33 H12        -1.8503    3.9810    4.8286 H         1 ARG         0.2615
     34 H13        -2.8641    2.5135    4.8692 H         1 ARG         0.2615
     35 H14        -2.2475    4.4797    1.3630 H         1 ARG         0.2615
     36 H15        -1.5014    5.0745    2.8704 H         1 ARG         0.2615
     37 H16        -6.0078    3.6442    7.9032 H         1 MLY         0.1856
     38 H17        -8.8972    3.5422    8.4065 H         1 MLY         0.0553
     39 H18        -8.3232    2.6774   10.3370 H         1 MLY         0.0287
     40 H19        -7.6298    4.2673   10.8037 H         1 MLY         0.0287
     41 H20        -5.7017    3.2369   11.1854 H         1 MLY         0.0268
     42 H21        -5.5664    2.9104    9.4243 H         1 MLY         0.0268
     43 H22        -5.8267    0.7525    9.7643 H         1 MLY         0.0317
     44 H23        -7.4258    1.0558   10.5244 H         1 MLY         0.0317
     45 H24        -6.3856   -0.3461   12.0053 H         1 MLY         0.0814
     46 H25        -6.1172    1.2790   12.7222 H         1 MLY         0.0814
     47 H26        -4.0063    0.9998   12.6402 H         1 MLY         0.2028
     48 H27        -2.9999   -1.1616   12.6175 H         1 MLY         0.0777
     49 H28        -4.5404   -1.7866   11.9373 H         1 MLY         0.0777
     50 H29        -4.5119   -1.0658   13.5824 H         1 MLY         0.0777
     51 H30        -3.8334    1.4911   10.3181 H         1 MLY         0.0777
     52 H31        -3.9088   -0.2785   10.0195 H         1 MLY         0.0777
     53 H32        -2.5379    0.4181   10.9480 H         1 MLY         0.0777
     54 H33        -8.8956    5.7099    9.6004 H         1 MLY         0.0252
     55 H34        -8.5445    5.8835    7.8474 H         1 MLY         0.0252
     56 H35        -7.2111    5.9955    9.0459 H         1 MLY         0.0252
@<TRIPOS>BOND
     1    1    2 1  
     2    2    3 1  
     3    2    5 1  
     4    3    4 2  
     5    3   12 am 
     6    5    6 1  
     7    6    7 1  
     8    7    8 1  
     9    8    9 ar 
    10    9   10 ar 
    11    9   11 ar 
    12   12   13 1  
    13   13   14 1  
    14   13   21 1  
    15   14   15 1  
    16   15   16 1  
    17   16   17 1  
    18   17   18 1  
    19   18   19 1  
    20   18   20 1  
    21    1   22 1  
    22    1   23 1  
    23    1   24 1  
    24    2   25 1  
    25    5   26 1  
    26    5   27 1  
    27    6   28 1  
    28    6   29 1  
    29    7   30 1  
    30    7   31 1  
    31    8   32 1  
    32   10   33 1  
    33   10   34 1  
    34   11   35 1  
    35   11   36 1  
    36   12   37 1  
    37   13   38 1  
    38   14   39 1  
    39   14   40 1  
    40   15   41 1  
    41   15   42 1  
    42   16   43 1  
    43   16   44 1  
    44   17   45 1  
    45   17   46 1  
    46   18   47 1  
    47   19   48 1  
    48   19   49 1  
    49   19   50 1  
    50   20   51 1  
    51   20   52 1  
    52   20   53 1  
    53   21   54 1  
    54   21   55 1  
    55   21   56 1  
@<TRIPOS>SUBSTRUCTURE
     1 ARG         1

