### 
### Created by X-TOOL on Fri Sep 26 17:34:37 2014
### 

@<TRIPOS>MOLECULE
2igv_ligand
   28    28     1     0     0
SMALL
GAST_HUCK


@<TRIPOS>ATOM
      1 N          45.6370   17.5020   12.0580 N.4       1 SER         0.2396
      2 CA         46.6780   16.5900   12.6170 C.3       1 SER         0.0886
      3 C          47.8990   17.4170   13.0230 C.2       1 SER         0.2309
      4 O          48.2280   18.3890   12.3380 O.2       1 SER        -0.3905
      5 CB         47.1200   15.5670   11.5660 C.3       1 SER         0.1041
      6 OG         46.0620   14.6820   11.2470 O.3       1 SER        -0.3870
      7 N          48.5970   17.0210   14.1080 N.am      1 SER        -0.2528
      8 CA         48.3440   15.8990   15.0100 C.3       1 SER         0.0973
      9 C          47.3070   16.2380   16.0790 C.2       1 SER         0.0603
     10 O          46.7800   17.3540   16.1560 O.co2     1 SER        -0.5666
     11 CB         49.7030   15.6790   15.6620 C.3       1 SER        -0.0159
     12 CG         50.3150   17.0620   15.7300 C.3       1 SER        -0.0288
     13 CD         49.7970   17.7830   14.5060 C.3       1 SER         0.0363
     14 OXT        46.9900   15.3800   16.9180 O.co2     1 SER        -0.5666
     15 H1         44.8287   16.9637   11.7880 H         1 SER         0.2016
     16 H2         46.0071   17.9800   11.2514 H         1 SER         0.2016
     17 H3         45.3722   18.1782   12.7571 H         1 SER         0.2016
     18 H4         46.2721   16.0654   13.4945 H         1 SER         0.1122
     19 H5         47.9675   14.9877   11.9612 H         1 SER         0.0640
     20 H6         47.4322   16.0984   10.6549 H         1 SER         0.0640
     21 H7         46.3584   14.0580   10.5949 H         1 SER         0.2099
     22 H8         48.0181   15.0103   14.4497 H         1 SER         0.0728
     23 H9         50.3242   15.0079   15.0507 H         1 SER         0.0306
     24 H10        49.5872   15.2545   16.6701 H         1 SER         0.0306
     25 H11        51.4130   17.0000   15.7057 H         1 SER         0.0286
     26 H12        49.9972   17.5803   16.6467 H         1 SER         0.0286
     27 H13        49.5341   18.8229   14.7497 H         1 SER         0.0524
     28 H14        50.5480   17.7733   13.7023 H         1 SER         0.0524
@<TRIPOS>BOND
     1    1    2 1  
     2    2    3 1  
     3    2    5 1  
     4    3    4 2  
     5    3    7 am 
     6    5    6 1  
     7    7    8 1  
     8    7   13 1  
     9    8    9 1  
    10    8   11 1  
    11    9   10 ar 
    12    9   14 ar 
    13   11   12 1  
    14   12   13 1  
    15    1   15 1  
    16    1   16 1  
    17    1   17 1  
    18    2   18 1  
    19    5   19 1  
    20    5   20 1  
    21    6   21 1  
    22    8   22 1  
    23   11   23 1  
    24   11   24 1  
    25   12   25 1  
    26   12   26 1  
    27   13   27 1  
    28   13   28 1  
@<TRIPOS>SUBSTRUCTURE
     1 SER         1

