### 
### Created by X-TOOL on Mon Sep 10 21:12:56 2018
### 

@<TRIPOS>MOLECULE
2igw_ligand
   24    24     1     0     0
SMALL
GAST_HUCK


@<TRIPOS>ATOM
      1 N          45.9500   17.5750   12.1590 N.4       1 PRO         0.2357
      2 CA         47.0840   16.7730   12.7260 C.3       1 PRO         0.0546
      3 C          48.2790   17.6670   13.0540 C.2       1 PRO         0.2256
      4 O          48.5410   18.6430   12.3260 O.2       1 PRO        -0.3909
      5 N          48.9960   17.3660   14.1420 N.am      1 PRO        -0.2531
      6 CA         48.7050   16.2280   15.0270 C.3       1 PRO         0.0973
      7 C          47.6640   16.5480   16.1520 C.2       1 PRO         0.0603
      8 O          47.0480   17.6380   16.3450 O.co2     1 PRO        -0.5666
      9 CB         50.0780   15.9420   15.6400 C.3       1 PRO        -0.0159
     10 CG         50.7360   17.3310   15.7500 C.3       1 PRO        -0.0288
     11 CD         50.1430   18.1590   14.6220 C.3       1 PRO         0.0363
     12 OXT        47.4060   15.6710   16.9800 O.co2     1 PRO        -0.5666
     13 H1         45.1763   16.9630   11.9518 H         1 PRO         0.2012
     14 H2         46.2521   18.0328   11.3133 H         1 PRO         0.2012
     15 H3         45.6596   18.2680   12.8309 H         1 PRO         0.2012
     16 H4         47.3926   16.0164   11.9896 H         1 PRO         0.1061
     17 H5         46.7461   16.2731   13.6457 H         1 PRO         0.1061
     18 H6         48.3435   15.3692   14.4423 H         1 PRO         0.0728
     19 H7         50.6673   15.2812   14.9873 H         1 PRO         0.0306
     20 H8         49.9740   15.4793   16.6325 H         1 PRO         0.0306
     21 H9         51.8266   17.2489   15.6327 H         1 PRO         0.0286
     22 H10        50.5053   17.7884   16.7234 H         1 PRO         0.0286
     23 H11        49.8093   19.1390   14.9937 H         1 PRO         0.0524
     24 H12        50.8793   18.3032   13.8176 H         1 PRO         0.0524
@<TRIPOS>BOND
     1    1    2 1  
     2    2    3 1  
     3    3    4 2  
     4    3    5 am 
     5    5    6 1  
     6    5   11 1  
     7    6    7 1  
     8    6    9 1  
     9    7    8 ar 
    10    7   12 ar 
    11    9   10 1  
    12   10   11 1  
    13    1   13 1  
    14    1   14 1  
    15    1   15 1  
    16    2   16 1  
    17    2   17 1  
    18    6   18 1  
    19    9   19 1  
    20    9   20 1  
    21   10   21 1  
    22   10   22 1  
    23   11   23 1  
    24   11   24 1  
@<TRIPOS>SUBSTRUCTURE
     1 PRO         1

