### 
### Created by X-TOOL on Mon Sep 10 21:12:54 2018
### 

@<TRIPOS>MOLECULE
2igx_ligand
   98   103     1     0     0
SMALL
GAST_HUCK


@<TRIPOS>ATOM
      1 O25        56.8700   60.2970   13.1870 O.2       1 A1T        -0.3817
      2 C23        56.9890   60.0360   11.9960 C.2       1 A1T         0.2234
      3 C26        55.7060   59.9230   11.2280 C.ar      1 A1T         0.1153
      4 C30        55.0440   61.0990   10.8850 C.ar      1 A1T        -0.0207
      5 C34        53.8350   61.0220   10.1970 C.ar      1 A1T        -0.0350
      6 C36        53.3200   59.7580    9.8930 C.ar      1 A1T        -0.0106
      7 C38        52.0070   59.6580    9.1430 C.3       1 A1T        -0.0109
      8 C40        52.2580   59.6210    7.6400 C.3       1 A1T        -0.0415
      9 C43        50.9330   59.4290    6.9130 C.3       1 A1T        -0.0513
     10 C46        51.1620   59.3880    5.4110 C.3       1 A1T        -0.0558
     11 C48        49.8370   59.4690    4.6680 C.3       1 A1T        -0.0653
     12 C33        54.0100   58.6050   10.2670 C.ar      1 A1T         0.0185
     13 N29        55.1760   58.7060   10.9360 N.ar      1 A1T        -0.2836
     14 N22        58.1960   59.8610   11.4570 N.am      1 A1T        -0.2563
     15 C24        59.3360   60.0230   12.3800 C.3       1 A1T         0.0565
     16 C28        60.4290   60.9290   11.8100 C.3       1 A1T         0.0111
     17 C32        61.5300   61.0750   12.8710 C.3       1 A1T        -0.0281
     18 N35        62.0310   59.7210   13.1010 N.4       1 A1T         0.2494
     19 C37        63.3790   59.7170   13.6820 C.3       1 A1T         0.0175
     20 C39        63.4400   59.5760   15.1870 C.ar      1 A1T         0.0724
     21 C42        64.1620   58.5240   15.7460 C.ar      1 A1T        -0.0272
     22 C45        64.2280   58.3980   17.1280 C.ar      1 A1T        -0.0487
     23 C47        63.5600   59.3310   17.9200 C.ar      1 A1T        -0.0410
     24 C44        62.8540   60.3780   17.3190 C.ar      1 A1T         0.0030
     25 N41        62.8160   60.4830   15.9780 N.ar      1 A1T        -0.2928
     26 C31        61.0720   58.7950   13.7060 C.3       1 A1T        -0.0281
     27 C27        59.9160   58.6410   12.7110 C.3       1 A1T         0.0111
     28 C21        58.5200   59.4620   10.0830 C.3       1 A1T         0.0681
     29 C20        58.8650   60.5590    9.1030 C.ar      1 A1T        -0.0192
     30 C18        58.4600   61.9010    9.2250 C.ar      1 A1T        -0.0563
     31 C16        58.8340   62.8420    8.2580 C.ar      1 A1T        -0.0589
     32 C19        59.6340   60.1690    8.0060 C.ar      1 A1T        -0.0563
     33 C17        59.9920   61.1010    7.0380 C.ar      1 A1T        -0.0589
     34 C15        59.6100   62.4400    7.1600 C.ar      1 A1T        -0.0216
     35 C14        60.0310   63.3330    6.0430 C.ar      1 A1T        -0.0182
     36 C11        59.0440   64.0300    5.3530 C.ar      1 A1T        -0.0505
     37 C7         59.3620   64.8420    4.2660 C.ar      1 A1T        -0.0429
     38 C12        61.3620   63.4100    5.6110 C.ar      1 A1T        -0.0505
     39 C8         61.6870   64.2310    4.5230 C.ar      1 A1T        -0.0429
     40 C4         60.6870   64.9520    3.8500 C.ar      1 A1T         0.0485
     41 C2         61.0430   65.8210    2.6670 C.2       1 A1T         0.2062
     42 O1         61.5570   65.2670    1.7080 O.2       1 A1T        -0.3853
     43 N3         60.8160   67.1420    2.6240 N.am      1 A1T        -0.2727
     44 C6         60.1990   67.9130    3.7090 C.3       1 A1T         0.0333
     45 C10        58.8460   68.3520    3.1450 C.3       1 A1T        -0.0325
     46 C13        59.0660   69.2430    1.9100 C.3       1 A1T        -0.0494
     47 C9         59.8910   68.5040    0.8570 C.3       1 A1T        -0.0325
     48 C5         61.1900   67.9310    1.4430 C.3       1 A1T         0.0333
     49 H1         55.4641   62.0625   11.1500 H         1 A1T         0.0744
     50 H2         53.3056   61.9214    9.9040 H         1 A1T         0.0688
     51 H3         51.3832   60.5310    9.3853 H         1 A1T         0.0451
     52 H4         51.4848   58.7386    9.4464 H         1 A1T         0.0451
     53 H5         52.9328   58.7860    7.4006 H         1 A1T         0.0290
     54 H6         52.7184   60.5677    7.3209 H         1 A1T         0.0290
     55 H7         50.2605   60.2649    7.1557 H         1 A1T         0.0267
     56 H8         50.4741   58.4832    7.2369 H         1 A1T         0.0267
     57 H9         51.6679   58.4475    5.1474 H         1 A1T         0.0263
     58 H10        51.7941   60.2391    5.1177 H         1 A1T         0.0263
     59 H11        50.0220   59.4380    3.5841 H         1 A1T         0.0230
     60 H12        49.3286   60.4096    4.9264 H         1 A1T         0.0230
     61 H13        49.2024   58.6180    4.9561 H         1 A1T         0.0230
     62 H14        53.6091   57.6286   10.0200 H         1 A1T         0.0783
     63 H15        58.9642   60.4810   13.3084 H         1 A1T         0.0564
     64 H16        60.0077   61.9168   11.5717 H         1 A1T         0.0339
     65 H17        60.8478   60.4792   10.8977 H         1 A1T         0.0339
     66 H18        61.1161   61.4949   13.7996 H         1 A1T         0.0815
     67 H19        62.3362   61.7259   12.5017 H         1 A1T         0.0815
     68 H20        62.1641   59.3475   12.1743 H         1 A1T         0.2050
     69 H21        63.8677   60.6643   13.4105 H         1 A1T         0.1011
     70 H22        63.9358   58.8774   13.2403 H         1 A1T         0.1011
     71 H23        64.6685   57.8092   15.1076 H         1 A1T         0.0653
     72 H24        64.7886   57.5891   17.5823 H         1 A1T         0.0719
     73 H25        63.5878   59.2450   19.0002 H         1 A1T         0.0652
     74 H26        62.3369   61.1056   17.9340 H         1 A1T         0.0803
     75 H27        60.7005   59.2029   14.6576 H         1 A1T         0.0815
     76 H28        61.5489   57.8202   13.8861 H         1 A1T         0.0815
     77 H29        60.2866   58.1688   11.7892 H         1 A1T         0.0339
     78 H30        59.1313   58.0113   13.1557 H         1 A1T         0.0339
     79 H31        57.6489   58.9233    9.6818 H         1 A1T         0.0690
     80 H32        59.3820   58.7804   10.1320 H         1 A1T         0.0690
     81 H33        57.8559   62.2076   10.0712 H         1 A1T         0.0563
     82 H34        58.5255   63.8764    8.3570 H         1 A1T         0.0615
     83 H35        59.9530   59.1376    7.9081 H         1 A1T         0.0563
     84 H36        60.5737   60.7856    6.1794 H         1 A1T         0.0615
     85 H37        58.0102   63.9399    5.6663 H         1 A1T         0.0624
     86 H38        58.5815   65.3858    3.7463 H         1 A1T         0.0665
     87 H39        62.1338   62.8391    6.1144 H         1 A1T         0.0624
     88 H40        62.7182   64.3103    4.1982 H         1 A1T         0.0665
     89 H41        60.8159   68.7872    3.9645 H         1 A1T         0.0522
     90 H42        60.0629   67.2864    4.6028 H         1 A1T         0.0522
     91 H43        58.2962   68.9180    3.9114 H         1 A1T         0.0285
     92 H44        58.2641   67.4642    2.8568 H         1 A1T         0.0285
     93 H45        59.5997   70.1560    2.2127 H         1 A1T         0.0267
     94 H46        58.0902   69.5140    1.4806 H         1 A1T         0.0267
     95 H47        60.1450   69.2051    0.0483 H         1 A1T         0.0285
     96 H48        59.2898   67.6774    0.4504 H         1 A1T         0.0285
     97 H49        61.6879   67.2888    0.7016 H         1 A1T         0.0522
     98 H50        61.8664   68.7484    1.7333 H         1 A1T         0.0522
@<TRIPOS>BOND
     1    1    2 2  
     2    2    3 1  
     3    2   14 am 
     4    3    4 ar 
     5    3   13 ar 
     6    4    5 ar 
     7    5    6 ar 
     8    6    7 1  
     9    6   12 ar 
    10    7    8 1  
    11    8    9 1  
    12    9   10 1  
    13   10   11 1  
    14   12   13 ar 
    15   14   15 1  
    16   14   28 1  
    17   15   16 1  
    18   15   27 1  
    19   16   17 1  
    20   17   18 1  
    21   18   19 1  
    22   18   26 1  
    23   19   20 1  
    24   20   21 ar 
    25   20   25 ar 
    26   21   22 ar 
    27   22   23 ar 
    28   23   24 ar 
    29   24   25 ar 
    30   26   27 1  
    31   28   29 1  
    32   29   30 ar 
    33   29   32 ar 
    34   30   31 ar 
    35   31   34 ar 
    36   32   33 ar 
    37   33   34 ar 
    38   34   35 1  
    39   35   36 ar 
    40   35   38 ar 
    41   36   37 ar 
    42   37   40 ar 
    43   38   39 ar 
    44   39   40 ar 
    45   40   41 1  
    46   41   42 2  
    47   41   43 am 
    48   43   44 1  
    49   43   48 1  
    50   44   45 1  
    51   45   46 1  
    52   46   47 1  
    53   47   48 1  
    54    4   49 1  
    55    5   50 1  
    56    7   51 1  
    57    7   52 1  
    58    8   53 1  
    59    8   54 1  
    60    9   55 1  
    61    9   56 1  
    62   10   57 1  
    63   10   58 1  
    64   11   59 1  
    65   11   60 1  
    66   11   61 1  
    67   12   62 1  
    68   15   63 1  
    69   16   64 1  
    70   16   65 1  
    71   17   66 1  
    72   17   67 1  
    73   18   68 1  
    74   19   69 1  
    75   19   70 1  
    76   21   71 1  
    77   22   72 1  
    78   23   73 1  
    79   24   74 1  
    80   26   75 1  
    81   26   76 1  
    82   27   77 1  
    83   27   78 1  
    84   28   79 1  
    85   28   80 1  
    86   30   81 1  
    87   31   82 1  
    88   32   83 1  
    89   33   84 1  
    90   36   85 1  
    91   37   86 1  
    92   38   87 1  
    93   39   88 1  
    94   44   89 1  
    95   44   90 1  
    96   45   91 1  
    97   45   92 1  
    98   46   93 1  
    99   46   94 1  
   100   47   95 1  
   101   47   96 1  
   102   48   97 1  
   103   48   98 1  
@<TRIPOS>SUBSTRUCTURE
     1 A1T         1

