### 
### Created by X-TOOL on Mon Sep 10 21:12:54 2018
### 

@<TRIPOS>MOLECULE
2igy_ligand
   89    92     1     0     0
SMALL
GAST_HUCK


@<TRIPOS>ATOM
      1 O22        44.9170    0.3540  -13.7810 O.2       1 A2T        -0.3875
      2 C20        43.8650   -0.1590  -13.4680 C.2       1 A2T         0.2043
      3 C23        42.6070    0.3990  -14.0770 C.ar      1 A2T         0.0431
      4 C27        42.0040    1.5120  -13.4870 C.ar      1 A2T        -0.0485
      5 C31        40.8260    2.0310  -14.0310 C.ar      1 A2T        -0.0544
      6 C33        40.2560    1.4490  -15.1690 C.ar      1 A2T        -0.0383
      7 C35        38.9960    2.0340  -15.7600 C.3       1 A2T        -0.0170
      8 C37        37.7670    1.4710  -15.0560 C.3       1 A2T        -0.0426
      9 C39        36.5750    2.2980  -15.5030 C.3       1 A2T        -0.0514
     10 C42        35.3970    1.4150  -15.8580 C.3       1 A2T        -0.0558
     11 C43        34.1080    2.0610  -15.3990 C.3       1 A2T        -0.0653
     12 C30        40.8610    0.3460  -15.7680 C.ar      1 A2T        -0.0544
     13 C26        42.0440   -0.1720  -15.2230 C.ar      1 A2T        -0.0485
     14 N19        43.8560   -1.1640  -12.5770 N.am      1 A2T        -0.2604
     15 C21        45.1790   -1.6730  -12.1730 C.3       1 A2T         0.0559
     16 C25        45.3060   -3.1720  -12.4490 C.3       1 A2T         0.0110
     17 C29        46.7500   -3.5370  -12.1680 C.3       1 A2T        -0.0298
     18 N32        46.9840   -3.2640  -10.7530 N.4       1 A2T         0.2354
     19 C34        48.2910   -3.8430  -10.4850 C.3       1 A2T        -0.0317
     20 C36        48.7720   -3.3500   -9.1310 C.3       1 A2T        -0.0102
     21 C38        49.9660   -4.1780   -8.6890 C.3       1 A2T        -0.0419
     22 C41        49.8940   -4.4460   -7.1850 C.3       1 A2T        -0.0625
     23 C40        51.2680   -3.4950   -9.1090 C.3       1 A2T        -0.0625
     24 C28        46.9180   -1.8250  -10.4340 C.3       1 A2T        -0.0298
     25 C24        45.4750   -1.3890  -10.6900 C.3       1 A2T         0.0110
     26 C18        42.6950   -1.7780  -11.9320 C.3       1 A2T         0.0620
     27 C17        42.2120   -3.0410  -12.6180 C.ar      1 A2T        -0.0321
     28 C15        41.5790   -4.0350  -11.8590 C.ar      1 A2T        -0.0678
     29 C13        41.1270   -5.2050  -12.4780 C.ar      1 A2T        -0.0450
     30 C16        42.3930   -3.2380  -13.9900 C.ar      1 A2T        -0.0678
     31 C14        41.9470   -4.4000  -14.6040 C.ar      1 A2T        -0.0450
     32 C12        41.3090   -5.3850  -13.8560 C.ar      1 A2T         0.0568
     33 N44        40.8620   -6.5580  -14.4950 N.pl3     1 A2T        -0.2595
     34 C45        39.5130   -6.3590  -15.0160 C.3       1 A2T         0.0348
     35 C4         41.2790   -7.9000  -14.4240 C.ar      1 A2T         0.0792
     36 C2         40.8910   -8.8270  -15.4020 C.ar      1 A2T        -0.0127
     37 C8         42.0950   -8.3280  -13.3680 C.ar      1 A2T        -0.0127
     38 C9         42.5050   -9.6630  -13.2980 C.ar      1 A2T        -0.0027
     39 N6         42.1090  -10.5350  -14.2490 N.ar      1 A2T        -0.3155
     40 C3         41.3230  -10.1510  -15.2840 C.ar      1 A2T        -0.0027
     41 H1         42.4477    1.9712  -12.6110 H         1 A2T         0.0652
     42 H2         40.3512    2.8890  -13.5690 H         1 A2T         0.0570
     43 H3         38.9473    1.7832  -16.8299 H         1 A2T         0.0436
     44 H4         39.0132    3.1273  -15.6400 H         1 A2T         0.0436
     45 H5         37.8900    1.5460  -13.9655 H         1 A2T         0.0288
     46 H6         37.6213    0.4175  -15.3370 H         1 A2T         0.0288
     47 H7         36.8593    2.8888  -16.3862 H         1 A2T         0.0267
     48 H8         36.2824    2.9755  -14.6873 H         1 A2T         0.0267
     49 H9         35.5114    0.4391  -15.3635 H         1 A2T         0.0263
     50 H10        35.3645    1.2721  -16.9482 H         1 A2T         0.0263
     51 H11        33.2592    1.4124  -15.6613 H         1 A2T         0.0230
     52 H12        33.9904    3.0366  -15.8934 H         1 A2T         0.0230
     53 H13        34.1373    2.2036  -14.3087 H         1 A2T         0.0230
     54 H14        40.4204   -0.1078  -16.6483 H         1 A2T         0.0570
     55 H15        42.5261   -1.0214  -15.6932 H         1 A2T         0.0652
     56 H16        45.9359   -1.1499  -12.7758 H         1 A2T         0.0563
     57 H17        45.0560   -3.3884  -13.4981 H         1 A2T         0.0339
     58 H18        44.6345   -3.7390  -11.7876 H         1 A2T         0.0339
     59 H19        47.4229   -2.9266  -12.7881 H         1 A2T         0.0815
     60 H20        46.9202   -4.6025  -12.3817 H         1 A2T         0.0815
     61 H21        46.2869   -3.7361  -10.1987 H         1 A2T         0.2033
     62 H22        49.0009   -3.5325  -11.2658 H         1 A2T         0.0814
     63 H23        48.2149   -4.9403  -10.4740 H         1 A2T         0.0814
     64 H24        47.9617   -3.4517   -8.3941 H         1 A2T         0.0319
     65 H25        49.0667   -2.2930   -9.2085 H         1 A2T         0.0319
     66 H26        49.9187   -5.1493   -9.2032 H         1 A2T         0.0297
     67 H27        50.7633   -5.0458   -6.8775 H         1 A2T         0.0232
     68 H28        48.9693   -4.9953   -6.9543 H         1 A2T         0.0232
     69 H29        49.8977   -3.4897   -6.6415 H         1 A2T         0.0232
     70 H30        51.2609   -3.3293  -10.1964 H         1 A2T         0.0232
     71 H31        52.1211   -4.1357   -8.8414 H         1 A2T         0.0232
     72 H32        51.3586   -2.5286   -8.5915 H         1 A2T         0.0232
     73 H33        47.6058   -1.2605  -11.0807 H         1 A2T         0.0815
     74 H34        47.1844   -1.6568   -9.3801 H         1 A2T         0.0815
     75 H35        44.7876   -1.9621  -10.0505 H         1 A2T         0.0339
     76 H36        45.3615   -0.3151  -10.4804 H         1 A2T         0.0339
     77 H37        41.8724   -1.0478  -11.9303 H         1 A2T         0.0663
     78 H38        42.9656   -2.0279  -10.8955 H         1 A2T         0.0663
     79 H39        41.4399   -3.8970  -10.7929 H         1 A2T         0.0529
     80 H40        40.6357   -5.9730  -11.8916 H         1 A2T         0.0517
     81 H41        42.8870   -2.4750  -14.5807 H         1 A2T         0.0529
     82 H42        42.0959   -4.5407  -15.6685 H         1 A2T         0.0517
     83 H43        39.2812   -5.2838  -15.0323 H         1 A2T         0.0530
     84 H44        38.7902   -6.8801  -14.3710 H         1 A2T         0.0530
     85 H45        39.4510   -6.7630  -16.0373 H         1 A2T         0.0530
     86 H46        40.2673   -8.5222  -16.2345 H         1 A2T         0.0621
     87 H47        42.4083   -7.6241  -12.6055 H         1 A2T         0.0621
     88 H48        43.1381   -9.9961  -12.4836 H         1 A2T         0.0781
     89 H49        41.0257  -10.8796  -16.0295 H         1 A2T         0.0781
@<TRIPOS>BOND
     1    1    2 2  
     2    2    3 1  
     3    2   14 am 
     4    3    4 ar 
     5    3   13 ar 
     6    4    5 ar 
     7    5    6 ar 
     8    6    7 1  
     9    6   12 ar 
    10    7    8 1  
    11    8    9 1  
    12    9   10 1  
    13   10   11 1  
    14   12   13 ar 
    15   14   15 1  
    16   14   26 1  
    17   15   16 1  
    18   15   25 1  
    19   16   17 1  
    20   17   18 1  
    21   18   19 1  
    22   18   24 1  
    23   19   20 1  
    24   20   21 1  
    25   21   22 1  
    26   21   23 1  
    27   24   25 1  
    28   26   27 1  
    29   27   28 ar 
    30   27   30 ar 
    31   28   29 ar 
    32   29   32 ar 
    33   30   31 ar 
    34   31   32 ar 
    35   32   33 1  
    36   33   34 1  
    37   33   35 1  
    38   35   36 ar 
    39   35   37 ar 
    40   36   40 ar 
    41   37   38 ar 
    42   38   39 ar 
    43   39   40 ar 
    44    4   41 1  
    45    5   42 1  
    46    7   43 1  
    47    7   44 1  
    48    8   45 1  
    49    8   46 1  
    50    9   47 1  
    51    9   48 1  
    52   10   49 1  
    53   10   50 1  
    54   11   51 1  
    55   11   52 1  
    56   11   53 1  
    57   12   54 1  
    58   13   55 1  
    59   15   56 1  
    60   16   57 1  
    61   16   58 1  
    62   17   59 1  
    63   17   60 1  
    64   18   61 1  
    65   19   62 1  
    66   19   63 1  
    67   20   64 1  
    68   20   65 1  
    69   21   66 1  
    70   22   67 1  
    71   22   68 1  
    72   22   69 1  
    73   23   70 1  
    74   23   71 1  
    75   23   72 1  
    76   24   73 1  
    77   24   74 1  
    78   25   75 1  
    79   25   76 1  
    80   26   77 1  
    81   26   78 1  
    82   28   79 1  
    83   29   80 1  
    84   30   81 1  
    85   31   82 1  
    86   34   83 1  
    87   34   84 1  
    88   34   85 1  
    89   36   86 1  
    90   37   87 1  
    91   38   88 1  
    92   40   89 1  
@<TRIPOS>SUBSTRUCTURE
     1 A2T         1

