### 
### Created by X-TOOL on Mon Sep 10 21:12:54 2018
### 

@<TRIPOS>MOLECULE
2ihq_ligand
   36    39     1     0     0
SMALL
GAST_HUCK


@<TRIPOS>ATOM
      1 C13        27.8120    4.2600    3.9140 C.ar      1 LG7        -0.0215
      2 C18        22.5850    4.4040    4.4980 C.ar      1 LG7        -0.0628
      3 C17        23.5130    5.3640    4.2520 C.ar      1 LG7        -0.0554
      4 C16        24.9110    4.8910    4.1490 C.ar      1 LG7         0.0012
      5 C15        25.9950    5.8940    3.8810 C.ar      1 LG7         0.0791
      6 C19        22.9450    3.0260    4.6630 C.ar      1 LG7        -0.0617
      7 C20        24.3090    2.5210    4.5710 C.ar      1 LG7        -0.0503
      8 C21        25.3240    3.5430    4.3020 C.ar      1 LG7         0.0280
      9 C22        25.5740    7.2800    3.8020 C.1       1 LG7         0.0730
     10 C12        26.7610    3.2490    4.1730 C.ar      1 LG7         0.1239
     11 O1         30.2520    0.9440    3.2430 O.3       1 LG7        -0.3870
     12 C2         29.9470   -0.0830    4.1420 C.3       1 LG7         0.0981
     13 C3         29.5440   -1.3820    3.2360 C.3       1 LG7        -0.0019
     14 C4         27.9210   -1.3760    3.1240 C.3       1 LG7         0.0410
     15 N5         27.8150   -0.0050    3.7870 N.am      1 LG7        -0.2233
     16 C6         28.5650    0.2210    4.9240 C.3       1 LG7         0.1728
     17 C7         28.2500    1.6590    5.2790 C.2       1 LG7         0.2676
     18 O8         28.8200    2.2620    6.3430 O.2       1 LG7        -0.3692
     19 N9         27.3460    2.0400    4.2950 N.am      1 LG7        -0.1018
     20 C10        27.1000    1.0350    3.4150 C.2       1 LG7         0.3301
     21 O11        26.3650    1.0450    2.4390 O.2       1 LG7        -0.3789
     22 C14        27.4190    5.5750    3.7510 C.ar      1 LG7        -0.0420
     23 N23        25.2280    8.4210    3.7390 N.1       1 LG7        -0.3514
     24 H1         28.8568    3.9774    3.8542 H         1 LG7         0.0506
     25 H2         21.5414    4.6876    4.5718 H         1 LG7         0.0633
     26 H3         23.2470    6.4087    4.1385 H         1 LG7         0.0592
     27 H4         22.1530    2.3152    4.8691 H         1 LG7         0.0588
     28 H5         24.5534    1.4719    4.6920 H         1 LG7         0.0649
     29 H6         30.4938    1.7252    3.7265 H         1 LG7         0.2101
     30 H7         30.7826   -0.2754    4.8310 H         1 LG7         0.0643
     31 H8         29.8886   -2.3068    3.7218 H         1 LG7         0.0312
     32 H9         29.9949   -1.3033    2.2358 H         1 LG7         0.0312
     33 H10        27.4379   -2.1803    3.6983 H         1 LG7         0.0523
     34 H11        27.5520   -1.3927    2.0879 H         1 LG7         0.0523
     35 H12        28.3874   -0.4502    5.7772 H         1 LG7         0.0839
     36 H13        28.1451    6.3498    3.5328 H         1 LG7         0.0704
@<TRIPOS>BOND
     1   10    1 ar 
     2    1   22 ar 
     3    3    2 ar 
     4    6    2 ar 
     5    4    3 ar 
     6    4    5 ar 
     7    8    4 ar 
     8    5    9 1  
     9   22    5 ar 
    10    7    6 ar 
    11    8    7 ar 
    12   10    8 ar 
    13    9   23 3  
    14   19   10 1  
    15   12   11 1  
    16   12   13 1  
    17   16   12 1  
    18   14   13 1  
    19   15   14 1  
    20   16   15 1  
    21   15   20 am 
    22   17   16 1  
    23   17   18 2  
    24   17   19 am 
    25   19   20 am 
    26   20   21 2  
    27    1   24 1  
    28    2   25 1  
    29    3   26 1  
    30    6   27 1  
    31    7   28 1  
    32   11   29 1  
    33   12   30 1  
    34   13   31 1  
    35   13   32 1  
    36   14   33 1  
    37   14   34 1  
    38   16   35 1  
    39   22   36 1  
@<TRIPOS>SUBSTRUCTURE
     1 LG7         1

