### 
### Created by X-TOOL on Mon Sep 10 21:12:54 2018
### 

@<TRIPOS>MOLECULE
2iit_ligand
   48    49     1     0     0
SMALL
GAST_HUCK


@<TRIPOS>ATOM
      1 C1         34.5060   50.2940   36.6290 C.ar      1 872        -0.0030
      2 C2         35.8380   50.8090   36.6640 C.ar      1 872         0.1274
      3 C3         37.0040   49.9930   36.3950 C.ar      1 872        -0.0094
      4 C4         36.8100   48.6200   36.0840 C.ar      1 872        -0.0298
      5 C5         35.4910   48.0950   36.0480 C.ar      1 872         0.1544
      6 C6         34.3490   48.9130   36.3110 C.ar      1 872         0.1560
      7 F9         35.3270   46.8250   35.7560 F         1 872        -0.1895
      8 F10        36.0070   52.0830   36.9620 F         1 872        -0.1934
      9 C11        38.3900   50.5640   36.4280 C.3       1 872         0.0243
     10 C12        39.0600   50.8350   34.9990 C.3       1 872         0.0010
     11 C15        40.3430   51.6390   35.2880 C.3       1 872         0.0820
     12 C16        41.5090   50.8440   36.0310 C.2       1 872         0.1863
     13 N19        42.6970   51.5460   36.3720 N.am      1 872        -0.2512
     14 N20        38.2160   51.5680   34.3990 N.4       1 872         0.2238
     15 O22        41.3470   49.6470   36.3160 O.2       1 872        -0.3965
     16 C25        43.2020   52.6530   35.4770 C.3       1 872         0.0385
     17 C26        44.1280   52.1160   34.3920 C.3       1 872        -0.0121
     18 C27        45.3350   51.3840   34.9880 C.3       1 872         0.0328
     19 N28        45.0380   50.6120   36.1920 N.am      1 872        -0.2850
     20 C29        44.8420   50.5180   37.4650 C.2       1 872         0.2022
     21 C30        43.3710   51.0860   37.6760 C.3       1 872         0.1417
     22 C37        42.9910   51.0400   39.2170 C.3       1 872         0.0833
     23 O39        45.5080   50.1230   38.3960 O.2       1 872        -0.3945
     24 F41        33.1400   48.3780   36.2630 F         1 872        -0.1911
     25 C42        41.7010   50.3040   39.6050 C.3       1 872         0.3943
     26 F45        41.5430   50.3580   40.9130 F         1 872        -0.1705
     27 F46        41.7610   49.0300   39.2640 F         1 872        -0.1705
     28 F47        40.6390   50.8310   39.0300 F         1 872        -0.1705
     29 H1         33.6504   50.9267   36.8356 H         1 872         0.0562
     30 H2         37.6600   47.9801   35.8764 H         1 872         0.0522
     31 H3         39.0335   49.8596   36.9755 H         1 872         0.0467
     32 H4         38.3493   51.5205   36.9697 H         1 872         0.0467
     33 H5         39.2745   49.9106   34.4427 H         1 872         0.0898
     34 H6         40.0678   52.4990   35.9162 H         1 872         0.0560
     35 H7         40.7393   51.9987   34.3270 H         1 872         0.0560
     36 H8         37.3804   51.0356   34.2136 H         1 872         0.2000
     37 H9         38.6093   51.8899   33.5285 H         1 872         0.2000
     38 H10        37.9877   52.3608   34.9781 H         1 872         0.2000
     39 H11        43.7531   53.3832   36.0879 H         1 872         0.0525
     40 H12        42.3426   53.1476   35.0007 H         1 872         0.0525
     41 H13        44.4874   52.9575   33.7815 H         1 872         0.0304
     42 H14        43.5649   51.4164   33.7569 H         1 872         0.0304
     43 H15        46.1014   52.1320   35.2393 H         1 872         0.0520
     44 H16        45.7302   50.6955   34.2266 H         1 872         0.0520
     45 H17        44.9320   49.6748   35.8598 H         1 872         0.1851
     46 H18        42.8894   50.1058   37.5447 H         1 872         0.0805
     47 H19        42.8950   52.0793   39.5643 H         1 872         0.0400
     48 H20        43.8217   50.5514   39.7472 H         1 872         0.0400
@<TRIPOS>BOND
     1    1    2 ar 
     2    1    6 ar 
     3    2    3 ar 
     4    2    8 1  
     5    3    4 ar 
     6    3    9 1  
     7    4    5 ar 
     8    5    6 ar 
     9    5    7 1  
    10    6   24 1  
    11    9   10 1  
    12   10   11 1  
    13   10   14 1  
    14   11   12 1  
    15   12   13 am 
    16   12   15 2  
    17   13   16 1  
    18   13   21 1  
    19   16   17 1  
    20   17   18 1  
    21   18   19 1  
    22   19   20 am 
    23   20   21 1  
    24   20   23 2  
    25   21   22 1  
    26   22   25 1  
    27   25   26 1  
    28   25   27 1  
    29   25   28 1  
    30    1   29 1  
    31    4   30 1  
    32    9   31 1  
    33    9   32 1  
    34   10   33 1  
    35   11   34 1  
    36   11   35 1  
    37   14   36 1  
    38   14   37 1  
    39   14   38 1  
    40   16   39 1  
    41   16   40 1  
    42   17   41 1  
    43   17   42 1  
    44   18   43 1  
    45   18   44 1  
    46   19   45 1  
    47   21   46 1  
    48   22   47 1  
    49   22   48 1  
@<TRIPOS>SUBSTRUCTURE
     1 872         1

