### 
### Created by X-TOOL on Mon Sep 10 21:12:54 2018
### 

@<TRIPOS>MOLECULE
2iiv_ligand
   45    46     1     0     0
SMALL
GAST_HUCK


@<TRIPOS>ATOM
      1 C1         34.7000   50.5500   36.5840 C.ar      1 565        -0.0030
      2 C2         36.0540   51.0710   36.7240 C.ar      1 565         0.1274
      3 C3         37.2430   50.2260   36.5190 C.ar      1 565        -0.0094
      4 C4         37.0720   48.7950   36.1500 C.ar      1 565        -0.0298
      5 C5         35.7340   48.2770   36.0150 C.ar      1 565         0.1544
      6 C6         34.5550   49.1490   36.2190 C.ar      1 565         0.1560
      7 F9         35.5850   47.0200   35.6890 F         1 565        -0.1895
      8 F10        36.2030   52.3330   37.0530 F         1 565        -0.1934
      9 C11        38.5740   50.8570   36.6630 C.3       1 565         0.0243
     10 C12        39.1390   51.0660   35.1800 C.3       1 565         0.0010
     11 C15        40.3530   51.6800   35.4530 C.3       1 565         0.0820
     12 C16        41.5560   50.7780   36.0350 C.2       1 565         0.1863
     13 N19        42.7820   51.3560   36.2440 N.am      1 565        -0.2518
     14 N20        38.1960   51.9020   34.3830 N.4       1 565         0.2238
     15 O22        41.3270   49.6030   36.2840 O.2       1 565        -0.3965
     16 C25        43.1670   52.8320   35.9440 C.3       1 565         0.0385
     17 C26        43.4840   52.7220   34.5340 C.3       1 565        -0.0121
     18 C27        44.7480   51.9710   34.1250 C.3       1 565         0.0328
     19 N28        45.5590   51.4650   35.3340 N.am      1 565        -0.2850
     20 C29        45.2520   50.7720   36.5430 C.2       1 565         0.2016
     21 C30        43.7280   50.3240   36.8810 C.3       1 565         0.1307
     22 C37        43.8140   50.2170   38.4110 C.3       1 565        -0.0242
     23 O42        46.1800   50.5780   37.2490 O.2       1 565        -0.3945
     24 F44        33.3870   48.6660   36.0840 F         1 565        -0.1911
     25 H1         33.8343   51.1820   36.7456 H         1 565         0.0562
     26 H2         37.9332   48.1572   35.9866 H         1 565         0.0522
     27 H3         39.2455   50.2015   37.2369 H         1 565         0.0467
     28 H4         38.4820   51.8262   37.1749 H         1 565         0.0467
     29 H5         39.2923   50.1070   34.6635 H         1 565         0.0898
     30 H6         40.1574   52.4744   36.1883 H         1 565         0.0560
     31 H7         40.7085   52.1291   34.5139 H         1 565         0.0560
     32 H8         37.3422   51.3894   34.2270 H         1 565         0.2000
     33 H9         38.6171   52.1311   33.4963 H         1 565         0.2000
     34 H10        37.9911   52.7506   34.8869 H         1 565         0.2000
     35 H11        44.0364   53.1563   36.5347 H         1 565         0.0525
     36 H12        42.3261   53.5185   36.1219 H         1 565         0.0525
     37 H13        43.5738   53.7455   34.1412 H         1 565         0.0304
     38 H14        42.6357   52.2164   34.0496 H         1 565         0.0304
     39 H15        45.3830   52.6473   33.5340 H         1 565         0.0520
     40 H16        44.4596   51.1068   33.5087 H         1 565         0.0520
     41 H17        46.5339   51.6719   35.2514 H         1 565         0.1851
     42 H18        43.4870   49.3372   36.4589 H         1 565         0.0799
     43 H19        44.5350   49.4323   38.6837 H         1 565         0.0277
     44 H20        42.8239   49.9623   38.8170 H         1 565         0.0277
     45 H21        44.1447   51.1797   38.8279 H         1 565         0.0277
@<TRIPOS>BOND
     1    1    2 ar 
     2    1    6 ar 
     3    2    3 ar 
     4    2    8 1  
     5    3    4 ar 
     6    3    9 1  
     7    4    5 ar 
     8    5    6 ar 
     9    5    7 1  
    10    6   24 1  
    11    9   10 1  
    12   10   11 1  
    13   10   14 1  
    14   11   12 1  
    15   12   13 am 
    16   12   15 2  
    17   13   16 1  
    18   13   21 1  
    19   16   17 1  
    20   17   18 1  
    21   18   19 1  
    22   19   20 am 
    23   20   21 1  
    24   20   23 2  
    25   21   22 1  
    26    1   25 1  
    27    4   26 1  
    28    9   27 1  
    29    9   28 1  
    30   10   29 1  
    31   11   30 1  
    32   11   31 1  
    33   14   32 1  
    34   14   33 1  
    35   14   34 1  
    36   16   35 1  
    37   16   36 1  
    38   17   37 1  
    39   17   38 1  
    40   18   39 1  
    41   18   40 1  
    42   19   41 1  
    43   21   42 1  
    44   22   43 1  
    45   22   44 1  
    46   22   45 1  
@<TRIPOS>SUBSTRUCTURE
     1 565         1

