### 
### Created by X-TOOL on Mon Sep 10 21:12:54 2018
### 

@<TRIPOS>MOLECULE
2iko_ligand
   45    47     1     0     0
SMALL
GAST_HUCK


@<TRIPOS>ATOM
      1 C1        -10.6750   27.5920  -34.9490 C.ar      1 7IG         0.1106
      2 N1         -9.6280   28.0920  -34.2470 N.ar      1 7IG        -0.2516
      3 C2         -9.4740   27.8010  -32.9260 C.ar      1 7IG         0.1614
      4 N2        -10.3490   27.0210  -32.2540 N.ar      1 7IG        -0.2743
      5 C3        -11.4310   26.4480  -32.8330 C.ar      1 7IG         0.0233
      6 C4        -11.6750   26.7170  -34.2630 C.ar      1 7IG         0.0318
      7 N3        -10.8030   27.8930  -36.2590 N.pl3     1 7IG        -0.3184
      8 N4         -8.4280   28.3300  -32.2490 N.pl3     1 7IG        -0.3081
      9 C5        -12.3320   25.5720  -31.9970 C.3       1 7IG        -0.0070
     10 C6        -11.7550   24.1820  -31.8960 C.3       1 7IG        -0.0521
     11 C7        -13.3060   24.2540  -36.5100 C.ar      1 7IG        -0.0461
     12 C8        -12.4060   24.9870  -35.7530 C.ar      1 7IG        -0.0699
     13 C9        -12.8070   26.0850  -35.0030 C.ar      1 7IG        -0.0354
     14 C10       -14.1460   26.4810  -35.0040 C.ar      1 7IG        -0.0699
     15 C11       -15.0620   25.7490  -35.7700 C.ar      1 7IG        -0.0461
     16 C12       -14.6460   24.6320  -36.5210 C.ar      1 7IG         0.0379
     17 N5        -15.5390   23.9210  -37.2610 N.pl3     1 7IG        -0.3127
     18 C13       -14.3550   22.3330  -41.6920 C.ar      1 7IG         0.1242
     19 C14       -14.7750   22.0920  -40.3950 C.ar      1 7IG        -0.0292
     20 C15       -14.6630   23.0830  -39.4340 C.ar      1 7IG        -0.0256
     21 C16       -14.1300   24.3400  -39.7850 C.ar      1 7IG        -0.0292
     22 C17       -13.7210   24.5900  -41.0940 C.ar      1 7IG         0.1242
     23 C18       -13.8320   23.5790  -42.0440 C.ar      1 7IG        -0.0019
     24 F1        -14.4690   21.3530  -42.6100 F         1 7IG        -0.1863
     25 C19       -15.1600   22.7420  -38.0430 C.3       1 7IG         0.0556
     26 F2        -13.2040   25.7960  -41.4360 F         1 7IG        -0.1863
     27 H1        -11.5956   27.5170  -36.7988 H         1 7IG         0.1812
     28 H2        -10.1081   28.4986  -36.7186 H         1 7IG         0.1812
     29 H3         -7.7471   28.9279  -32.7386 H         1 7IG         0.1825
     30 H4         -8.3130   28.1346  -31.2443 H         1 7IG         0.1825
     31 H5        -13.3259   25.5202  -32.4655 H         1 7IG         0.0471
     32 H6        -12.4239   26.0019  -30.9887 H         1 7IG         0.0471
     33 H7        -12.4191   23.5528  -31.2852 H         1 7IG         0.0257
     34 H8        -10.7616   24.2306  -31.4261 H         1 7IG         0.0257
     35 H9        -11.6636   23.7489  -32.9030 H         1 7IG         0.0257
     36 H10       -12.9715   23.3984  -37.0855 H         1 7IG         0.0512
     37 H11       -11.3619   24.6958  -35.7460 H         1 7IG         0.0561
     38 H12       -14.4699   27.3374  -34.4238 H         1 7IG         0.0561
     39 H13       -16.1045   26.0458  -35.7852 H         1 7IG         0.0512
     40 H14       -16.5232   24.2246  -37.2718 H         1 7IG         0.1780
     41 H15       -15.1919   21.1267  -40.1314 H         1 7IG         0.0509
     42 H16       -14.0378   25.1158  -39.0335 H         1 7IG         0.0509
     43 H17       -13.5105   23.7599  -43.0633 H         1 7IG         0.0532
     44 H18       -16.0388   22.0871  -38.1365 H         1 7IG         0.0674
     45 H19       -14.3608   22.2090  -37.5071 H         1 7IG         0.0674
@<TRIPOS>BOND
     1    1    2 ar 
     2    6    1 ar 
     3    1    7 1  
     4    2    3 ar 
     5    4    3 ar 
     6    3    8 1  
     7    5    4 ar 
     8    6    5 ar 
     9    5    9 1  
    10   13    6 1  
    11    9   10 1  
    12   11   12 ar 
    13   16   11 ar 
    14   12   13 ar 
    15   14   13 ar 
    16   15   14 ar 
    17   16   15 ar 
    18   17   16 1  
    19   25   17 1  
    20   19   18 ar 
    21   18   23 ar 
    22   18   24 1  
    23   20   19 ar 
    24   20   21 ar 
    25   20   25 1  
    26   21   22 ar 
    27   22   23 ar 
    28   22   26 1  
    29    7   27 1  
    30    7   28 1  
    31    8   29 1  
    32    8   30 1  
    33    9   31 1  
    34    9   32 1  
    35   10   33 1  
    36   10   34 1  
    37   10   35 1  
    38   11   36 1  
    39   12   37 1  
    40   14   38 1  
    41   15   39 1  
    42   17   40 1  
    43   19   41 1  
    44   21   42 1  
    45   23   43 1  
    46   25   44 1  
    47   25   45 1  
@<TRIPOS>SUBSTRUCTURE
     1 7IG         1

