### 
### Created by X-TOOL on Mon Sep 10 21:12:54 2018
### 

@<TRIPOS>MOLECULE
2iku_ligand
   62    65     1     0     0
SMALL
GAST_HUCK


@<TRIPOS>ATOM
      1 N1         -9.6520   28.0120  -34.2670 N.ar      1 LIY        -0.2505
      2 N3        -10.7850   27.7760  -36.2880 N.pl3     1 LIY        -0.3179
      3 C4        -11.6130   26.6000  -34.2870 C.ar      1 LIY         0.0325
      4 C6        -12.2430   25.4260  -32.0240 C.3       1 LIY        -0.0064
      5 C7        -14.0190   26.2270  -35.0350 C.ar      1 LIY        -0.0788
      6 C8        -14.8920   25.4520  -35.8030 C.ar      1 LIY        -0.0739
      7 C10       -13.0110   24.0520  -36.5590 C.ar      1 LIY         0.0417
      8 C13       -15.3710   23.5660  -37.3940 C.3       1 LIY        -0.0198
      9 C15       -13.3670   22.2390  -38.2960 C.3       1 LIY         0.0718
     10 C17       -10.7670   21.8740  -35.9850 C.3       1 LIY        -0.0098
     11 C20       -11.8670   23.9880  -32.3150 C.3       1 LIY        -0.0520
     12 C21       -13.3990   22.8230  -39.6630 C.ar      1 LIY        -0.0186
     13 C22       -13.8150   21.9950  -40.7150 C.ar      1 LIY        -0.0582
     14 C24       -13.5150   23.7930  -42.2840 C.ar      1 LIY        -0.0687
     15 C26       -13.0480   24.1490  -39.9340 C.ar      1 LIY        -0.0582
     16 C1        -10.6620   27.4800  -34.9800 C.ar      1 LIY         0.1119
     17 C3        -11.3680   26.3380  -32.8500 C.ar      1 LIY         0.0247
     18 N2        -10.3320   26.9490  -32.2640 N.ar      1 LIY        -0.2731
     19 C2         -9.4850   27.7440  -32.9570 C.ar      1 LIY         0.1624
     20 N4         -8.4480   28.3300  -32.3210 N.pl3     1 LIY        -0.3076
     21 C12       -12.6800   25.9250  -35.0460 C.ar      1 LIY        -0.0419
     22 C11       -12.1890   24.8560  -35.7890 C.ar      1 LIY        -0.0484
     23 C9        -14.4350   24.3790  -36.5550 C.ar      1 LIY        -0.0265
     24 C14       -14.7830   22.2060  -37.7370 C.3       1 LIY        -0.0130
     25 C23       -13.8690   22.4750  -42.0160 C.ar      1 LIY        -0.0685
     26 C25       -13.1030   24.6250  -41.2500 C.ar      1 LIY        -0.0685
     27 N5        -12.5300   22.9780  -37.3430 N.pl3     1 LIY        -0.2984
     28 C16       -11.1230   22.5140  -37.3320 C.3       1 LIY         0.0298
     29 C18        -9.2570   21.6930  -35.8620 C.3       1 LIY         0.0491
     30 O1         -8.8570   20.9230  -34.7170 O.3       1 LIY        -0.3829
     31 C19        -7.4240   20.8230  -34.5950 C.3       1 LIY         0.0364
     32 H1        -11.5565   27.3710  -36.8373 H         1 LIY         0.1815
     33 H2        -10.1076   28.4073  -36.7391 H         1 LIY         0.1815
     34 H3        -12.0919   25.6380  -30.9553 H         1 LIY         0.0473
     35 H4        -13.2987   25.5915  -32.2850 H         1 LIY         0.0473
     36 H5        -14.3929   27.0528  -34.4406 H         1 LIY         0.0466
     37 H6        -15.9486   25.6941  -35.8115 H         1 LIY         0.0515
     38 H7        -15.5775   24.1105  -38.3272 H         1 LIY         0.0399
     39 H8        -16.3098   23.4188  -36.8399 H         1 LIY         0.0399
     40 H9        -12.9802   21.2121  -38.3726 H         1 LIY         0.0712
     41 H10       -11.2566   20.8918  -35.9102 H         1 LIY         0.0306
     42 H11       -11.1212   22.5233  -35.1708 H         1 LIY         0.0306
     43 H12       -12.4997   23.3154  -31.7172 H         1 LIY         0.0257
     44 H13       -10.8107   23.8253  -32.0547 H         1 LIY         0.0257
     45 H14       -12.0175   23.7788  -33.3844 H         1 LIY         0.0257
     46 H15       -14.0975   20.9687  -40.5100 H         1 LIY         0.0557
     47 H16       -13.5604   24.1711  -43.2989 H         1 LIY         0.0559
     48 H17       -12.7350   24.8051  -39.1299 H         1 LIY         0.0557
     49 H18        -7.7997   28.9364  -32.8434 H         1 LIY         0.1828
     50 H19        -8.3053   28.1706  -31.3135 H         1 LIY         0.1828
     51 H20       -11.1259   24.6457  -35.7638 H         1 LIY         0.0462
     52 H21       -15.4344   21.7317  -38.4859 H         1 LIY         0.0328
     53 H22       -14.7739   21.5974  -36.8208 H         1 LIY         0.0328
     54 H23       -14.1866   21.8236  -42.8221 H         1 LIY         0.0599
     55 H24       -12.8221   25.6500  -41.4636 H         1 LIY         0.0599
     56 H25       -10.9827   21.7716  -38.1315 H         1 LIY         0.0513
     57 H26       -10.4594   23.3732  -37.5088 H         1 LIY         0.0513
     58 H27        -8.7931   22.6878  -35.7902 H         1 LIY         0.0560
     59 H28        -8.8939   21.1834  -36.7667 H         1 LIY         0.0560
     60 H29        -7.1725   20.2259  -33.7060 H         1 LIY         0.0523
     61 H30        -6.9934   21.8302  -34.4940 H         1 LIY         0.0523
     62 H31        -7.0127   20.3365  -35.4917 H         1 LIY         0.0523
@<TRIPOS>BOND
     1   16    1 ar 
     2    1   19 ar 
     3   16    2 1  
     4    3   16 ar 
     5    3   17 ar 
     6   21    3 1  
     7    4   11 1  
     8   17    4 1  
     9    6    5 ar 
    10   21    5 ar 
    11   23    6 ar 
    12    7   22 ar 
    13    7   23 ar 
    14   27    7 1  
    15   23    8 1  
    16   24    8 1  
    17    9   12 1  
    18    9   24 1  
    19   27    9 1  
    20   28   10 1  
    21   10   29 1  
    22   12   13 ar 
    23   12   15 ar 
    24   13   25 ar 
    25   25   14 ar 
    26   26   14 ar 
    27   15   26 ar 
    28   17   18 ar 
    29   18   19 ar 
    30   19   20 1  
    31   22   21 ar 
    32   27   28 1  
    33   29   30 1  
    34   30   31 1  
    35    2   32 1  
    36    2   33 1  
    37    4   34 1  
    38    4   35 1  
    39    5   36 1  
    40    6   37 1  
    41    8   38 1  
    42    8   39 1  
    43    9   40 1  
    44   10   41 1  
    45   10   42 1  
    46   11   43 1  
    47   11   44 1  
    48   11   45 1  
    49   13   46 1  
    50   14   47 1  
    51   15   48 1  
    52   20   49 1  
    53   20   50 1  
    54   22   51 1  
    55   24   52 1  
    56   24   53 1  
    57   25   54 1  
    58   26   55 1  
    59   28   56 1  
    60   28   57 1  
    61   29   58 1  
    62   29   59 1  
    63   31   60 1  
    64   31   61 1  
    65   31   62 1  
@<TRIPOS>SUBSTRUCTURE
     1 LIY         1

