### 
### Created by X-TOOL on Fri Sep 26 17:34:33 2014
### 

@<TRIPOS>MOLECULE
2il2_ligand
   82    86     1     0     0
SMALL
GAST_HUCK


@<TRIPOS>ATOM
      1 N1        -56.9420  -18.1290  -35.1670 N.ar      1 LIX        -0.2510
      2 N3        -55.9500  -20.1930  -34.7420 N.pl3     1 LIX        -0.3026
      3 C4        -56.4020  -18.6700  -32.8460 C.ar      1 LIX         0.0299
      4 C5        -56.9640  -16.8510  -31.0380 C.3       1 LIX        -0.0068
      5 C6        -55.8280  -15.8800  -30.8180 C.3       1 LIX        -0.0521
      6 C7        -56.5010  -20.3830  -30.9480 C.ar      1 LIX        -0.0816
      7 C8        -55.7560  -21.1320  -30.0410 C.ar      1 LIX        -0.0468
      8 C10       -53.6610  -20.2180  -30.8950 C.ar      1 LIX         0.0988
      9 C13       -51.4960  -22.5700  -28.2630 C.3       1 LIX        -0.0252
     10 C15       -51.5760  -21.0500  -30.1630 C.2       1 LIX         0.2559
     11 C17       -51.4790  -17.7810  -31.0540 C.3       1 LIX        -0.0039
     12 C20       -56.0640  -20.5130  -36.1470 C.3       1 LIX         0.0461
     13 C21       -54.9800  -21.4490  -36.6400 C.3       1 LIX         0.0470
     14 C22       -52.4610  -23.3440  -30.4760 C.3       1 LIX        -0.0252
     15 C24       -50.9720  -25.8590  -35.9970 C.ar      1 LIX        -0.0540
     16 C26       -52.0240  -25.4720  -38.2060 C.ar      1 LIX        -0.0178
     17 C28       -51.3260  -27.7000  -37.5830 C.ar      1 LIX        -0.0612
     18 O5        -51.9700  -20.7280  -35.9970 O.2       1 LIX        -0.1503
     19 S1        -52.4220  -21.1570  -37.3030 S.o2      1 LIX         0.0683
     20 O4        -51.6920  -20.5020  -38.3550 O.2       1 LIX        -0.1503
     21 C30       -52.2580  -22.7310  -37.5480 C.ar      1 LIX         0.1087
     22 C29       -51.6700  -23.5920  -36.6010 C.ar      1 LIX        -0.0274
     23 C25       -51.5450  -24.9560  -36.8900 C.ar      1 LIX        -0.0160
     24 C31       -52.6990  -23.2230  -38.7820 C.ar      1 LIX        -0.0345
     25 C32       -52.5860  -24.5740  -39.1090 C.ar      1 LIX        -0.0522
     26 C27       -51.9000  -26.8330  -38.5150 C.ar      1 LIX        -0.0540
     27 C23       -50.8680  -27.2180  -36.3450 C.ar      1 LIX        -0.0612
     28 N6        -53.9650  -20.7380  -37.3890 N.am      1 LIX        -0.2455
     29 C1        -56.4250  -19.0180  -34.2910 C.ar      1 LIX         0.1135
     30 C3        -56.9430  -17.3500  -32.4630 C.ar      1 LIX         0.0237
     31 N2        -57.4290  -16.5700  -33.4550 N.ar      1 LIX        -0.2738
     32 C2        -57.4150  -16.9350  -34.7530 C.ar      1 LIX         0.1618
     33 N4        -57.9190  -16.0710  -35.6560 N.pl3     1 LIX        -0.3079
     34 C12       -55.8070  -19.5530  -31.8250 C.ar      1 LIX        -0.0466
     35 C11       -54.4180  -19.4760  -31.7980 C.ar      1 LIX        -0.0452
     36 N5        -52.2380  -20.1460  -30.8900 N.am      1 LIX        -0.2193
     37 C16       -51.4910  -19.1560  -31.7090 C.3       1 LIX         0.0563
     38 C18       -50.8590  -16.7870  -32.0420 C.3       1 LIX         0.0496
     39 O1        -50.7030  -15.5080  -31.4540 O.3       1 LIX        -0.3829
     40 C19       -50.1970  -14.5020  -32.3370 C.3       1 LIX         0.0364
     41 O3        -50.3690  -21.0000  -30.0680 O.2       1 LIX        -0.3352
     42 C14       -52.3160  -22.1850  -29.4840 C.3       1 LIX         0.1655
     43 O2        -53.6390  -21.8010  -29.0990 O.3       1 LIX        -0.3129
     44 C9        -54.3530  -21.0550  -30.0090 C.ar      1 LIX         0.1115
     45 H1        -55.5089  -20.8589  -34.0917 H         1 LIX         0.1850
     46 H2        -57.9205  -16.3440  -30.8429 H         1 LIX         0.0472
     47 H3        -56.8539  -17.7032  -30.3513 H         1 LIX         0.0472
     48 H4        -55.8490  -15.5205  -29.7786 H         1 LIX         0.0257
     49 H5        -55.9371  -15.0266  -31.5034 H         1 LIX         0.0257
     50 H6        -54.8706  -16.3858  -31.0117 H         1 LIX         0.0257
     51 H7        -57.5831  -20.4438  -30.9707 H         1 LIX         0.0448
     52 H8        -56.2682  -21.7874  -29.3459 H         1 LIX         0.0496
     53 H9        -51.9938  -23.3950  -27.7323 H         1 LIX         0.0246
     54 H10       -51.4079  -21.7028  -27.5921 H         1 LIX         0.0246
     55 H11       -50.4931  -22.8909  -28.5811 H         1 LIX         0.0246
     56 H12       -50.8799  -17.8127  -30.1320 H         1 LIX         0.0312
     57 H13       -52.5074  -17.4742  -30.8128 H         1 LIX         0.0312
     58 H14       -56.0061  -19.5780  -36.7235 H         1 LIX         0.0540
     59 H15       -57.0406  -20.9895  -36.3181 H         1 LIX         0.0540
     60 H16       -55.4345  -22.2118  -37.2892 H         1 LIX         0.0496
     61 H17       -54.5088  -21.9376  -35.7744 H         1 LIX         0.0496
     62 H18       -53.0600  -23.0158  -31.3383 H         1 LIX         0.0246
     63 H19       -52.9623  -24.1892  -29.9817 H         1 LIX         0.0246
     64 H20       -51.4648  -23.6589  -30.8202 H         1 LIX         0.0246
     65 H21       -50.6071  -25.5150  -35.0360 H         1 LIX         0.0624
     66 H22       -51.2329  -28.7544  -37.8166 H         1 LIX         0.0618
     67 H23       -51.3163  -23.2007  -35.6540 H         1 LIX         0.0643
     68 H24       -53.1380  -22.5389  -39.4992 H         1 LIX         0.0637
     69 H25       -52.9378  -24.9268  -40.0717 H         1 LIX         0.0624
     70 H26       -52.2470  -27.2100  -39.4703 H         1 LIX         0.0624
     71 H27       -50.4232  -27.9111  -35.6402 H         1 LIX         0.0618
     72 H28       -54.2329  -19.9704  -37.9713 H         1 LIX         0.1673
     73 H29       -57.9246  -16.3165  -36.6563 H         1 LIX         0.1826
     74 H30       -58.2986  -15.1651  -35.3459 H         1 LIX         0.1826
     75 H31       -53.9119  -18.8213  -32.4982 H         1 LIX         0.0443
     76 H32       -50.4541  -19.5028  -31.8300 H         1 LIX         0.0587
     77 H33       -51.9688  -19.0767  -32.6966 H         1 LIX         0.0587
     78 H34       -51.5140  -16.6998  -32.9214 H         1 LIX         0.0560
     79 H35       -49.8728  -17.1604  -32.3549 H         1 LIX         0.0560
     80 H36       -50.1102  -13.5486  -31.7952 H         1 LIX         0.0523
     81 H37       -50.8852  -14.3797  -33.1863 H         1 LIX         0.0523
     82 H38       -49.2066  -14.8043  -32.7081 H         1 LIX         0.0523
@<TRIPOS>BOND
     1   29    1 ar 
     2    1   32 ar 
     3    2   12 1  
     4   29    2 1  
     5    3   29 ar 
     6    3   30 ar 
     7   34    3 1  
     8    4    5 1  
     9   30    4 1  
    10    7    6 ar 
    11   34    6 ar 
    12   44    7 ar 
    13    8   35 ar 
    14   36    8 1  
    15    8   44 ar 
    16   42    9 1  
    17   36   10 am 
    18   10   41 2  
    19   10   42 1  
    20   37   11 1  
    21   11   38 1  
    22   12   13 1  
    23   13   28 1  
    24   42   14 1  
    25   23   15 ar 
    26   15   27 ar 
    27   23   16 ar 
    28   25   16 ar 
    29   16   26 ar 
    30   26   17 ar 
    31   27   17 ar 
    32   19   18 2  
    33   19   20 2  
    34   19   21 1  
    35   28   19 am 
    36   21   22 ar 
    37   21   24 ar 
    38   22   23 ar 
    39   24   25 ar 
    40   30   31 ar 
    41   31   32 ar 
    42   32   33 1  
    43   35   34 ar 
    44   36   37 1  
    45   38   39 1  
    46   39   40 1  
    47   42   43 1  
    48   43   44 1  
    49    2   45 1  
    50    4   46 1  
    51    4   47 1  
    52    5   48 1  
    53    5   49 1  
    54    5   50 1  
    55    6   51 1  
    56    7   52 1  
    57    9   53 1  
    58    9   54 1  
    59    9   55 1  
    60   11   56 1  
    61   11   57 1  
    62   12   58 1  
    63   12   59 1  
    64   13   60 1  
    65   13   61 1  
    66   14   62 1  
    67   14   63 1  
    68   14   64 1  
    69   15   65 1  
    70   17   66 1  
    71   22   67 1  
    72   24   68 1  
    73   25   69 1  
    74   26   70 1  
    75   27   71 1  
    76   28   72 1  
    77   33   73 1  
    78   33   74 1  
    79   35   75 1  
    80   37   76 1  
    81   37   77 1  
    82   38   78 1  
    83   38   79 1  
    84   40   80 1  
    85   40   81 1  
    86   40   82 1  
@<TRIPOS>SUBSTRUCTURE
     1 LIX         1

