### 
### Created by X-TOOL on Mon Sep 10 21:12:55 2018
### 

@<TRIPOS>MOLECULE
2ilp_ligand
   21    21     1     0     0
SMALL
GAST_HUCK


@<TRIPOS>ATOM
      1 O12        -5.1480   -6.0740   21.4580 O.2       1 GB5        -0.3909
      2 C11        -4.3600   -6.6480   22.1930 C.2       1 GB5         0.2147
      3 N13        -3.8010   -6.0090   23.2180 N.am      1 GB5        -0.1658
      4 O14        -4.0290   -4.6500   23.4070 O.3       1 GB5        -0.2725
      5 C10        -3.9550   -8.0410   21.9050 C.2       1 GB5         0.0127
      6 C9         -4.3270   -8.6090   20.7460 C.2       1 GB5        -0.0381
      7 C1         -3.9600   -9.9950   20.3370 C.ar      1 GB5        -0.0149
      8 C2         -3.1550  -10.8420   21.1130 C.ar      1 GB5        -0.0498
      9 C3         -2.8550  -12.1340   20.6600 C.ar      1 GB5        -0.0442
     10 C4         -3.3530  -12.5970   19.4440 C.ar      1 GB5         0.0436
     11 CL1        -3.0330  -13.9980   18.9730 Cl        1 GB5        -0.0675
     12 C5         -4.1470  -11.7480   18.6720 C.ar      1 GB5        -0.0442
     13 C6         -4.4530  -10.4600   19.1140 C.ar      1 GB5        -0.0498
     14 H1         -3.2142   -6.5084   23.8554 H         1 GB5         0.2204
     15 H2         -3.5588   -4.3554   24.1782 H         1 GB5         0.2490
     16 H3         -3.3608   -8.6009   22.6257 H         1 GB5         0.0668
     17 H4         -4.9354   -8.0196   20.0615 H         1 GB5         0.0744
     18 H5         -2.7647  -10.4971   22.0637 H         1 GB5         0.0649
     19 H6         -2.2280  -12.7808   21.2630 H         1 GB5         0.0631
     20 H7         -4.5304  -12.0927   17.7184 H         1 GB5         0.0631
     21 H8         -5.0770   -9.8159   18.5051 H         1 GB5         0.0649
@<TRIPOS>BOND
     1    1    2 2  
     2    2    3 am 
     3    2    5 1  
     4    3    4 1  
     5    5    6 2  
     6    6    7 1  
     7    7    8 ar 
     8    7   13 ar 
     9    8    9 ar 
    10    9   10 ar 
    11   10   11 1  
    12   10   12 ar 
    13   12   13 ar 
    14    3   14 1  
    15    4   15 1  
    16    5   16 1  
    17    6   17 1  
    18    8   18 1  
    19    9   19 1  
    20   12   20 1  
    21   13   21 1  
@<TRIPOS>SUBSTRUCTURE
     1 GB5         1

