### 
### Created by X-TOOL on Mon Sep 10 21:12:55 2018
### 

@<TRIPOS>MOLECULE
2ima_ligand
   21    21     1     0     0
SMALL
GAST_HUCK


@<TRIPOS>ATOM
      1 O12        -5.0600   -6.0420   21.5510 O.2       1 GB4        -0.3909
      2 C11        -4.4400   -6.6520   22.3990 C.2       1 GB4         0.2146
      3 N13        -3.9430   -5.9910   23.4490 N.am      1 GB4        -0.1658
      4 O14        -4.0630   -4.6040   23.5210 O.3       1 GB4        -0.2725
      5 C10        -4.1600   -8.0950   22.2090 C.2       1 GB4         0.0126
      6 C9         -4.4460   -8.6720   21.0240 C.2       1 GB4        -0.0380
      7 C1         -4.1450  -10.1000   20.6790 C.ar      1 GB4        -0.0013
      8 C6         -4.3540  -10.5370   19.3750 C.ar      1 GB4         0.0527
      9 CL8        -5.0020   -9.4700   18.1250 Cl        1 GB4        -0.0662
     10 C5         -4.0760  -11.8160   18.9550 C.ar      1 GB4        -0.0302
     11 C2         -3.6130  -11.0170   21.5920 C.ar      1 GB4        -0.0495
     12 C3         -3.3240  -12.3260   21.1810 C.ar      1 GB4        -0.0441
     13 C4         -3.5660  -12.7170   19.8650 C.ar      1 GB4         0.0441
     14 CL7        -3.2190  -14.3620   19.2950 Cl        1 GB4        -0.0675
     15 H1         -3.4848   -6.4917   24.1834 H         1 GB4         0.2204
     16 H2         -3.6606   -4.2937   24.3237 H         1 GB4         0.2490
     17 H3         -3.7280   -8.6830   23.0175 H         1 GB4         0.0667
     18 H4         -4.9290   -8.0583   20.2650 H         1 GB4         0.0743
     19 H5         -4.2545  -12.1106   17.9272 H         1 GB4         0.0637
     20 H6         -3.4244  -10.7158   22.6161 H         1 GB4         0.0649
     21 H7         -2.9112  -13.0360   21.8886 H         1 GB4         0.0632
@<TRIPOS>BOND
     1    1    2 2  
     2    2    3 am 
     3    2    5 1  
     4    3    4 1  
     5    5    6 2  
     6    6    7 1  
     7    7    8 ar 
     8    7   11 ar 
     9    8    9 1  
    10    8   10 ar 
    11   10   13 ar 
    12   11   12 ar 
    13   12   13 ar 
    14   13   14 1  
    15    3   15 1  
    16    4   16 1  
    17    5   17 1  
    18    6   18 1  
    19   10   19 1  
    20   11   20 1  
    21   12   21 1  
@<TRIPOS>SUBSTRUCTURE
     1 GB4         1

