### 
### Created by X-TOOL on Mon Sep 10 21:12:55 2018
### 

@<TRIPOS>MOLECULE
2imb_ligand
   30    29     1     0     0
SMALL
GAST_HUCK


@<TRIPOS>ATOM
      1 N1         -6.4480   -8.8210   22.2770 N.4       1 AHL         0.2379
      2 CA         -5.2640   -8.5070   23.0420 C.3       1 AHL         0.0667
      3 CB         -4.1750   -9.5580   22.7610 C.3       1 AHL         0.0110
      4 CG         -2.8980   -9.0530   22.0940 C.3       1 AHL        -0.0125
      5 CD         -1.8290  -10.1460   22.0830 C.3       1 AHL         0.0629
      6 NE         -2.2900  -11.2180   21.1980 N.pl3     1 AHL        -0.2723
      7 CZ         -2.2790  -11.3240   19.8510 C.cat     1 AHL         0.2882
      8 NH1        -2.7720  -12.4320   19.3040 N.pl3     1 AHL        -0.2849
      9 NH2        -1.7870  -10.3730   19.0370 N.pl3     1 AHL        -0.2849
     10 C          -4.8410   -7.1090   22.7280 C.2       1 AHL         0.2472
     11 O1         -4.9910   -6.6530   21.6000 O.2       1 AHL        -0.3907
     12 N2         -4.3050   -6.4730   23.7690 N.am      1 AHL        -0.1596
     13 O2         -3.8710   -5.1610   23.6450 O.3       1 AHL        -0.2716
     14 H1         -6.7408   -9.7633   22.4827 H         1 AHL         0.2015
     15 H2         -6.2438   -8.7399   21.2933 H         1 AHL         0.2015
     16 H3         -7.1858   -8.1791   22.5211 H         1 AHL         0.2015
     17 H4         -5.5108   -8.5548   24.1129 H         1 AHL         0.1097
     18 H5         -4.6127  -10.3262   22.1066 H         1 AHL         0.0346
     19 H6         -3.8929  -10.0124   23.7222 H         1 AHL         0.0346
     20 H7         -2.5195   -8.1826   22.6500 H         1 AHL         0.0302
     21 H8         -3.1233   -8.7572   21.0588 H         1 AHL         0.0302
     22 H9         -1.6846  -10.5378   23.1007 H         1 AHL         0.0689
     23 H10        -0.8790   -9.7359   21.7097 H         1 AHL         0.0689
     24 H11        -2.6917  -12.0310   21.6864 H         1 AHL         0.2642
     25 H12        -2.7775  -12.5423   18.2799 H         1 AHL         0.2615
     26 H13        -3.1482  -13.1795   19.9046 H         1 AHL         0.2615
     27 H14        -1.3993   -9.5053   19.4341 H         1 AHL         0.2615
     28 H15        -1.7980  -10.5124   18.0165 H         1 AHL         0.2615
     29 H16        -4.2149   -6.9448   24.6461 H         1 AHL         0.2218
     30 H17        -3.1952   -5.1138   22.9789 H         1 AHL         0.2490
@<TRIPOS>BOND
     1    1    2 1  
     2    2    3 1  
     3    2   10 1  
     4    3    4 1  
     5    4    5 1  
     6    5    6 1  
     7    6    7 ar 
     8    7    8 ar 
     9    7    9 ar 
    10   10   11 2  
    11   10   12 am 
    12   12   13 1  
    13    1   14 1  
    14    1   15 1  
    15    1   16 1  
    16    2   17 1  
    17    3   18 1  
    18    3   19 1  
    19    4   20 1  
    20    4   21 1  
    21    5   22 1  
    22    5   23 1  
    23    6   24 1  
    24    8   25 1  
    25    8   26 1  
    26    9   27 1  
    27    9   28 1  
    28   12   29 1  
    29   13   30 1  
@<TRIPOS>SUBSTRUCTURE
     1 AHL         1

