### 
### Created by X-TOOL on Mon Sep 10 21:12:55 2018
### 

@<TRIPOS>MOLECULE
2imd_ligand
   32    31     1     0     0
SMALL
GAST_HUCK


@<TRIPOS>ATOM
      1 N1         33.4030   38.1000   36.9290 N.4       1 GSH         0.2328
      2 CA1        32.1120   38.7410   36.7510 C.3       1 GSH         0.0304
      3 C1         31.1180   38.7640   37.8130 C.2       1 GSH         0.0846
      4 O11        30.0580   39.4960   37.7650 O.co2     1 GSH        -0.5643
      5 O12        31.3100   37.8490   38.6120 O.co2     1 GSH        -0.5643
      6 CB1        31.6660   38.7140   35.2840 C.3       1 GSH         0.0193
      7 CG1        30.5690   39.6370   34.7740 C.3       1 GSH         0.0441
      8 CD1        30.2630   39.4020   33.3110 C.2       1 GSH         0.1783
      9 OE1        30.8080   38.3950   32.6740 O.2       1 GSH        -0.3969
     10 N2         29.4230   40.2410   32.6720 N.am      1 GSH        -0.2683
     11 CA2        29.0850   40.1590   31.2680 C.3       1 GSH         0.1200
     12 C2         29.7980   41.2540   30.5330 C.2       1 GSH         0.2000
     13 O2         29.7590   42.5490   31.0260 O.2       1 GSH        -0.3947
     14 N3         30.4670   40.9510   29.4190 N.am      1 GSH        -0.2724
     15 CA3        31.2280   42.0350   28.8560 C.3       1 GSH         0.0833
     16 C3         32.7040   41.6720   28.8630 C.2       1 GSH         0.0570
     17 O31        33.5060   42.5800   28.5020 O.co2     1 GSH        -0.5669
     18 O32        33.1190   40.5140   29.1740 O.co2     1 GSH        -0.5669
     19 H1         33.9436   38.1927   36.0833 H         1 GSH         0.2010
     20 H2         33.2673   37.1228   37.1356 H         1 GSH         0.2010
     21 H3         33.8942   38.5396   37.6916 H         1 GSH         0.2010
     22 H4         32.4271   39.7923   36.8250 H         1 GSH         0.1026
     23 H5         31.3285   37.6871   35.0801 H         1 GSH         0.0363
     24 H6         32.5608   38.9321   34.6825 H         1 GSH         0.0363
     25 H7         30.8931   40.6799   34.9056 H         1 GSH         0.0505
     26 H8         29.6553   39.4601   35.3604 H         1 GSH         0.0505
     27 H9         29.0030   40.9734   33.2078 H         1 GSH         0.1880
     28 H10        27.9985   40.2762   31.1421 H         1 GSH         0.0763
     29 H11        29.3971   39.1825   30.8693 H         1 GSH         0.0763
     30 H12        30.4415   40.0403   29.0068 H         1 GSH         0.1873
     31 H13        31.0707   42.9440   29.4552 H         1 GSH         0.0689
     32 H14        30.8994   42.2160   27.8219 H         1 GSH         0.0689
@<TRIPOS>BOND
     1    1    2 1  
     2    2    3 1  
     3    2    6 1  
     4    3    4 ar 
     5    3    5 ar 
     6    6    7 1  
     7    7    8 1  
     8    8    9 2  
     9    8   10 am 
    10   10   11 1  
    11   11   12 1  
    12   12   13 2  
    13   12   14 am 
    14   14   15 1  
    15   15   16 1  
    16   16   17 ar 
    17   16   18 ar 
    18    1   19 1  
    19    1   20 1  
    20    1   21 1  
    21    2   22 1  
    22    6   23 1  
    23    6   24 1  
    24    7   25 1  
    25    7   26 1  
    26   10   27 1  
    27   11   28 1  
    28   11   29 1  
    29   14   30 1  
    30   15   31 1  
    31   15   32 1  
@<TRIPOS>SUBSTRUCTURE
     1 GSH         1

