### 
### Created by X-TOOL on Mon Sep 10 21:12:56 2018
### 

@<TRIPOS>MOLECULE
2in6_ligand
   45    49     1     0     0
SMALL
GAST_HUCK


@<TRIPOS>ATOM
      1 O5          0.1660   51.5710   21.8920 O.co2     1 839        -0.5689
      2 C23         1.1450   50.9840   22.4020 C.2       1 839         0.0372
      3 O4          1.1950   49.7360   22.5440 O.co2     1 839        -0.5689
      4 C21         2.3180   51.8070   22.9010 C.3       1 839         0.0249
      5 C22         1.9810   53.2790   23.1300 C.3       1 839         0.0584
      6 N2          3.2100   53.7550   23.7970 N.pl3     1 839        -0.2597
      7 C14         3.2910   53.8190   25.1500 C.ar      1 839         0.0763
      8 C16         4.3750   54.1400   23.1870 C.ar      1 839         0.0615
      9 C18         4.7340   54.2330   21.8210 C.ar      1 839        -0.0449
     10 C20         6.0130   54.6910   21.5180 C.ar      1 839        -0.0417
     11 C19         6.9390   55.0170   22.4930 C.ar      1 839         0.0752
     12 O3          8.1720   55.4220   22.0740 O.3       1 839        -0.3408
     13 C17         6.6400   54.8930   23.8900 C.ar      1 839        -0.0389
     14 C15         5.3200   54.4850   24.1570 C.ar      1 839        -0.0065
     15 C13         4.6620   54.2840   25.4270 C.ar      1 839         0.0183
     16 C4          5.0580   54.4710   26.8320 C.ar      1 839         0.0670
     17 C5          6.3030   54.8780   27.4710 C.2       1 839         0.2336
     18 O1          7.3190   55.2830   26.8830 O.2       1 839        -0.3681
     19 C3          4.1210   54.1490   27.8810 C.ar      1 839         0.0668
     20 C6          4.9330   54.4620   29.0830 C.2       1 839         0.2292
     21 O2          4.4460   54.2920   30.2410 O.2       1 839        -0.3724
     22 N1          6.2140   54.9020   28.8470 N.am      1 839        -0.2008
     23 C2          2.7720   53.7030   27.5170 C.ar      1 839        -0.0050
     24 C1          2.4100   53.5060   26.1710 C.ar      1 839        -0.0234
     25 C7          1.7750   53.4180   28.5400 C.ar      1 839        -0.0174
     26 C12         1.0060   52.1810   28.6110 C.ar      1 839        -0.0536
     27 C11        -0.0100   52.0710   29.7140 C.ar      1 839        -0.0609
     28 C10        -0.1980   53.0880   30.5890 C.ar      1 839        -0.0614
     29 C9          0.4830   54.2630   30.5160 C.ar      1 839        -0.0609
     30 C8          1.4420   54.4960   29.5270 C.ar      1 839        -0.0536
     31 H1          3.1259   51.7473   22.1569 H         1 839         0.0455
     32 H2          2.6637   51.3776   23.8529 H         1 839         0.0455
     33 H3          1.1000   53.3946   23.7784 H         1 839         0.0596
     34 H4          1.8085   53.8055   22.1797 H         1 839         0.0596
     35 H5          4.0370   53.9571   21.0380 H         1 839         0.0524
     36 H6          6.2948   54.7965   20.4766 H         1 839         0.0519
     37 H7          8.7141   55.6160   22.8297 H         1 839         0.2442
     38 H8          7.3653   55.0953   24.6698 H         1 839         0.0493
     39 H9          6.9109   55.1732   29.5109 H         1 839         0.2211
     40 H10         1.4317   53.1052   25.9316 H         1 839         0.0590
     41 H11         1.1599   51.3769   27.9005 H         1 839         0.0627
     42 H12        -0.5995   51.1664   29.8102 H         1 839         0.0619
     43 H13        -0.9242   52.9594   31.3834 H         1 839         0.0620
     44 H14         0.2763   55.0390   31.2441 H         1 839         0.0619
     45 H15         1.9445   55.4550   29.4735 H         1 839         0.0627
@<TRIPOS>BOND
     1    1    2 ar 
     2    2    3 ar 
     3    2    4 1  
     4    4    5 1  
     5    5    6 1  
     6    6    7 1  
     7    6    8 1  
     8    7   15 ar 
     9    7   24 ar 
    10    8    9 ar 
    11    8   14 ar 
    12    9   10 ar 
    13   10   11 ar 
    14   11   12 1  
    15   11   13 ar 
    16   13   14 ar 
    17   14   15 1  
    18   15   16 ar 
    19   16   17 1  
    20   16   19 ar 
    21   17   18 2  
    22   17   22 am 
    23   19   20 1  
    24   19   23 ar 
    25   20   21 2  
    26   20   22 am 
    27   23   24 ar 
    28   23   25 1  
    29   25   26 ar 
    30   25   30 ar 
    31   26   27 ar 
    32   27   28 ar 
    33   28   29 ar 
    34   29   30 ar 
    35    4   31 1  
    36    4   32 1  
    37    5   33 1  
    38    5   34 1  
    39    9   35 1  
    40   10   36 1  
    41   12   37 1  
    42   13   38 1  
    43   22   39 1  
    44   24   40 1  
    45   26   41 1  
    46   27   42 1  
    47   28   43 1  
    48   29   44 1  
    49   30   45 1  
@<TRIPOS>SUBSTRUCTURE
     1 839         1

