### 
### Created by X-TOOL on Mon Sep 10 21:12:56 2018
### 

@<TRIPOS>MOLECULE
2io6_ligand
   51    55     1     0     0
SMALL
GAST_HUCK


@<TRIPOS>ATOM
      1 C1          2.6500   53.7760   26.3830 C.ar      1 330        -0.0264
      2 C2          2.9060   53.9230   27.7520 C.ar      1 330        -0.0085
      3 C3          4.2690   54.3680   28.1040 C.ar      1 330         0.0642
      4 C4          5.2070   54.6730   27.0030 C.ar      1 330         0.0655
      5 C5          6.4590   55.0650   27.6680 C.2       1 330         0.2333
      6 C6          5.1110   54.6380   29.3050 C.2       1 330         0.2280
      7 C7          1.9000   53.6100   28.8390 C.ar      1 330         0.0135
      8 C8          1.6590   54.6460   29.7260 C.ar      1 330         0.1020
      9 C9          0.7620   54.4720   30.8030 C.ar      1 330        -0.0308
     10 C10         0.1270   53.2190   31.0070 C.ar      1 330        -0.0697
     11 C11         0.3460   52.1860   30.0870 C.ar      1 330        -0.0714
     12 C12         1.2680   52.3690   29.0040 C.ar      1 330        -0.0612
     13 C13         4.8530   54.4670   25.5650 C.ar      1 330         0.0169
     14 C14         3.5690   54.0380   25.3460 C.ar      1 330         0.0744
     15 C15         5.4700   54.6900   24.3380 C.ar      1 330        -0.0074
     16 C16         4.4750   54.3050   23.3370 C.ar      1 330         0.0609
     17 C17         6.7470   55.0880   24.0130 C.ar      1 330        -0.0392
     18 C18         4.8100   54.3940   21.9200 C.ar      1 330        -0.0452
     19 C19         7.0660   55.1770   22.6690 C.ar      1 330         0.0749
     20 C20         6.1700   54.8380   21.6350 C.ar      1 330        -0.0419
     21 C21         2.0290   53.4650   23.5340 C.3       1 330         0.0490
     22 C22         2.3720   52.1040   22.9040 C.3       1 330        -0.0049
     23 C23         1.6960   50.9510   23.6620 C.3       1 330         0.0465
     24 O1          7.4910   55.4920   27.0660 O.2       1 330        -0.3681
     25 N1          6.3660   55.0900   29.0360 N.am      1 330        -0.2010
     26 O2          4.6410   54.5020   30.4780 O.2       1 330        -0.3732
     27 O3          8.2990   55.5860   22.3680 O.3       1 330        -0.3408
     28 O5          2.2800   55.8760   29.5870 O.3       1 330        -0.3181
     29 C24         1.9280   56.9160   30.5740 C.3       1 330         0.0605
     30 N2          3.3090   53.9610   24.0350 N.pl3     1 330        -0.2617
     31 O4          2.0470   49.6530   23.0690 O.3       1 330        -0.3949
     32 H1          1.6627   53.4320   26.0965 H         1 330         0.0571
     33 H2          0.5580   55.2974   31.4755 H         1 330         0.0543
     34 H3         -0.5189   53.0637   31.8636 H         1 330         0.0595
     35 H4         -0.1828   51.2458   30.1938 H         1 330         0.0528
     36 H5          1.4747   51.5550   28.3187 H         1 330         0.0598
     37 H6          7.4754   55.3229   24.7807 H         1 330         0.0491
     38 H7          4.1013   54.1485   21.1373 H         1 330         0.0523
     39 H8          6.4991   54.9088   20.6046 H         1 330         0.0517
     40 H9          1.3087   53.3437   24.3565 H         1 330         0.0578
     41 H10         1.6132   54.1500   22.7805 H         1 330         0.0578
     42 H11         3.4622   51.9607   22.9323 H         1 330         0.0311
     43 H12         2.0281   52.0960   21.8592 H         1 330         0.0311
     44 H13         0.6048   51.0829   23.6186 H         1 330         0.0558
     45 H14         2.0259   50.9680   24.7112 H         1 330         0.0558
     46 H15         7.0654   55.3768   29.6907 H         1 330         0.2211
     47 H16         8.7735   55.7740   23.1692 H         1 330         0.2442
     48 H17         2.4870   57.8369   30.3515 H         1 330         0.0580
     49 H18         2.1863   56.5654   31.5841 H         1 330         0.0580
     50 H19         0.8485   57.1207   30.5218 H         1 330         0.0580
     51 H20         1.7607   49.6320   22.1634 H         1 330         0.2094
@<TRIPOS>BOND
     1    1    2 ar 
     2   14    1 ar 
     3    2    3 ar 
     4    2    7 1  
     5    4    3 ar 
     6    3    6 1  
     7    4    5 1  
     8   13    4 ar 
     9    5   24 2  
    10    5   25 am 
    11   25    6 am 
    12    6   26 2  
    13    7    8 ar 
    14    7   12 ar 
    15    8    9 ar 
    16    8   28 1  
    17    9   10 ar 
    18   11   10 ar 
    19   12   11 ar 
    20   14   13 ar 
    21   15   13 1  
    22   30   14 1  
    23   16   15 ar 
    24   15   17 ar 
    25   16   18 ar 
    26   30   16 1  
    27   17   19 ar 
    28   18   20 ar 
    29   20   19 ar 
    30   19   27 1  
    31   21   22 1  
    32   21   30 1  
    33   22   23 1  
    34   23   31 1  
    35   28   29 1  
    36    1   32 1  
    37    9   33 1  
    38   10   34 1  
    39   11   35 1  
    40   12   36 1  
    41   17   37 1  
    42   18   38 1  
    43   20   39 1  
    44   21   40 1  
    45   21   41 1  
    46   22   42 1  
    47   22   43 1  
    48   23   44 1  
    49   23   45 1  
    50   25   46 1  
    51   27   47 1  
    52   29   48 1  
    53   29   49 1  
    54   29   50 1  
    55   31   51 1  
@<TRIPOS>SUBSTRUCTURE
     1 330         1

