### 
### Created by X-TOOL on Mon Sep 10 21:12:56 2018
### 

@<TRIPOS>MOLECULE
2iog_ligand
   79    83     1     0     0
SMALL
GAST_HUCK


@<TRIPOS>ATOM
      1 C1         28.8630    0.0960   27.3330 C.ar      1 IOG        -0.0536
      2 C2         27.7630    0.8960   27.6590 C.ar      1 IOG        -0.0687
      3 C3         26.4620    0.4010   27.5120 C.ar      1 IOG        -0.0398
      4 C4         26.2930   -0.9200   27.0730 C.ar      1 IOG         0.0805
      5 O5         25.0170   -1.3320   26.8820 O.3       1 IOG        -0.3376
      6 C6         27.3770   -1.7070   26.7010 C.ar      1 IOG        -0.0398
      7 C7         28.6870   -1.2010   26.8480 C.ar      1 IOG        -0.0687
      8 C8         30.2260    0.7180   27.5270 C.3       1 IOG        -0.0222
      9 C9         30.6040    0.6810   29.0300 C.3       1 IOG        -0.0218
     10 C10        31.8910    1.5150   29.2500 C.3       1 IOG         0.0409
     11 C11        32.3170    1.3690   30.7160 C.3       1 IOG        -0.0419
     12 N12        32.9100    1.0600   28.2660 N.am      1 IOG        -0.2829
     13 C13        33.4390    1.9920   27.4540 C.2       1 IOG         0.1832
     14 O14        33.1100    3.1980   27.5470 O.2       1 IOG        -0.3950
     15 C15        34.4260    1.5960   26.4310 C.3       1 IOG         0.0577
     16 C16        34.7220    0.1520   26.4200 C.2       1 IOG        -0.0175
     17 C17        35.6620   -0.7660   27.1210 C.2       1 IOG         0.0601
     18 N18        35.4250   -2.1180   26.5900 N.pl3     1 IOG        -0.2862
     19 C19        34.4100   -2.0670   25.7000 C.ar      1 IOG         0.0536
     20 C20        33.8670   -3.1370   24.9630 C.ar      1 IOG        -0.0153
     21 C21        32.9250   -2.8240   23.9530 C.ar      1 IOG         0.0794
     22 C22        32.3640   -1.5490   23.8960 C.ar      1 IOG        -0.0452
     23 C23        32.8250   -0.5170   24.7440 C.ar      1 IOG        -0.0759
     24 C24        33.9090   -0.7860   25.6050 C.ar      1 IOG        -0.0198
     25 C25        36.7320   -0.3820   28.1050 C.ar      1 IOG        -0.0078
     26 C26        36.5890    0.7280   28.9540 C.ar      1 IOG        -0.0585
     27 C27        37.6190    1.0380   29.8810 C.ar      1 IOG        -0.0661
     28 C28        38.7990    0.2900   29.9170 C.ar      1 IOG        -0.0663
     29 C29        38.9350   -0.7980   29.0800 C.ar      1 IOG        -0.0661
     30 C30        37.8940   -1.1550   28.1710 C.ar      1 IOG        -0.0585
     31 O31        32.3420   -3.8020   23.2300 O.3       1 IOG        -0.3178
     32 C32        33.0450   -4.6620   22.3200 C.3       1 IOG         0.1091
     33 C33        33.5890   -3.9920   21.0560 C.3       1 IOG        -0.0035
     34 N34        32.6150   -4.1210   19.9290 N.4       1 IOG         0.2371
     35 C35        33.2600   -3.3100   18.8600 C.3       1 IOG        -0.0318
     36 C36        32.2890   -3.0900   17.6880 C.3       1 IOG        -0.0123
     37 C37        31.0240   -2.3810   18.1820 C.3       1 IOG        -0.0434
     38 C38        30.3630   -3.3220   19.2000 C.3       1 IOG        -0.0123
     39 C39        31.3470   -3.5140   20.3610 C.3       1 IOG        -0.0318
     40 H1         27.9187    1.9036   28.0271 H         1 IOG         0.0530
     41 H2         25.6037    1.0253   27.7327 H         1 IOG         0.0525
     42 H3         25.0178   -2.2350   26.5870 H         1 IOG         0.2458
     43 H4         27.2177   -2.7018   26.3010 H         1 IOG         0.0525
     44 H5         29.5442   -1.8114   26.5878 H         1 IOG         0.0530
     45 H6         30.2051    1.7617   27.1802 H         1 IOG         0.0406
     46 H7         30.9719    0.1540   26.9478 H         1 IOG         0.0406
     47 H8         30.7820   -0.3594   29.3395 H         1 IOG         0.0307
     48 H9         29.7834    1.1058   29.6267 H         1 IOG         0.0307
     49 H10        31.6771    2.5768   29.0585 H         1 IOG         0.0554
     50 H11        33.2310    1.9552   30.8923 H         1 IOG         0.0252
     51 H12        32.5126    0.3094   30.9372 H         1 IOG         0.0252
     52 H13        31.5131    1.7378   31.3699 H         1 IOG         0.0252
     53 H14        33.1896    0.1015   28.2109 H         1 IOG         0.1855
     54 H15        35.3622    2.1408   26.6226 H         1 IOG         0.0607
     55 H16        34.0336    1.8774   25.4427 H         1 IOG         0.0607
     56 H17        35.9479   -2.9652   26.8540 H         1 IOG         0.2170
     57 H18        34.1591   -4.1619   25.1613 H         1 IOG         0.0445
     58 H19        31.5644   -1.3469   23.1926 H         1 IOG         0.0470
     59 H20        32.3557    0.4601   24.7330 H         1 IOG         0.0541
     60 H21        35.6984    1.3437   28.9018 H         1 IOG         0.0584
     61 H22        37.4884    1.8652   30.5693 H         1 IOG         0.0605
     62 H23        39.5992    0.5620   30.5958 H         1 IOG         0.0579
     63 H24        39.8432   -1.3889   29.1130 H         1 IOG         0.0605
     64 H25        38.0048   -2.0243   27.5330 H         1 IOG         0.0584
     65 H26        32.3550   -5.4601   22.0086 H         1 IOG         0.0666
     66 H27        33.8953   -5.1028   22.8609 H         1 IOG         0.0666
     67 H28        34.5364   -4.4731   20.7714 H         1 IOG         0.0841
     68 H29        33.7660   -2.9257   21.2600 H         1 IOG         0.0841
     69 H30        32.4760   -5.0777   19.6438 H         1 IOG         0.2034
     70 H31        34.1535   -3.8377   18.4951 H         1 IOG         0.0814
     71 H32        33.5540   -2.3342   19.2740 H         1 IOG         0.0814
     72 H33        32.0153   -4.0630   17.2540 H         1 IOG         0.0317
     73 H34        32.7777   -2.4709   16.9213 H         1 IOG         0.0317
     74 H35        30.3413   -2.1925   17.3404 H         1 IOG         0.0269
     75 H36        31.2866   -1.4267   18.6620 H         1 IOG         0.0269
     76 H37        30.1455   -4.2917   18.7284 H         1 IOG         0.0317
     77 H38        29.4280   -2.8766   19.5706 H         1 IOG         0.0317
     78 H39        31.5602   -2.5322   20.8089 H         1 IOG         0.0814
     79 H40        30.8815   -4.1671   21.1138 H         1 IOG         0.0814
@<TRIPOS>BOND
     1    1    2 ar 
     2    1    7 ar 
     3    1    8 1  
     4    2    3 ar 
     5    3    4 ar 
     6    4    5 1  
     7    4    6 ar 
     8    6    7 ar 
     9    8    9 1  
    10    9   10 1  
    11   10   11 1  
    12   10   12 1  
    13   12   13 am 
    14   13   14 2  
    15   13   15 1  
    16   15   16 1  
    17   16   17 2  
    18   16   24 1  
    19   17   18 1  
    20   17   25 1  
    21   18   19 1  
    22   19   20 ar 
    23   19   24 ar 
    24   20   21 ar 
    25   21   22 ar 
    26   21   31 1  
    27   22   23 ar 
    28   23   24 ar 
    29   25   26 ar 
    30   25   30 ar 
    31   26   27 ar 
    32   27   28 ar 
    33   28   29 ar 
    34   29   30 ar 
    35   31   32 1  
    36   32   33 1  
    37   33   34 1  
    38   34   35 1  
    39   34   39 1  
    40   35   36 1  
    41   36   37 1  
    42   37   38 1  
    43   38   39 1  
    44    2   40 1  
    45    3   41 1  
    46    5   42 1  
    47    6   43 1  
    48    7   44 1  
    49    8   45 1  
    50    8   46 1  
    51    9   47 1  
    52    9   48 1  
    53   10   49 1  
    54   11   50 1  
    55   11   51 1  
    56   11   52 1  
    57   12   53 1  
    58   15   54 1  
    59   15   55 1  
    60   18   56 1  
    61   20   57 1  
    62   22   58 1  
    63   23   59 1  
    64   26   60 1  
    65   27   61 1  
    66   28   62 1  
    67   29   63 1  
    68   30   64 1  
    69   32   65 1  
    70   32   66 1  
    71   33   67 1  
    72   33   68 1  
    73   34   69 1  
    74   35   70 1  
    75   35   71 1  
    76   36   72 1  
    77   36   73 1  
    78   37   74 1  
    79   37   75 1  
    80   38   76 1  
    81   38   77 1  
    82   39   78 1  
    83   39   79 1  
@<TRIPOS>SUBSTRUCTURE
     1 IOG         1

