### 
### Created by X-TOOL on Mon Sep 10 21:12:56 2018
### 

@<TRIPOS>MOLECULE
2iok_ligand
   56    59     1     0     0
SMALL
GAST_HUCK


@<TRIPOS>ATOM
      1 C1         15.8130   35.8830   49.8880 C.ar      1 IOK        -0.0536
      2 C2         14.7030   36.0910   50.7260 C.ar      1 IOK        -0.0687
      3 C3         13.4320   36.2650   50.1780 C.ar      1 IOK        -0.0398
      4 C4         13.2600   36.2310   48.7960 C.ar      1 IOK         0.0805
      5 O5         12.0210   36.3920   48.2900 O.3       1 IOK        -0.3376
      6 C6         14.3680   36.0660   47.9580 C.ar      1 IOK        -0.0398
      7 C7         15.6420   35.8330   48.5130 C.ar      1 IOK        -0.0687
      8 C8         17.1660   35.7170   50.5440 C.3       1 IOK        -0.0222
      9 C9         18.3040   35.7050   49.5170 C.3       1 IOK        -0.0218
     10 C10        19.6700   35.7650   50.2260 C.3       1 IOK         0.0409
     11 C11        20.2190   37.1960   50.2740 C.3       1 IOK        -0.0419
     12 N12        19.5080   35.2640   51.6000 N.am      1 IOK        -0.2829
     13 C13        19.7070   33.9740   51.8590 C.2       1 IOK         0.1832
     14 O14        20.0400   33.1950   50.9300 O.2       1 IOK        -0.3950
     15 C15        19.5540   33.4560   53.2550 C.3       1 IOK         0.0585
     16 C16        18.6170   34.2690   54.1110 C.2       1 IOK        -0.0121
     17 C17        18.9210   35.1530   55.1780 C.2       1 IOK         0.0650
     18 N18        17.7520   35.6460   55.6650 N.pl3     1 IOK        -0.2816
     19 C19        16.7130   35.1350   54.9380 C.ar      1 IOK         0.0623
     20 C20        15.3360   35.3240   55.0830 C.ar      1 IOK        -0.0429
     21 C21        14.4810   34.6600   54.1970 C.ar      1 IOK        -0.0756
     22 C22        15.0160   33.8390   53.1800 C.ar      1 IOK        -0.0779
     23 C23        16.3820   33.6210   53.0720 C.ar      1 IOK        -0.0721
     24 C24        17.2400   34.3160   53.9610 C.ar      1 IOK        -0.0124
     25 C25        20.2230   35.5800   55.7620 C.ar      1 IOK        -0.0041
     26 C26        21.4750   35.2110   55.2730 C.ar      1 IOK        -0.0569
     27 C27        22.6520   35.6750   55.8940 C.ar      1 IOK        -0.0650
     28 C28        22.5730   36.4840   57.0220 C.ar      1 IOK        -0.0652
     29 C29        21.3200   36.8740   57.5120 C.ar      1 IOK        -0.0650
     30 C30        20.1570   36.4350   56.8730 C.ar      1 IOK        -0.0569
     31 H1         14.8355   36.1162   51.8016 H         1 IOK         0.0530
     32 H2         12.5789   36.4265   50.8270 H         1 IOK         0.0525
     33 H3         11.4539   35.7047   48.6193 H         1 IOK         0.2458
     34 H4         14.2465   36.1174   46.8821 H         1 IOK         0.0525
     35 H5         16.4852   35.6155   47.8674 H         1 IOK         0.0530
     36 H6         17.1779   34.7670   51.0984 H         1 IOK         0.0406
     37 H7         17.3268   36.5513   51.2426 H         1 IOK         0.0406
     38 H8         18.2020   36.5762   48.8532 H         1 IOK         0.0307
     39 H9         18.2451   34.7817   48.9220 H         1 IOK         0.0307
     40 H10        20.3837   35.1272   49.6840 H         1 IOK         0.0554
     41 H11        21.1925   37.1982   50.7861 H         1 IOK         0.0252
     42 H12        19.5154   37.8405   50.8213 H         1 IOK         0.0252
     43 H13        20.3430   37.5757   49.2491 H         1 IOK         0.0252
     44 H14        19.2496   35.8900   52.3357 H         1 IOK         0.1855
     45 H15        20.5445   33.4528   53.7333 H         1 IOK         0.0606
     46 H16        19.1690   32.4269   53.2019 H         1 IOK         0.0606
     47 H17        17.6630   36.3002   56.4556 H         1 IOK         0.2190
     48 H18        14.9412   35.9676   55.8608 H         1 IOK         0.0541
     49 H19        13.4073   34.7757   54.2911 H         1 IOK         0.0540
     50 H20        14.3457   33.3695   52.4692 H         1 IOK         0.0514
     51 H21        16.7813   32.9394   52.3297 H         1 IOK         0.0550
     52 H22        21.5440   34.5617   54.4077 H         1 IOK         0.0593
     53 H23        23.6204   35.4007   55.4915 H         1 IOK         0.0608
     54 H24        23.4780   36.8118   57.5206 H         1 IOK         0.0588
     55 H25        21.2525   37.5143   58.3841 H         1 IOK         0.0608
     56 H26        19.1903   36.7595   57.2408 H         1 IOK         0.0593
@<TRIPOS>BOND
     1    1    2 ar 
     2    1    7 ar 
     3    1    8 1  
     4    2    3 ar 
     5    3    4 ar 
     6    4    5 1  
     7    4    6 ar 
     8    6    7 ar 
     9    8    9 1  
    10    9   10 1  
    11   10   11 1  
    12   10   12 1  
    13   12   13 am 
    14   13   14 2  
    15   13   15 1  
    16   15   16 1  
    17   16   17 2  
    18   16   24 1  
    19   17   18 1  
    20   17   25 1  
    21   18   19 1  
    22   19   20 ar 
    23   19   24 ar 
    24   20   21 ar 
    25   21   22 ar 
    26   22   23 ar 
    27   23   24 ar 
    28   25   26 ar 
    29   25   30 ar 
    30   26   27 ar 
    31   27   28 ar 
    32   28   29 ar 
    33   29   30 ar 
    34    2   31 1  
    35    3   32 1  
    36    5   33 1  
    37    6   34 1  
    38    7   35 1  
    39    8   36 1  
    40    8   37 1  
    41    9   38 1  
    42    9   39 1  
    43   10   40 1  
    44   11   41 1  
    45   11   42 1  
    46   11   43 1  
    47   12   44 1  
    48   15   45 1  
    49   15   46 1  
    50   18   47 1  
    51   20   48 1  
    52   21   49 1  
    53   22   50 1  
    54   23   51 1  
    55   26   52 1  
    56   27   53 1  
    57   28   54 1  
    58   29   55 1  
    59   30   56 1  
@<TRIPOS>SUBSTRUCTURE
     1 IOK         1

