### 
### Created by X-TOOL on Mon Sep 10 21:12:56 2018
### 

@<TRIPOS>MOLECULE
2iqg_ligand
   80    82     1     0     0
SMALL
GAST_HUCK


@<TRIPOS>ATOM
      1 N1         14.1920   -4.5720   17.0800 N.am      1 F2I        -0.2784
      2 C4         13.3380   -3.0420   18.8190 C.ar      1 F2I         0.0488
      3 C5         12.2580   -2.6510   17.9760 C.ar      1 F2I        -0.0289
      4 C6         10.3290   -1.0910   17.4110 C.2       1 F2I         0.2069
      5 C7         13.1660   -0.3560   21.5730 C.3       1 F2I        -0.0293
      6 C8         14.1320   -4.2580   18.4430 C.2       1 F2I         0.2049
      7 C10         8.8970   -3.1020   17.9970 C.3       1 F2I         0.0331
      8 C13         7.6310   -2.8360   18.8410 C.3       1 F2I        -0.0354
      9 C15        14.8670   -5.7600   16.4890 C.3       1 F2I         0.0817
     10 C17        13.8420   -6.3180   15.4750 C.3       1 F2I         0.0048
     11 C20        19.7260   -5.7770   18.2620 C.ar      1 F2I         0.0043
     12 C21        19.7350   -5.8040   19.6830 C.ar      1 F2I        -0.0528
     13 C22        19.9230   -7.0310   20.3770 C.ar      1 F2I        -0.0654
     14 C24        20.0970   -8.2480   18.2390 C.ar      1 F2I         0.0031
     15 C26        11.2670   -7.6380   18.0700 C.ar      1 F2I         0.1242
     16 C28        12.5240   -6.6330   16.1800 C.ar      1 F2I        -0.0445
     17 C          11.4760   -1.5170   18.3050 C.ar      1 F2I         0.0490
     18 C1         11.7750   -0.7700   19.4800 C.ar      1 F2I        -0.0367
     19 C2         12.8530   -1.1540   20.3280 C.ar      1 F2I        -0.0353
     20 C3         13.6320   -2.2950   19.9910 C.ar      1 F2I        -0.0367
     21 O          10.3730    0.0410   16.9580 O.2       1 F2I        -0.3844
     22 N           9.2200   -1.9640   17.1090 N.am      1 F2I        -0.2724
     23 C9          8.3690   -1.6810   15.9200 C.3       1 F2I         0.0331
     24 C11         9.1310   -1.7450   14.5810 C.3       1 F2I        -0.0354
     25 C12         9.3600   -3.1860   14.1140 C.3       1 F2I        -0.0634
     26 C14         7.8550   -1.7460   19.9000 C.3       1 F2I        -0.0634
     27 O1         14.6650   -4.9590   19.2940 O.2       1 F2I        -0.3846
     28 C16        16.2420   -5.4200   15.8810 C.3       1 F2I         0.1192
     29 C18        17.2040   -4.9860   16.9780 C.3       1 F2I        -0.0033
     30 N2         18.5270   -4.7260   16.4310 N.4       1 F2I         0.2410
     31 C19        19.5010   -4.4610   17.4840 C.3       1 F2I         0.0008
     32 C23        20.1030   -8.2490   19.6600 C.ar      1 F2I        -0.0577
     33 C25        19.9100   -7.0170   17.5460 C.ar      1 F2I        -0.0442
     34 I          20.3510  -10.0460   17.1770 I         1 F2I        -0.0511
     35 C27        12.4960   -7.3630   17.4160 C.ar      1 F2I        -0.0310
     36 C29        11.3020   -6.1940   15.6250 C.ar      1 F2I        -0.0310
     37 C30        10.0700   -6.4710   16.2770 C.ar      1 F2I         0.1242
     38 C31        10.0490   -7.1910   17.4990 C.ar      1 F2I        -0.0019
     39 F          11.2630   -8.3060   19.2050 F         1 F2I        -0.1863
     40 F1          8.9520   -6.0520   15.7440 F         1 F2I        -0.1863
     41 O2         16.7880   -6.5770   15.3220 O.3       1 F2I        -0.3841
     42 H1         13.7414   -3.9423   16.4472 H         1 F2I         0.1851
     43 H2         12.0347   -3.2220   17.0820 H         1 F2I         0.0665
     44 H3         12.4578    0.4812   21.6595 H         1 F2I         0.0391
     45 H4         14.1916    0.0365   21.5088 H         1 F2I         0.0391
     46 H5         13.0763   -1.0049   22.4567 H         1 F2I         0.0391
     47 H6          8.7311   -3.9976   17.3804 H         1 F2I         0.0522
     48 H7          9.7458   -3.2756   18.6748 H         1 F2I         0.0522
     49 H8          7.3418   -3.7681   19.3485 H         1 F2I         0.0282
     50 H9          6.8196   -2.5164   18.1706 H         1 F2I         0.0282
     51 H10        15.0342   -6.5104   17.2757 H         1 F2I         0.0606
     52 H11        14.2414   -7.2377   15.0227 H         1 F2I         0.0448
     53 H12        13.6641   -5.5699   14.6885 H         1 F2I         0.0448
     54 H13        19.5979   -4.8846   20.2407 H         1 F2I         0.0580
     55 H14        19.9294   -7.0397   21.4610 H         1 F2I         0.0606
     56 H15        11.1769    0.0985   19.7312 H         1 F2I         0.0642
     57 H16        14.4535   -2.5960   20.6310 H         1 F2I         0.0642
     58 H17         7.9441   -0.6723   16.0295 H         1 F2I         0.0522
     59 H18         7.5552   -2.4206   15.8918 H         1 F2I         0.0522
     60 H19        10.1072   -1.2535   14.7050 H         1 F2I         0.0282
     61 H20         8.5472   -1.2130   13.8154 H         1 F2I         0.0282
     62 H21         9.9051   -3.1795   13.1586 H         1 F2I         0.0230
     63 H22         8.3897   -3.6864   13.9792 H         1 F2I         0.0230
     64 H23         9.9497   -3.7268   14.8689 H         1 F2I         0.0230
     65 H24         6.9277   -1.5945   20.4721 H         1 F2I         0.0230
     66 H25         8.1377   -0.8056   19.4042 H         1 F2I         0.0230
     67 H26         8.6599   -2.0573   20.5821 H         1 F2I         0.0230
     68 H27        16.1357   -4.6302   15.1228 H         1 F2I         0.0672
     69 H28        17.2757   -5.7841   17.7315 H         1 F2I         0.0840
     70 H29        16.8224   -4.0689   17.4504 H         1 F2I         0.0840
     71 H30        18.4774   -3.9243   15.8221 H         1 F2I         0.2029
     72 H31        18.8267   -5.5308   15.9033 H         1 F2I         0.2029
     73 H32        20.4487   -4.1220   17.0403 H         1 F2I         0.0980
     74 H33        19.1161   -3.6860   18.1631 H         1 F2I         0.0980
     75 H34        20.2448   -9.1784   20.1996 H         1 F2I         0.0587
     76 H35        19.9058   -7.0116   16.4620 H         1 F2I         0.0587
     77 H36        13.4250   -7.7083   17.8550 H         1 F2I         0.0508
     78 H37        11.3037   -5.6405   14.6929 H         1 F2I         0.0508
     79 H38         9.1068   -7.3982   17.9934 H         1 F2I         0.0532
     80 H39        16.2207   -6.8898   14.6272 H         1 F2I         0.2101
@<TRIPOS>BOND
     1    1    6 am 
     2    9    1 1  
     3    2    3 ar 
     4    6    2 1  
     5    2   20 ar 
     6    3   17 ar 
     7   17    4 1  
     8    4   21 2  
     9    4   22 am 
    10   19    5 1  
    11    6   27 2  
    12    7    8 1  
    13   22    7 1  
    14    8   26 1  
    15    9   10 1  
    16   28    9 1  
    17   10   16 1  
    18   11   12 ar 
    19   31   11 1  
    20   11   33 ar 
    21   12   13 ar 
    22   13   32 ar 
    23   14   32 ar 
    24   33   14 ar 
    25   14   34 1  
    26   35   15 ar 
    27   15   38 ar 
    28   15   39 1  
    29   16   35 ar 
    30   16   36 ar 
    31   17   18 ar 
    32   19   18 ar 
    33   20   19 ar 
    34   22   23 1  
    35   23   24 1  
    36   24   25 1  
    37   29   28 1  
    38   28   41 1  
    39   30   29 1  
    40   30   31 1  
    41   36   37 ar 
    42   37   38 ar 
    43   37   40 1  
    44    1   42 1  
    45    3   43 1  
    46    5   44 1  
    47    5   45 1  
    48    5   46 1  
    49    7   47 1  
    50    7   48 1  
    51    8   49 1  
    52    8   50 1  
    53    9   51 1  
    54   10   52 1  
    55   10   53 1  
    56   12   54 1  
    57   13   55 1  
    58   18   56 1  
    59   20   57 1  
    60   23   58 1  
    61   23   59 1  
    62   24   60 1  
    63   24   61 1  
    64   25   62 1  
    65   25   63 1  
    66   25   64 1  
    67   26   65 1  
    68   26   66 1  
    69   26   67 1  
    70   28   68 1  
    71   29   69 1  
    72   29   70 1  
    73   30   71 1  
    74   30   72 1  
    75   31   73 1  
    76   31   74 1  
    77   32   75 1  
    78   33   76 1  
    79   35   77 1  
    80   36   78 1  
    81   38   79 1  
    82   41   80 1  
@<TRIPOS>SUBSTRUCTURE
     1 F2I         1

