### 
### Created by X-TOOL on Mon Sep 10 21:12:54 2018
### 

@<TRIPOS>MOLECULE
2irz_ligand
   70    73     1     0     0
SMALL
GAST_HUCK


@<TRIPOS>ATOM
      1 C1         32.2250   44.6480    6.2300 C.ar      1 I02        -0.0598
      2 C2         32.4960   45.6210    5.1500 C.ar      1 I02        -0.0221
      3 C3         32.3750   47.0640    5.2950 C.ar      1 I02        -0.0598
      4 C4         32.0100   47.5830    6.5810 C.ar      1 I02        -0.0348
      5 C5         31.7670   46.6240    7.6340 C.ar      1 I02         0.1248
      6 C6         31.8460   45.1800    7.5050 C.ar      1 I02        -0.0348
      7 C7         32.9070   45.2060    3.7920 C.3       1 I02         0.0705
      8 N1         31.8570   44.4580    3.1170 N.am      1 I02        -0.2727
      9 C8         31.1640   44.9150    2.0360 C.2       1 I02         0.2055
     10 C9         30.1390   43.9950    1.5190 C.ar      1 I02         0.0460
     11 C10        30.3300   42.5780    1.5080 C.ar      1 I02        -0.0316
     12 C11        29.3090   41.6960    1.0440 C.ar      1 I02         0.0573
     13 C12        28.0700   42.2110    0.5890 C.ar      1 I02        -0.0152
     14 C13        27.8380   43.6310    0.5820 C.ar      1 I02         0.0801
     15 C14        28.8950   44.5180    1.0300 C.ar      1 I02        -0.0159
     16 N2         26.5780   44.0580    0.2130 N.am      1 I02        -0.1787
     17 S1         25.7940   45.1940    1.0460 S.o2      1 I02         0.0593
     18 C15        26.1490   46.8010    0.3190 C.3       1 I02         0.0789
     19 C16        25.9560   43.5940   -1.0430 C.3       1 I02         0.0445
     20 O1         31.3600   46.0200    1.5280 O.2       1 I02        -0.3843
     21 O2         26.3340   45.2180    2.3670 O.2       1 I02        -0.1500
     22 O3         24.4010   44.8890    0.8770 O.2       1 I02        -0.1500
     23 C17        34.1930   44.3400    3.8480 C.3       1 I02        -0.0325
     24 F1         31.4540   47.1260    8.8350 F         1 I02        -0.1893
     25 C20        31.4460   37.7650    2.7430 C.3       1 I02         0.0374
     26 N3         31.4040   38.5060    4.0150 N.4       1 I02         0.1733
     27 C21        30.9600   36.3270    2.9700 C.3       1 I02        -0.0388
     28 C22        32.8420   37.7650    2.1020 C.3       1 I02         0.0050
     29 C23        34.4060   41.6550    0.8990 C.ar      1 I02        -0.0687
     30 C24        33.6140   40.8970   -0.0570 C.ar      1 I02        -0.0686
     31 C25        33.1030   39.6010    0.3350 C.ar      1 I02        -0.0610
     32 C26        33.4030   39.1090    1.6870 C.ar      1 I02        -0.0469
     33 C27        34.2080   39.8700    2.6390 C.ar      1 I02        -0.0610
     34 C28        34.7130   41.1720    2.2390 C.ar      1 I02        -0.0686
     35 N35        29.6650   38.1620    0.8410 N.2       1 I02        -0.1546
     36 N4         29.1190   39.2390    0.4160 N.2       1 I02        -0.1582
     37 C29        29.5970   40.2920    1.1370 C.2       1 I02         0.2545
     38 O4         30.4020   39.7890    2.0290 O.3       1 I02        -0.1777
     39 C30        30.4790   38.4870    1.8630 C.2       1 I02         0.2460
     40 H1         32.3093   43.5800    6.0644 H         1 I02         0.0548
     41 H2         32.5553   47.7265    4.4562 H         1 I02         0.0548
     42 H3         31.9203   48.6491    6.7556 H         1 I02         0.0587
     43 H4         31.6262   44.5283    8.3428 H         1 I02         0.0587
     44 H5         33.1193   46.1128    3.2067 H         1 I02         0.0708
     45 H6         31.6292   43.5501    3.4690 H         1 I02         0.1874
     46 H7         31.2690   42.1657    1.8591 H         1 I02         0.0626
     47 H8         27.2958   41.5343    0.2457 H         1 I02         0.0596
     48 H9         28.7432   45.5907    0.9949 H         1 I02         0.0613
     49 H10        25.6179   47.5832    0.8812 H         1 I02         0.0487
     50 H11        25.8144   46.8114   -0.7288 H         1 I02         0.0487
     51 H12        27.2317   46.9910    0.3602 H         1 I02         0.0487
     52 H13        26.5922   42.8246   -1.5048 H         1 I02         0.0517
     53 H14        25.8473   44.4430   -1.7339 H         1 I02         0.0517
     54 H15        24.9651   43.1685   -0.8261 H         1 I02         0.0517
     55 H16        34.9906   44.9006    4.3575 H         1 I02         0.0273
     56 H17        34.5139   44.0935    2.8252 H         1 I02         0.0273
     57 H18        33.9863   43.4119    4.4012 H         1 I02         0.0273
     58 H19        32.0363   38.0789    4.6736 H         1 I02         0.1955
     59 H20        30.4670   38.4838    4.3860 H         1 I02         0.1955
     60 H21        31.6799   39.4624    3.8560 H         1 I02         0.1955
     61 H22        30.9919   35.7748    2.0192 H         1 I02         0.0176
     62 H23        29.9277   36.3444    3.3494 H         1 I02         0.0176
     63 H24        31.6121   35.8311    3.7040 H         1 I02         0.0176
     64 H25        32.7956   37.1321    1.2035 H         1 I02         0.0372
     65 H26        33.5410   37.3222    2.8268 H         1 I02         0.0372
     66 H27        34.7859   42.6253    0.6004 H         1 I02         0.0559
     67 H28        33.4104   41.2953   -1.0444 H         1 I02         0.0599
     68 H29        32.5125   39.0067   -0.3529 H         1 I02         0.0556
     69 H30        34.4241   39.4714    3.6236 H         1 I02         0.0556
     70 H31        35.3048   41.7707    2.9219 H         1 I02         0.0599
@<TRIPOS>BOND
     1    2    1 ar 
     2    1    6 ar 
     3    2    3 ar 
     4    7    2 1  
     5    3    4 ar 
     6    4    5 ar 
     7    6    5 ar 
     8    5   24 1  
     9    8    7 1  
    10    7   23 1  
    11    9    8 am 
    12   10    9 1  
    13    9   20 2  
    14   11   10 ar 
    15   10   15 ar 
    16   12   11 ar 
    17   12   13 ar 
    18   37   12 1  
    19   13   14 ar 
    20   14   15 ar 
    21   14   16 1  
    22   16   17 am 
    23   16   19 1  
    24   17   18 1  
    25   17   21 2  
    26   17   22 2  
    27   25   26 1  
    28   25   27 1  
    29   25   28 1  
    30   39   25 1  
    31   28   32 1  
    32   30   29 ar 
    33   34   29 ar 
    34   31   30 ar 
    35   32   31 ar 
    36   32   33 ar 
    37   33   34 ar 
    38   36   35 1  
    39   35   39 2  
    40   36   37 2  
    41   37   38 1  
    42   38   39 1  
    43    1   40 1  
    44    3   41 1  
    45    4   42 1  
    46    6   43 1  
    47    7   44 1  
    48    8   45 1  
    49   11   46 1  
    50   13   47 1  
    51   15   48 1  
    52   18   49 1  
    53   18   50 1  
    54   18   51 1  
    55   19   52 1  
    56   19   53 1  
    57   19   54 1  
    58   23   55 1  
    59   23   56 1  
    60   23   57 1  
    61   26   58 1  
    62   26   59 1  
    63   26   60 1  
    64   27   61 1  
    65   27   62 1  
    66   27   63 1  
    67   28   64 1  
    68   28   65 1  
    69   29   66 1  
    70   30   67 1  
    71   31   68 1  
    72   33   69 1  
    73   34   70 1  
@<TRIPOS>SUBSTRUCTURE
     1 I02         1

