### 
### Created by X-TOOL on Mon Sep 10 21:12:55 2018
### 

@<TRIPOS>MOLECULE
2is0_ligand
   72    74     1     0     0
SMALL
GAST_HUCK


@<TRIPOS>ATOM
      1 C1         32.2120   44.6970    6.2880 C.ar      1 I03        -0.0598
      2 C2         32.5680   45.5980    5.1870 C.ar      1 I03        -0.0221
      3 C3         32.5130   47.0440    5.2780 C.ar      1 I03        -0.0598
      4 C4         32.1020   47.6220    6.5340 C.ar      1 I03        -0.0348
      5 C5         31.8440   46.7160    7.6250 C.ar      1 I03         0.1248
      6 C6         31.8920   45.2720    7.5480 C.ar      1 I03        -0.0348
      7 C7         33.0420   45.0360    3.8750 C.3       1 I03         0.0705
      8 N1         32.0340   44.2360    3.1800 N.am      1 I03        -0.2728
      9 C8         31.2980   44.6760    2.1100 C.2       1 I03         0.2041
     10 C9         30.2940   43.7250    1.5460 C.ar      1 I03         0.0401
     11 C10        30.4610   42.2830    1.4070 C.ar      1 I03        -0.0380
     12 C11        29.3610   41.4750    0.9070 C.ar      1 I03         0.0519
     13 C12        28.1300   42.0850    0.5790 C.ar      1 I03        -0.0200
     14 C13        27.9380   43.4900    0.6760 C.ar      1 I03         0.0757
     15 C14        29.0370   44.2950    1.1570 C.ar      1 I03        -0.0211
     16 N2         26.7020   43.9860    0.2950 N.am      1 I03        -0.1796
     17 S1         25.9190   45.1560    1.1060 S.o2      1 I03         0.0593
     18 C15        26.2010   46.7160    0.2850 C.3       1 I03         0.0790
     19 C16        26.0660   43.6160   -0.9820 C.3       1 I03         0.0445
     20 O1         31.4640   45.8050    1.6560 O.2       1 I03        -0.3845
     21 O2         26.4930   45.2170    2.4100 O.2       1 I03        -0.1500
     22 O3         24.5350   44.8250    0.9440 O.2       1 I03        -0.1500
     23 C17        34.3150   44.1500    4.0690 C.3       1 I03        -0.0325
     24 F1         31.5540   47.2300    8.8200 F         1 I03        -0.1893
     25 C18        29.4230   40.0400    0.6400 C.2       1 I03         0.2605
     26 O4         30.2830   39.4230    1.4720 O.3       1 I03        -0.2714
     27 O5         28.7810   39.4840   -0.1960 O.2       1 I03        -0.3568
     28 C19        30.4240   37.9460    1.5350 C.3       1 I03         0.1249
     29 C20        31.5390   37.6370    2.4940 C.3       1 I03         0.0475
     30 N3         31.3970   38.4940    3.6730 N.4       1 I03         0.2279
     31 C21        31.2340   36.2150    2.8920 C.3       1 I03         0.0940
     32 C22        32.9490   37.8260    1.9000 C.3       1 I03         0.0315
     33 C23        34.5490   41.7140    0.7390 C.ar      1 I03        -0.0687
     34 C24        33.6730   41.0130   -0.1910 C.ar      1 I03        -0.0686
     35 C25        33.0920   39.7490    0.2100 C.ar      1 I03        -0.0601
     36 C26        33.4200   39.2130    1.5340 C.ar      1 I03        -0.0372
     37 C27        34.2500   39.9410    2.4860 C.ar      1 I03        -0.0601
     38 C28        34.8360   41.2100    2.0780 C.ar      1 I03        -0.0686
     39 O6         32.0390   35.8570    3.8430 O.3       1 I03        -0.3889
     40 H1         32.1934   43.6226    6.1450 H         1 I03         0.0548
     41 H2         32.7719   47.6693    4.4312 H         1 I03         0.0548
     42 H3         31.9917   48.6938    6.6526 H         1 I03         0.0587
     43 H4         31.6921   44.6538    8.4157 H         1 I03         0.0587
     44 H5         33.3045   45.8867    3.2289 H         1 I03         0.0708
     45 H6         31.8705   43.3053    3.5072 H         1 I03         0.1874
     46 H7         31.4015   41.8156    1.6754 H         1 I03         0.0579
     47 H8         27.3077   41.4635    0.2435 H         1 I03         0.0568
     48 H9         28.9067   45.3689    1.2264 H         1 I03         0.0568
     49 H10        25.6747   47.5158    0.8266 H         1 I03         0.0487
     50 H11        25.8226   46.6612   -0.7464 H         1 I03         0.0487
     51 H12        27.2794   46.9323    0.2690 H         1 I03         0.0487
     52 H13        26.6530   42.8224   -1.4675 H         1 I03         0.0517
     53 H14        26.0251   44.4965   -1.6400 H         1 I03         0.0517
     54 H15        25.0453   43.2528   -0.7916 H         1 I03         0.0517
     55 H16        35.0898   44.7307    4.5909 H         1 I03         0.0273
     56 H17        34.6942   43.8327    3.0864 H         1 I03         0.0273
     57 H18        34.0569   43.2631    4.6663 H         1 I03         0.0273
     58 H19        30.6660   37.5493    0.5380 H         1 I03         0.0674
     59 H20        29.4865   37.4945    1.8917 H         1 I03         0.0674
     60 H21        32.1404   38.2954    4.3242 H         1 I03         0.2003
     61 H22        30.5080   38.3153    4.1132 H         1 I03         0.2003
     62 H23        31.4450   39.4612    3.3931 H         1 I03         0.2003
     63 H24        31.3714   35.5525    2.0247 H         1 I03         0.0619
     64 H25        30.1943   36.1465    3.2447 H         1 I03         0.0619
     65 H26        32.9941   37.2201    0.9830 H         1 I03         0.0486
     66 H27        33.6628   37.4295    2.6370 H         1 I03         0.0486
     67 H28        35.0049   42.6456    0.4240 H         1 I03         0.0559
     68 H29        33.4597   41.4315   -1.1679 H         1 I03         0.0599
     69 H30        32.4277   39.2099   -0.4557 H         1 I03         0.0557
     70 H31        34.4276   39.5449    3.4793 H         1 I03         0.0557
     71 H32        35.4722   41.7687    2.7549 H         1 I03         0.0599
     72 H33        31.9192   36.4307    4.5905 H         1 I03         0.2097
@<TRIPOS>BOND
     1    2    1 ar 
     2    1    6 ar 
     3    2    3 ar 
     4    7    2 1  
     5    3    4 ar 
     6    4    5 ar 
     7    6    5 ar 
     8    5   24 1  
     9    8    7 1  
    10    7   23 1  
    11    9    8 am 
    12   10    9 1  
    13    9   20 2  
    14   11   10 ar 
    15   10   15 ar 
    16   12   11 ar 
    17   12   13 ar 
    18   25   12 1  
    19   13   14 ar 
    20   14   15 ar 
    21   14   16 1  
    22   16   17 am 
    23   16   19 1  
    24   17   18 1  
    25   17   21 2  
    26   17   22 2  
    27   26   25 1  
    28   25   27 2  
    29   28   26 1  
    30   29   28 1  
    31   29   30 1  
    32   29   31 1  
    33   32   29 1  
    34   31   39 1  
    35   36   32 1  
    36   34   33 ar 
    37   33   38 ar 
    38   35   34 ar 
    39   35   36 ar 
    40   36   37 ar 
    41   37   38 ar 
    42    1   40 1  
    43    3   41 1  
    44    4   42 1  
    45    6   43 1  
    46    7   44 1  
    47    8   45 1  
    48   11   46 1  
    49   13   47 1  
    50   15   48 1  
    51   18   49 1  
    52   18   50 1  
    53   18   51 1  
    54   19   52 1  
    55   19   53 1  
    56   19   54 1  
    57   23   55 1  
    58   23   56 1  
    59   23   57 1  
    60   28   58 1  
    61   28   59 1  
    62   30   60 1  
    63   30   61 1  
    64   30   62 1  
    65   31   63 1  
    66   31   64 1  
    67   32   65 1  
    68   32   66 1  
    69   33   67 1  
    70   34   68 1  
    71   35   69 1  
    72   37   70 1  
    73   38   71 1  
    74   39   72 1  
@<TRIPOS>SUBSTRUCTURE
     1 I03         1

