### 
### Created by X-TOOL on Sun Sep  9 21:50:36 2018
### 

@<TRIPOS>MOLECULE
2isc_ligand
   37    39     1     0     0
SMALL
GAST_HUCK


@<TRIPOS>ATOM
      1 N1         -1.8890   -5.9930  -15.9810 N.ar      1 NON        -0.2741
      2 C2         -2.6440   -6.9540  -16.7860 C.ar      1 NON         0.0439
      3 C4         -1.5620   -8.6990  -15.4340 C.ar      1 NON         0.0483
      4 C5         -0.8480   -7.7820  -14.6840 C.ar      1 NON         0.1304
      5 C6         -1.0410   -6.3410  -14.9830 C.ar      1 NON         0.1459
      6 C8         -0.3290   -9.8080  -13.9510 C.2       1 NON         0.0326
      7 N6         -0.4060   -5.4800  -14.3170 N.pl3     1 NON        -0.3157
      8 N3         -2.4170   -8.3610  -16.4290 N.ar      1 NON        -0.3132
      9 C9         -1.2400   -9.9700  -14.9930 C.2       1 NON         0.0166
     10 N7         -0.0950   -8.4760  -13.7860 N.pl3     1 NON        -0.2768
     11 C10        -1.7780  -11.2760  -15.4840 C.3       1 NON        -0.0117
     12 N1'        -1.3050  -11.7780  -16.7800 N.4       1 NON         0.2442
     13 C6'         0.1370  -11.6410  -17.0770 C.3       1 NON        -0.0234
     14 C4'         0.1860  -11.4920  -18.6000 C.3       1 NON         0.0531
     15 C5'         0.6900  -10.1150  -18.9800 C.3       1 NON         0.0544
     16 O5'         1.7960   -9.8300  -18.1320 O.3       1 NON        -0.3944
     17 C3'        -1.2310  -11.6540  -19.0960 C.3       1 NON         0.1046
     18 O3'        -1.4850  -13.0350  -19.3900 O.3       1 NON        -0.3860
     19 C2'        -2.0640  -11.2060  -17.9040 C.3       1 NON        -0.0039
     20 H1         -3.3162   -6.6523  -17.5811 H         1 NON         0.0956
     21 H2          0.1199  -10.6103  -13.3673 H         1 NON         0.0886
     22 H3          0.2311   -5.7781  -13.5646 H         1 NON         0.1805
     23 H4         -0.5241   -4.4782  -14.5251 H         1 NON         0.1805
     24 H5          0.5466   -8.0615  -13.0950 H         1 NON         0.2266
     25 H6         -2.8710  -11.1731  -15.5534 H         1 NON         0.0901
     26 H7         -1.5284  -12.0361  -14.7291 H         1 NON         0.0901
     27 H8         -1.4941  -12.7680  -16.7675 H         1 NON         0.2042
     28 H9          0.6901  -12.5350  -16.7532 H         1 NON         0.0819
     29 H10         0.5557  -10.7518  -16.5830 H         1 NON         0.0819
     30 H11         0.8387  -12.2616  -19.0378 H         1 NON         0.0402
     31 H12        -0.1032   -9.3676  -18.8308 H         1 NON         0.0562
     32 H13         1.0087  -10.1063  -20.0328 H         1 NON         0.0562
     33 H14         2.1409   -8.9700  -18.3415 H         1 NON         0.2094
     34 H15        -1.4259  -11.0331  -19.9828 H         1 NON         0.0652
     35 H16        -2.3772  -13.1324  -19.7016 H         1 NON         0.2100
     36 H17        -2.1129  -10.1091  -17.8383 H         1 NON         0.0840
     37 H18        -3.0835  -11.6165  -17.9500 H         1 NON         0.0840
@<TRIPOS>BOND
     1    2    1 ar 
     2    1    5 ar 
     3    8    2 ar 
     4    3    4 ar 
     5    3    8 ar 
     6    3    9 1  
     7    4    5 ar 
     8    4   10 1  
     9    5    7 1  
    10    9    6 2  
    11    6   10 1  
    12    9   11 1  
    13   11   12 1  
    14   12   13 1  
    15   12   19 1  
    16   13   14 1  
    17   14   15 1  
    18   14   17 1  
    19   15   16 1  
    20   17   18 1  
    21   17   19 1  
    22    2   20 1  
    23    6   21 1  
    24    7   22 1  
    25    7   23 1  
    26   10   24 1  
    27   11   25 1  
    28   11   26 1  
    29   12   27 1  
    30   13   28 1  
    31   13   29 1  
    32   14   30 1  
    33   15   31 1  
    34   15   32 1  
    35   16   33 1  
    36   17   34 1  
    37   18   35 1  
    38   19   36 1  
    39   19   37 1  
@<TRIPOS>SUBSTRUCTURE
     1 NON         1

