### 
### Created by X-TOOL on Mon Sep 10 21:12:55 2018
### 

@<TRIPOS>MOLECULE
2ito_ligand
   56    59     1     0     0
SMALL
GAST_HUCK


@<TRIPOS>ATOM
      1 CAO       -45.4800   -2.7160  -15.7450 C.3       1 IRE        -0.0078
      2 CAL       -44.4060   -3.5920  -15.0750 C.3       1 IRE         0.0878
      3 OAU       -43.4570   -4.0220  -16.1080 O.3       1 IRE        -0.3693
      4 CAM       -44.0750   -4.8660  -17.1340 C.3       1 IRE         0.0878
      5 CAP       -45.2550   -4.1730  -17.8460 C.3       1 IRE        -0.0078
      6 NBE       -46.1310   -3.3930  -16.9140 N.4       1 IRE         0.2385
      7 CAN       -46.7510   -2.3190  -17.7170 C.3       1 IRE        -0.0293
      8 CAJ       -48.2760   -2.4690  -17.8210 C.3       1 IRE         0.0151
      9 CAK       -48.8310   -1.4830  -18.8750 C.3       1 IRE         0.0741
     10 OAV       -49.1940   -0.1540  -18.3610 O.3       1 IRE        -0.3164
     11 CBA       -50.2350    0.4780  -19.0000 C.ar      1 IRE         0.1323
     12 CAZ       -51.1310    1.2010  -18.2160 C.ar      1 IRE         0.1323
     13 CAH       -52.1950    1.8590  -18.8390 C.ar      1 IRE        -0.0168
     14 OAT       -50.9480    1.2280  -16.8510 O.3       1 IRE        -0.3162
     15 CAA       -51.1650    2.4870  -16.1950 C.3       1 IRE         0.0601
     16 CAI       -50.3990    0.4370  -20.3940 C.ar      1 IRE        -0.0172
     17 C5        -51.4580    1.1010  -21.0030 C.ar      1 IRE         0.0392
     18 C4        -52.3520    1.8070  -20.2220 C.ar      1 IRE         0.0265
     19 N3        -53.3700    2.4460  -20.8190 N.ar      1 IRE        -0.3053
     20 C2        -53.5590    2.4110  -22.1310 C.ar      1 IRE         0.0526
     21 N1        -52.7310    1.7450  -22.9050 N.ar      1 IRE        -0.2609
     22 C6        -51.6810    1.0850  -22.3780 C.ar      1 IRE         0.1500
     23 NAS       -50.8760    0.4060  -23.1830 N.pl3     1 IRE        -0.2507
     24 CAY       -50.9780    0.4720  -24.5090 C.ar      1 IRE         0.0646
     25 CAG       -50.9250    1.7140  -25.1330 C.ar      1 IRE        -0.0246
     26 CAX       -51.0070    1.8060  -26.5120 C.ar      1 IRE         0.0649
     27 CL        -50.9430    3.3600  -27.2400 Cl        1 IRE        -0.0749
     28 CAW       -51.1410    0.6670  -27.2930 C.ar      1 IRE         0.1348
     29 FAB       -51.2180    0.7930  -28.6340 F         1 IRE        -0.1917
     30 CAD       -51.1890   -0.5850  -26.6740 C.ar      1 IRE        -0.0363
     31 CAE       -51.1030   -0.6820  -25.2800 C.ar      1 IRE        -0.0383
     32 H1        -45.0080   -1.7861  -16.0948 H         1 IRE         0.0837
     33 H2        -46.2540   -2.4770  -15.0008 H         1 IRE         0.0837
     34 H3        -44.8777   -4.4718  -14.6130 H         1 IRE         0.0613
     35 H4        -43.8792   -3.0110  -14.3037 H         1 IRE         0.0613
     36 H5        -44.4436   -5.7862  -16.6572 H         1 IRE         0.0613
     37 H6        -43.3128   -5.1219  -17.8847 H         1 IRE         0.0613
     38 H7        -45.8669   -4.9429  -18.3386 H         1 IRE         0.0837
     39 H8        -44.8511   -3.4854  -18.6036 H         1 IRE         0.0837
     40 H9        -46.8386   -4.0167  -16.5585 H         1 IRE         0.2035
     41 H10       -46.3240   -2.3447  -18.7304 H         1 IRE         0.0815
     42 H11       -46.5229   -1.3508  -17.2474 H         1 IRE         0.0815
     43 H12       -48.7314   -2.2523  -16.8434 H         1 IRE         0.0343
     44 H13       -48.5217   -3.4987  -18.1198 H         1 IRE         0.0343
     45 H14       -49.7306   -1.9325  -19.3207 H         1 IRE         0.0613
     46 H15       -48.0643   -1.3491  -19.6524 H         1 IRE         0.0613
     47 H16       -52.9059    2.4159  -18.2393 H         1 IRE         0.0496
     48 H17       -50.9872    2.3734  -15.1154 H         1 IRE         0.0579
     49 H18       -52.2015    2.8144  -16.3634 H         1 IRE         0.0579
     50 H19       -50.4724    3.2376  -16.6036 H         1 IRE         0.0579
     51 H20       -49.6930   -0.1178  -21.0013 H         1 IRE         0.0546
     52 H21       -54.4015    2.9348  -22.5680 H         1 IRE         0.1017
     53 H22       -50.1472   -0.1927  -22.7690 H         1 IRE         0.2204
     54 H23       -50.8191    2.6134  -24.5373 H         1 IRE         0.0538
     55 H24       -51.2929   -1.4819  -27.2738 H         1 IRE         0.0577
     56 H25       -51.1336   -1.6539  -24.8009 H         1 IRE         0.0535
@<TRIPOS>BOND
     1    1    2 1  
     2    1    6 1  
     3    2    3 1  
     4    3    4 1  
     5    4    5 1  
     6    5    6 1  
     7    6    7 1  
     8    7    8 1  
     9    8    9 1  
    10    9   10 1  
    11   10   11 1  
    12   11   12 ar 
    13   11   16 ar 
    14   12   13 ar 
    15   12   14 1  
    16   13   18 ar 
    17   14   15 1  
    18   16   17 ar 
    19   17   18 ar 
    20   17   22 ar 
    21   18   19 ar 
    22   19   20 ar 
    23   20   21 ar 
    24   21   22 ar 
    25   22   23 1  
    26   23   24 1  
    27   24   25 ar 
    28   24   31 ar 
    29   25   26 ar 
    30   26   27 1  
    31   26   28 ar 
    32   28   29 1  
    33   28   30 ar 
    34   30   31 ar 
    35    1   32 1  
    36    1   33 1  
    37    2   34 1  
    38    2   35 1  
    39    4   36 1  
    40    4   37 1  
    41    5   38 1  
    42    5   39 1  
    43    6   40 1  
    44    7   41 1  
    45    7   42 1  
    46    8   43 1  
    47    8   44 1  
    48    9   45 1  
    49    9   46 1  
    50   13   47 1  
    51   15   48 1  
    52   15   49 1  
    53   15   50 1  
    54   16   51 1  
    55   20   52 1  
    56   23   53 1  
    57   25   54 1  
    58   30   55 1  
    59   31   56 1  
@<TRIPOS>SUBSTRUCTURE
     1 IRE         1

