### 
### Created by X-TOOL on Mon Sep 10 21:12:56 2018
### 

@<TRIPOS>MOLECULE
2itp_ligand
   67    71     1     0     0
SMALL
GAST_HUCK


@<TRIPOS>ATOM
      1 CAQ       -50.6230   -0.5830  -12.5610 C.3       1 AEE         0.0109
      2 CAO       -49.5610   -0.7780  -11.4520 C.3       1 AEE         0.0095
      3 NBF       -49.3020   -2.2240  -11.1470 N.4       1 AEE         0.2425
      4 CAN       -50.3550   -2.7930  -10.2580 C.3       1 AEE        -0.0344
      5 CAA       -50.5150   -1.9410   -8.9750 C.3       1 AEE        -0.0245
      6 CAP       -49.0080   -3.0800  -12.3420 C.3       1 AEE         0.0095
      7 CAR       -49.7880   -2.7090  -13.6360 C.3       1 AEE         0.0109
      8 NBG       -50.1890   -1.2670  -13.8070 N.4       1 AEE         0.2548
      9 CAS       -49.1930   -0.4480  -14.5800 C.3       1 AEE         0.0025
     10 CAX       -49.9080   -0.1170  -15.8880 C.ar      1 AEE         0.0018
     11 CAI       -50.9130    0.8550  -15.9060 C.ar      1 AEE        -0.0546
     12 CAK       -51.5930    1.1200  -17.0980 C.ar      1 AEE        -0.0586
     13 CAJ       -49.5910   -0.8370  -17.0350 C.ar      1 AEE        -0.0546
     14 CAL       -50.2700   -0.5710  -18.2180 C.ar      1 AEE        -0.0586
     15 CAY       -51.2600    0.4100  -18.2610 C.ar      1 AEE        -0.0019
     16 CBA       -51.9420    0.6390  -19.4570 C.2       1 AEE         0.0634
     17 NAW       -53.0900    1.3230  -19.5730 N.pl3     1 AEE        -0.2618
     18 CAM       -51.5900    0.1700  -20.6560 C.2       1 AEE        -0.0457
     19 C5        -52.4940    0.5780  -21.5400 C.ar      1 AEE         0.0466
     20 C4        -53.4470    1.3140  -20.8530 C.ar      1 AEE         0.1356
     21 N3        -54.4940    1.8370  -21.5270 N.ar      1 AEE        -0.2767
     22 C2        -54.6330    1.6530  -22.8450 C.ar      1 AEE         0.0500
     23 N1        -53.7350    0.9560  -23.5300 N.ar      1 AEE        -0.2729
     24 C6        -52.6520    0.4060  -22.9160 C.ar      1 AEE         0.1220
     25 NAV       -51.7500   -0.3020  -23.6120 N.pl3     1 AEE        -0.2876
     26 CBE       -52.1210   -0.8630  -24.9160 C.3       1 AEE         0.0722
     27 CAB       -51.2500   -2.0690  -25.3010 C.3       1 AEE        -0.0314
     28 CAZ       -52.0290    0.2630  -25.9540 C.ar      1 AEE        -0.0177
     29 CAG       -51.4470    1.5000  -25.5840 C.ar      1 AEE        -0.0581
     30 CAD       -51.3600    2.5610  -26.4940 C.ar      1 AEE        -0.0685
     31 CAC       -51.8640    2.3520  -27.7840 C.ar      1 AEE        -0.0687
     32 CAE       -52.4400    1.1210  -28.1590 C.ar      1 AEE        -0.0685
     33 CAH       -52.5420    0.0670  -27.2480 C.ar      1 AEE        -0.0581
     34 H1        -50.7485    0.4915  -12.7602 H         1 AEE         0.0868
     35 H2        -51.5808   -1.0083  -12.2268 H         1 AEE         0.0868
     36 H3        -49.9141   -0.2827  -10.5355 H         1 AEE         0.0868
     37 H4        -48.6196   -0.3135  -11.7805 H         1 AEE         0.0868
     38 H5        -48.4529   -2.2340  -10.6039 H         1 AEE         0.2037
     39 H6        -50.0732   -3.8183   -9.9765 H         1 AEE         0.0812
     40 H7        -51.3122   -2.8114  -10.7997 H         1 AEE         0.0812
     41 H8        -51.2961   -2.3811   -8.3377 H         1 AEE         0.0281
     42 H9        -50.8009   -0.9149   -9.2495 H         1 AEE         0.0281
     43 H10       -49.5618   -1.9218   -8.4263 H         1 AEE         0.0281
     44 H11       -49.2548   -4.1203  -12.0834 H         1 AEE         0.0868
     45 H12       -47.9326   -3.0014  -12.5596 H         1 AEE         0.0868
     46 H13       -50.7074   -3.3126  -13.6531 H         1 AEE         0.0868
     47 H14       -49.1550   -2.9806  -14.4936 H         1 AEE         0.0868
     48 H15       -51.0126   -1.2989  -14.3872 H         1 AEE         0.2053
     49 H16       -48.2780   -1.0275  -14.7723 H         1 AEE         0.0983
     50 H17       -48.9367    0.4713  -14.0330 H         1 AEE         0.0983
     51 H18       -51.1629    1.3989  -15.0022 H         1 AEE         0.0561
     52 H19       -52.3743    1.8709  -17.1236 H         1 AEE         0.0602
     53 H20       -48.8208   -1.5992  -17.0064 H         1 AEE         0.0561
     54 H21       -50.0281   -1.1305  -19.1144 H         1 AEE         0.0602
     55 H22       -53.6048    1.7760  -18.8044 H         1 AEE         0.2284
     56 H23       -50.7145   -0.4406  -20.8720 H         1 AEE         0.0342
     57 H24       -55.4879    2.0776  -23.3586 H         1 AEE         0.0975
     58 H25       -50.8036   -0.4508  -23.2337 H         1 AEE         0.1894
     59 H26       -53.1644   -1.2072  -24.8638 H         1 AEE         0.0724
     60 H27       -51.5667   -2.4515  -26.2825 H         1 AEE         0.0275
     61 H28       -51.3640   -2.8599  -24.5451 H         1 AEE         0.0275
     62 H29       -50.1958   -1.7589  -25.3511 H         1 AEE         0.0275
     63 H30       -51.0621    1.6278  -24.5787 H         1 AEE         0.0557
     64 H31       -50.9186    3.5096  -26.2103 H         1 AEE         0.0599
     65 H32       -51.8100    3.1548  -28.5104 H         1 AEE         0.0559
     66 H33       -52.8094    0.9905  -29.1697 H         1 AEE         0.0599
     67 H34       -53.0025   -0.8729  -27.5301 H         1 AEE         0.0557
@<TRIPOS>BOND
     1    1    2 1  
     2    1    8 1  
     3    2    3 1  
     4    3    4 1  
     5    3    6 1  
     6    4    5 1  
     7    6    7 1  
     8    7    8 1  
     9    8    9 1  
    10    9   10 1  
    11   10   11 ar 
    12   10   13 ar 
    13   11   12 ar 
    14   12   15 ar 
    15   13   14 ar 
    16   14   15 ar 
    17   15   16 1  
    18   16   17 1  
    19   16   18 2  
    20   17   20 1  
    21   18   19 1  
    22   19   20 ar 
    23   19   24 ar 
    24   20   21 ar 
    25   21   22 ar 
    26   22   23 ar 
    27   23   24 ar 
    28   24   25 1  
    29   25   26 1  
    30   26   27 1  
    31   26   28 1  
    32   28   29 ar 
    33   28   33 ar 
    34   29   30 ar 
    35   30   31 ar 
    36   31   32 ar 
    37   32   33 ar 
    38    1   34 1  
    39    1   35 1  
    40    2   36 1  
    41    2   37 1  
    42    3   38 1  
    43    4   39 1  
    44    4   40 1  
    45    5   41 1  
    46    5   42 1  
    47    5   43 1  
    48    6   44 1  
    49    6   45 1  
    50    7   46 1  
    51    7   47 1  
    52    8   48 1  
    53    9   49 1  
    54    9   50 1  
    55   11   51 1  
    56   12   52 1  
    57   13   53 1  
    58   14   54 1  
    59   17   55 1  
    60   18   56 1  
    61   22   57 1  
    62   25   58 1  
    63   26   59 1  
    64   27   60 1  
    65   27   61 1  
    66   27   62 1  
    67   29   63 1  
    68   30   64 1  
    69   31   65 1  
    70   32   66 1  
    71   33   67 1  
@<TRIPOS>SUBSTRUCTURE
     1 AEE         1

