### 
### Created by X-TOOL on Mon Sep 10 21:12:56 2018
### 

@<TRIPOS>MOLECULE
2itt_ligand
   67    71     1     0     0
SMALL
GAST_HUCK


@<TRIPOS>ATOM
      1 CAQ       -50.7210   -0.7810  -12.2970 C.3       1 AEE         0.0109
      2 CAO       -49.5810   -1.4720  -11.4860 C.3       1 AEE         0.0095
      3 NBF       -49.4390   -2.9180  -11.8180 N.4       1 AEE         0.2425
      4 CAN       -50.5420   -3.7350  -11.2330 C.3       1 AEE        -0.0344
      5 CAA       -50.0450   -4.4560   -9.9620 C.3       1 AEE        -0.0245
      6 CAP       -49.3030   -3.1600  -13.2780 C.3       1 AEE         0.0095
      7 CAR       -50.5030   -2.5640  -14.0510 C.3       1 AEE         0.0109
      8 NBG       -50.7030   -1.1070  -13.7630 N.4       1 AEE         0.2548
      9 CAS       -49.7860   -0.2560  -14.5780 C.3       1 AEE         0.0025
     10 CAX       -50.4280   -0.0680  -15.9830 C.ar      1 AEE         0.0018
     11 CAI       -51.5020    0.8200  -16.1410 C.ar      1 AEE        -0.0546
     12 CAK       -52.0860    0.9790  -17.4070 C.ar      1 AEE        -0.0586
     13 CAJ       -49.9620   -0.7930  -17.1020 C.ar      1 AEE        -0.0546
     14 CAL       -50.5530   -0.6360  -18.3700 C.ar      1 AEE        -0.0586
     15 CAY       -51.6170    0.2770  -18.5500 C.ar      1 AEE        -0.0019
     16 CBA       -52.2660    0.4580  -19.7990 C.2       1 AEE         0.0634
     17 NAW       -53.4050    1.1720  -19.9560 N.pl3     1 AEE        -0.2618
     18 CAM       -51.9340   -0.0420  -21.0060 C.2       1 AEE        -0.0457
     19 C5        -52.8520    0.3590  -21.9170 C.ar      1 AEE         0.0466
     20 C4        -53.7830    1.1400  -21.2240 C.ar      1 AEE         0.1356
     21 N3        -54.8340    1.6600  -21.8510 N.ar      1 AEE        -0.2767
     22 C2        -55.0140    1.4680  -23.1650 C.ar      1 AEE         0.0500
     23 N1        -54.1620    0.7450  -23.8950 N.ar      1 AEE        -0.2729
     24 C6        -53.0560    0.1510  -23.3160 C.ar      1 AEE         0.1220
     25 NAV       -52.1840   -0.5970  -24.0670 N.pl3     1 AEE        -0.2876
     26 CBE       -52.5000   -1.0620  -25.4430 C.3       1 AEE         0.0722
     27 CAB       -51.5830   -2.2000  -25.9180 C.3       1 AEE        -0.0314
     28 CAZ       -52.4430    0.1080  -26.4510 C.ar      1 AEE        -0.0177
     29 CAG       -51.9650    1.3760  -26.0540 C.ar      1 AEE        -0.0581
     30 CAD       -51.9230    2.4620  -26.9480 C.ar      1 AEE        -0.0685
     31 CAC       -52.3620    2.2610  -28.2710 C.ar      1 AEE        -0.0687
     32 CAE       -52.8350    0.9930  -28.6750 C.ar      1 AEE        -0.0685
     33 CAH       -52.8820   -0.0840  -27.7730 C.ar      1 AEE        -0.0581
     34 H1        -50.6176    0.3081  -12.1823 H         1 AEE         0.0868
     35 H2        -51.6872   -1.1034  -11.8816 H         1 AEE         0.0868
     36 H3        -49.8040   -1.3769  -10.4131 H         1 AEE         0.0868
     37 H4        -48.6313   -0.9640  -11.7096 H         1 AEE         0.0868
     38 H5        -48.5820   -3.2309  -11.3894 H         1 AEE         0.2037
     39 H6        -50.8731   -4.4816  -11.9698 H         1 AEE         0.0812
     40 H7        -51.3846   -3.0774  -10.9732 H         1 AEE         0.0812
     41 H8        -50.8633   -5.0557   -9.5370 H         1 AEE         0.0281
     42 H9        -49.7146   -3.7110   -9.2233 H         1 AEE         0.0281
     43 H10       -49.2030   -5.1152  -10.2199 H         1 AEE         0.0281
     44 H11       -49.2595   -4.2438  -13.4608 H         1 AEE         0.0868
     45 H12       -48.3750   -2.6902  -13.6360 H         1 AEE         0.0868
     46 H13       -51.4141   -3.1090  -13.7632 H         1 AEE         0.0868
     47 H14       -50.3258   -2.6896  -15.1293 H         1 AEE         0.0868
     48 H15       -51.6314   -0.8904  -14.0904 H         1 AEE         0.2053
     49 H16       -48.8080   -0.7496  -14.6773 H         1 AEE         0.0983
     50 H17       -49.6552    0.7227  -14.0932 H         1 AEE         0.0983
     51 H18       -51.8780    1.3791  -15.2918 H         1 AEE         0.0561
     52 H19       -52.9224    1.6597  -17.5167 H         1 AEE         0.0602
     53 H20       -49.1344   -1.4827  -16.9823 H         1 AEE         0.0561
     54 H21       -50.1911   -1.2169  -19.2107 H         1 AEE         0.0602
     55 H22       -53.9029    1.6662  -19.2018 H         1 AEE         0.2284
     56 H23       -51.0673   -0.6675  -21.2147 H         1 AEE         0.0342
     57 H24       -55.8762    1.9126  -23.6488 H         1 AEE         0.0975
     58 H25       -51.2716   -0.8468  -23.6596 H         1 AEE         0.1894
     59 H26       -53.5297   -1.4486  -25.4296 H         1 AEE         0.0724
     60 H27       -51.8666   -2.4978  -26.9382 H         1 AEE         0.0275
     61 H28       -51.6876   -3.0616  -25.2422 H         1 AEE         0.0275
     62 H29       -50.5384   -1.8553  -25.9137 H         1 AEE         0.0275
     63 H30       -51.6219    1.5164  -25.0353 H         1 AEE         0.0557
     64 H31       -51.5609    3.4315  -26.6256 H         1 AEE         0.0599
     65 H32       -52.3368    3.0805  -28.9801 H         1 AEE         0.0559
     66 H33       -53.1670    0.8481  -29.6967 H         1 AEE         0.0599
     67 H34       -53.2523   -1.0513  -28.0928 H         1 AEE         0.0557
@<TRIPOS>BOND
     1    1    2 1  
     2    1    8 1  
     3    2    3 1  
     4    3    4 1  
     5    3    6 1  
     6    4    5 1  
     7    6    7 1  
     8    7    8 1  
     9    8    9 1  
    10    9   10 1  
    11   10   11 ar 
    12   10   13 ar 
    13   11   12 ar 
    14   12   15 ar 
    15   13   14 ar 
    16   14   15 ar 
    17   15   16 1  
    18   16   17 1  
    19   16   18 2  
    20   17   20 1  
    21   18   19 1  
    22   19   20 ar 
    23   19   24 ar 
    24   20   21 ar 
    25   21   22 ar 
    26   22   23 ar 
    27   23   24 ar 
    28   24   25 1  
    29   25   26 1  
    30   26   27 1  
    31   26   28 1  
    32   28   29 ar 
    33   28   33 ar 
    34   29   30 ar 
    35   30   31 ar 
    36   31   32 ar 
    37   32   33 ar 
    38    1   34 1  
    39    1   35 1  
    40    2   36 1  
    41    2   37 1  
    42    3   38 1  
    43    4   39 1  
    44    4   40 1  
    45    5   41 1  
    46    5   42 1  
    47    5   43 1  
    48    6   44 1  
    49    6   45 1  
    50    7   46 1  
    51    7   47 1  
    52    8   48 1  
    53    9   49 1  
    54    9   50 1  
    55   11   51 1  
    56   12   52 1  
    57   13   53 1  
    58   14   54 1  
    59   17   55 1  
    60   18   56 1  
    61   22   57 1  
    62   25   58 1  
    63   26   59 1  
    64   27   60 1  
    65   27   61 1  
    66   27   62 1  
    67   29   63 1  
    68   30   64 1  
    69   31   65 1  
    70   32   66 1  
    71   33   67 1  
@<TRIPOS>SUBSTRUCTURE
     1 AEE         1

