### 
### Created by X-TOOL on Mon Sep 10 21:12:56 2018
### 

@<TRIPOS>MOLECULE
2ity_ligand
   56    59     1     0     0
SMALL
GAST_HUCK


@<TRIPOS>ATOM
      1 CAO       -45.3040   -2.9970  -16.8970 C.3       1 IRE        -0.0078
      2 CAL       -43.8270   -3.4930  -16.9960 C.3       1 IRE         0.0878
      3 OAU       -43.2200   -3.2470  -18.3060 O.3       1 IRE        -0.3693
      4 CAM       -43.9940   -3.9060  -19.3500 C.3       1 IRE         0.0878
      5 CAP       -45.4960   -3.4890  -19.3580 C.3       1 IRE        -0.0078
      6 NBE       -46.1610   -3.4980  -18.0110 N.4       1 IRE         0.2385
      7 CAN       -47.4070   -2.6730  -18.0340 C.3       1 IRE        -0.0293
      8 CAJ       -48.6050   -3.3750  -18.8720 C.3       1 IRE         0.0151
      9 CAK       -49.3370   -2.1730  -19.9370 C.3       1 IRE         0.0741
     10 OAV       -50.0110   -1.1150  -19.0520 O.3       1 IRE        -0.3164
     11 CBA       -51.0590   -0.4110  -19.6070 C.ar      1 IRE         0.1323
     12 CAZ       -51.8510    0.3220  -18.7380 C.ar      1 IRE         0.1323
     13 CAH       -52.9420    1.0520  -19.2100 C.ar      1 IRE        -0.0168
     14 OAT       -51.5280    0.2890  -17.4160 O.3       1 IRE        -0.3162
     15 CAA       -51.8800    1.5010  -16.6950 C.3       1 IRE         0.0601
     16 CAI       -51.3720   -0.4090  -20.9680 C.ar      1 IRE        -0.0172
     17 C5        -52.4640    0.3240  -21.4520 C.ar      1 IRE         0.0392
     18 C4        -53.2450    1.0570  -20.5630 C.ar      1 IRE         0.0265
     19 N3        -54.2870    1.7660  -21.0240 N.ar      1 IRE        -0.3053
     20 C2        -54.5850    1.7670  -22.3190 C.ar      1 IRE         0.0526
     21 N1        -53.8690    1.0820  -23.2060 N.ar      1 IRE        -0.2609
     22 C6        -52.8030    0.3520  -22.8180 C.ar      1 IRE         0.1500
     23 NAS       -52.0740   -0.3550  -23.7040 N.pl3     1 IRE        -0.2507
     24 CAY       -52.1840   -0.3870  -25.0470 C.ar      1 IRE         0.0646
     25 CAG       -52.1700    0.7900  -25.8000 C.ar      1 IRE        -0.0246
     26 CAX       -52.2600    0.7300  -27.1910 C.ar      1 IRE         0.0649
     27 CL        -52.2640    2.1910  -28.1230 Cl        1 IRE        -0.0749
     28 CAW       -52.3590   -0.4990  -27.8370 C.ar      1 IRE         0.1348
     29 FAB       -52.4480   -0.5200  -29.1770 F         1 IRE        -0.1917
     30 CAD       -52.3660   -1.6850  -27.0980 C.ar      1 IRE        -0.0363
     31 CAE       -52.2700   -1.6270  -25.7050 C.ar      1 IRE        -0.0383
     32 H1        -45.3071   -1.8972  -16.9192 H         1 IRE         0.0837
     33 H2        -45.7282   -3.3457  -15.9439 H         1 IRE         0.0837
     34 H3        -43.8082   -4.5753  -16.8002 H         1 IRE         0.0613
     35 H4        -43.2316   -2.9717  -16.2319 H         1 IRE         0.0613
     36 H5        -43.9341   -4.9935  -19.1957 H         1 IRE         0.0613
     37 H6        -43.5549   -3.6493  -20.3253 H         1 IRE         0.0613
     38 H7        -46.0406   -4.1851  -20.0128 H         1 IRE         0.0837
     39 H8        -45.5659   -2.4702  -19.7669 H         1 IRE         0.0837
     40 H9        -46.4100   -4.4528  -17.8051 H         1 IRE         0.2035
     41 H10       -47.1774   -1.7010  -18.4949 H         1 IRE         0.0815
     42 H11       -47.7455   -2.5172  -16.9990 H         1 IRE         0.0815
     43 H12       -49.3638   -3.7634  -18.1768 H         1 IRE         0.0343
     44 H13       -48.1999   -4.2028  -19.4726 H         1 IRE         0.0343
     45 H14       -48.5618   -1.7023  -20.5595 H         1 IRE         0.0613
     46 H15       -50.0860   -2.6525  -20.5843 H         1 IRE         0.0613
     47 H16       -53.5547    1.6170  -18.5169 H         1 IRE         0.0496
     48 H17       -51.5888    1.3972  -15.6393 H         1 IRE         0.0579
     49 H18       -52.9657    1.6650  -16.7615 H         1 IRE         0.0579
     50 H19       -51.3519    2.3580  -17.1385 H         1 IRE         0.0579
     51 H20       -50.7630   -0.9813  -21.6584 H         1 IRE         0.0546
     52 H21       -55.4366    2.3430  -22.6625 H         1 IRE         0.1017
     53 H22       -51.3352   -0.9494  -23.3017 H         1 IRE         0.2204
     54 H23       -52.0892    1.7501  -25.3032 H         1 IRE         0.0538
     55 H24       -52.4452   -2.6420  -27.6010 H         1 IRE         0.0577
     56 H25       -52.2618   -2.5443  -25.1275 H         1 IRE         0.0535
@<TRIPOS>BOND
     1    1    2 1  
     2    6    1 1  
     3    2    3 1  
     4    4    3 1  
     5    5    4 1  
     6    6    5 1  
     7    7    6 1  
     8    8    7 1  
     9    9   10 1  
    10   10   11 1  
    11   11   12 ar 
    12   11   16 ar 
    13   12   13 ar 
    14   12   14 1  
    15   13   18 ar 
    16   14   15 1  
    17   16   17 ar 
    18   17   18 ar 
    19   17   22 ar 
    20   18   19 ar 
    21   19   20 ar 
    22   21   20 ar 
    23   22   21 ar 
    24   22   23 1  
    25   23   24 1  
    26   24   25 ar 
    27   24   31 ar 
    28   25   26 ar 
    29   26   27 1  
    30   26   28 ar 
    31   28   29 1  
    32   30   28 ar 
    33   31   30 ar 
    34    1   32 1  
    35    1   33 1  
    36    2   34 1  
    37    2   35 1  
    38    4   36 1  
    39    4   37 1  
    40    5   38 1  
    41    5   39 1  
    42    6   40 1  
    43    7   41 1  
    44    7   42 1  
    45    8   43 1  
    46    8   44 1  
    47    9   45 1  
    48    9   46 1  
    49   13   47 1  
    50   15   48 1  
    51   15   49 1  
    52   15   50 1  
    53   16   51 1  
    54   20   52 1  
    55   23   53 1  
    56   25   54 1  
    57   30   55 1  
    58    8    9 1  
    59   31   56 1  
@<TRIPOS>SUBSTRUCTURE
     1 IRE         1

