### 
### Created by X-TOOL on Mon Sep 10 21:12:56 2018
### 

@<TRIPOS>MOLECULE
2itz_ligand
   56    59     1     0     0
SMALL
GAST_HUCK


@<TRIPOS>ATOM
      1 CAO       -47.1980   -4.1360  -17.5700 C.3       1 IRE        -0.0078
      2 CAL       -46.7890   -5.5260  -17.0320 C.3       1 IRE         0.0878
      3 OAU       -47.0140   -6.6360  -18.0000 O.3       1 IRE        -0.3693
      4 CAM       -48.3210   -6.6560  -18.6930 C.3       1 IRE         0.0878
      5 CAP       -48.6940   -5.2500  -19.1760 C.3       1 IRE        -0.0078
      6 NBE       -48.5890   -4.2690  -18.0560 N.4       1 IRE         0.2385
      7 CAN       -49.0970   -2.9790  -18.5090 C.3       1 IRE        -0.0293
      8 CAJ       -49.9770   -3.2790  -19.7290 C.3       1 IRE         0.0151
      9 CAK       -50.1290   -2.0010  -20.5060 C.3       1 IRE         0.0741
     10 OAV       -50.7680   -1.1820  -19.5140 O.3       1 IRE        -0.3164
     11 CBA       -51.7890   -0.5000  -20.0660 C.ar      1 IRE         0.1323
     12 CAZ       -52.5420    0.3110  -19.2520 C.ar      1 IRE         0.1323
     13 CAH       -53.6120    1.0440  -19.8070 C.ar      1 IRE        -0.0168
     14 OAT       -52.1660    0.3310  -17.9350 O.3       1 IRE        -0.3162
     15 CAA       -52.6820    1.4130  -17.0980 C.3       1 IRE         0.0601
     16 CAI       -52.0670   -0.6040  -21.4190 C.ar      1 IRE        -0.0172
     17 C5        -53.1160    0.1170  -21.9750 C.ar      1 IRE         0.0392
     18 C4        -53.8940    0.9450  -21.1770 C.ar      1 IRE         0.0265
     19 N3        -54.8960    1.6160  -21.7510 N.ar      1 IRE        -0.3053
     20 C2        -55.1550    1.4940  -23.0500 C.ar      1 IRE         0.0526
     21 N1        -54.4370    0.7190  -23.8420 N.ar      1 IRE        -0.2609
     22 C6        -53.3960    0.0080  -23.3370 C.ar      1 IRE         0.1500
     23 NAS       -52.6120   -0.8090  -24.0850 N.pl3     1 IRE        -0.2507
     24 CAY       -52.6790   -0.8110  -25.4190 C.ar      1 IRE         0.0646
     25 CAG       -52.7020    0.4180  -26.0960 C.ar      1 IRE        -0.0246
     26 CAX       -52.7880    0.4480  -27.4880 C.ar      1 IRE         0.0649
     27 CL        -52.8460    1.9560  -28.3460 Cl        1 IRE        -0.0749
     28 CAW       -52.8460   -0.7480  -28.1910 C.ar      1 IRE         0.1348
     29 FAB       -52.9230   -0.6730  -29.5270 F         1 IRE        -0.1917
     30 CAD       -52.8180   -1.9870  -27.5250 C.ar      1 IRE        -0.0363
     31 CAE       -52.7350   -2.0260  -26.1310 C.ar      1 IRE        -0.0383
     32 H1        -46.5340   -3.8366  -18.3943 H         1 IRE         0.0837
     33 H2        -47.1458   -3.3866  -16.7665 H         1 IRE         0.0837
     34 H3        -47.3755   -5.7330  -16.1248 H         1 IRE         0.0613
     35 H4        -45.7190   -5.4986  -16.7786 H         1 IRE         0.0613
     36 H5        -49.0937   -7.0169  -17.9982 H         1 IRE         0.0613
     37 H6        -48.2615   -7.3321  -19.5586 H         1 IRE         0.0613
     38 H7        -49.7270   -5.2590  -19.5540 H         1 IRE         0.0837
     39 H8        -48.0103   -4.9514  -19.9843 H         1 IRE         0.0837
     40 H9        -49.1605   -4.5930  -17.2915 H         1 IRE         0.2035
     41 H10       -48.2646   -2.3175  -18.7910 H         1 IRE         0.0815
     42 H11       -49.6919   -2.5021  -17.7161 H         1 IRE         0.0815
     43 H12       -50.9636   -3.6377  -19.4006 H         1 IRE         0.0343
     44 H13       -49.4987   -4.0450  -20.3571 H         1 IRE         0.0343
     45 H14       -50.7634   -2.1361  -21.3944 H         1 IRE         0.0613
     46 H15       -49.1552   -1.5894  -20.8099 H         1 IRE         0.0613
     47 H16       -54.2163    1.6839  -19.1742 H         1 IRE         0.0496
     48 H17       -52.2980    1.2990  -16.0735 H         1 IRE         0.0579
     49 H18       -53.7812    1.3735  -17.0841 H         1 IRE         0.0579
     50 H19       -52.3549    2.3805  -17.5066 H         1 IRE         0.0579
     51 H20       -51.4637   -1.2504  -22.0462 H         1 IRE         0.0546
     52 H21       -55.9840    2.0499  -23.4729 H         1 IRE         0.1017
     53 H22       -51.9503   -1.4419  -23.6133 H         1 IRE         0.2204
     54 H23       -52.6529    1.3452  -25.5366 H         1 IRE         0.0538
     55 H24       -52.8607   -2.9096  -28.0925 H         1 IRE         0.0577
     56 H25       -52.7140   -2.9742  -25.6061 H         1 IRE         0.0535
@<TRIPOS>BOND
     1    1    2 1  
     2    1    6 1  
     3    2    3 1  
     4    3    4 1  
     5    4    5 1  
     6    5    6 1  
     7    6    7 1  
     8    7    8 1  
     9    8    9 1  
    10    9   10 1  
    11   10   11 1  
    12   11   12 ar 
    13   11   16 ar 
    14   12   13 ar 
    15   12   14 1  
    16   13   18 ar 
    17   14   15 1  
    18   16   17 ar 
    19   17   18 ar 
    20   17   22 ar 
    21   18   19 ar 
    22   19   20 ar 
    23   20   21 ar 
    24   21   22 ar 
    25   22   23 1  
    26   23   24 1  
    27   24   25 ar 
    28   24   31 ar 
    29   25   26 ar 
    30   26   27 1  
    31   26   28 ar 
    32   28   29 1  
    33   28   30 ar 
    34   30   31 ar 
    35    1   32 1  
    36    1   33 1  
    37    2   34 1  
    38    2   35 1  
    39    4   36 1  
    40    4   37 1  
    41    5   38 1  
    42    5   39 1  
    43    6   40 1  
    44    7   41 1  
    45    7   42 1  
    46    8   43 1  
    47    8   44 1  
    48    9   45 1  
    49    9   46 1  
    50   13   47 1  
    51   15   48 1  
    52   15   49 1  
    53   15   50 1  
    54   16   51 1  
    55   20   52 1  
    56   23   53 1  
    57   25   54 1  
    58   30   55 1  
    59   31   56 1  
@<TRIPOS>SUBSTRUCTURE
     1 IRE         1

