### 
### Created by X-TOOL on Mon Sep 10 21:12:54 2018
### 

@<TRIPOS>MOLECULE
2ivu_ligand
   55    58     1     0     0
SMALL
GAST_HUCK


@<TRIPOS>ATOM
      1 CAK       -24.6920   15.9600  -13.5540 C.3       1 ZD6        -0.0071
      2 CAM       -25.6660   17.1090  -13.8300 C.3       1 ZD6        -0.0318
      3 NBD       -26.2060   17.7350  -12.5960 N.4       1 ZD6         0.2331
      4 CAB       -27.4810   18.3480  -13.0230 C.3       1 ZD6        -0.0431
      5 CAN       -26.5500   16.8150  -11.4660 C.3       1 ZD6        -0.0318
      6 CAL       -25.5480   15.6720  -11.2810 C.3       1 ZD6        -0.0071
      7 CBC       -25.3120   14.9490  -12.6080 C.3       1 ZD6        -0.0035
      8 CAO       -24.3880   13.7520  -12.4290 C.3       1 ZD6         0.0743
      9 OAT       -25.2470   12.7670  -11.8870 O.3       1 ZD6        -0.3127
     10 CAY       -24.7220   11.5280  -11.6550 C.ar      1 ZD6         0.1327
     11 CAI       -23.5000   11.1130  -12.1550 C.ar      1 ZD6        -0.0168
     12 CAX       -25.4840   10.6690  -10.8840 C.ar      1 ZD6         0.1319
     13 OAS       -26.6940   11.1710  -10.4290 O.3       1 ZD6        -0.3198
     14 CAA       -27.4580   10.4010   -9.4730 C.3       1 ZD6         0.0583
     15 CAJ       -25.0120    9.3770  -10.6250 C.ar      1 ZD6        -0.0171
     16 C5        -23.7800    8.9600  -11.1360 C.ar      1 ZD6         0.0394
     17 C4        -23.0230    9.8400  -11.8940 C.ar      1 ZD6         0.0266
     18 N3        -21.8330    9.4340  -12.4010 N.ar      1 ZD6        -0.3052
     19 C2        -21.3730    8.2090  -12.1660 C.ar      1 ZD6         0.0528
     20 N1        -22.0550    7.3510  -11.4160 N.ar      1 ZD6        -0.2607
     21 C6        -23.2520    7.6690  -10.8930 C.ar      1 ZD6         0.1508
     22 NAR       -23.9680    6.7080  -10.1040 N.pl3     1 ZD6        -0.2467
     23 CAW       -23.3730    5.4880   -9.7110 C.ar      1 ZD6         0.1051
     24 CAF       -23.9320    4.2780  -10.0880 C.ar      1 ZD6        -0.0356
     25 CAE       -23.3430    3.0920   -9.6630 C.ar      1 ZD6        -0.0653
     26 CAU       -22.1950    3.1520   -8.8700 C.ar      1 ZD6        -0.0005
     27 BR        -21.2330    1.6390   -8.2120 Br        1 ZD6        -0.0609
     28 CAH       -21.6590    4.3550   -8.5000 C.ar      1 ZD6        -0.0274
     29 CAV       -22.2380    5.5040   -8.9150 C.ar      1 ZD6         0.1587
     30 FAC       -21.6440    6.6220   -8.4900 F         1 ZD6        -0.1892
     31 H1        -23.7752   16.3645  -13.1003 H         1 ZD6         0.0320
     32 H2        -24.4428   15.4618  -14.5025 H         1 ZD6         0.0320
     33 H3        -26.5083   16.7179  -14.4196 H         1 ZD6         0.0814
     34 H4        -25.1391   17.8807  -14.4104 H         1 ZD6         0.0814
     35 H5        -25.5553   18.4299  -12.2648 H         1 ZD6         0.2030
     36 H6        -27.9571   18.8410  -12.1626 H         1 ZD6         0.0777
     37 H7        -28.1500   17.5676  -13.4148 H         1 ZD6         0.0777
     38 H8        -27.2851   19.0917  -13.8094 H         1 ZD6         0.0777
     39 H9        -27.5416   16.3804  -11.6606 H         1 ZD6         0.0814
     40 H10       -26.5831   17.4025  -10.5366 H         1 ZD6         0.0814
     41 H11       -25.9451   14.9576  -10.5448 H         1 ZD6         0.0320
     42 H12       -24.5942   16.0816  -10.9170 H         1 ZD6         0.0320
     43 H13       -26.2728   14.5996  -13.0140 H         1 ZD6         0.0330
     44 H14       -23.5671   13.9861  -11.7352 H         1 ZD6         0.0618
     45 H15       -23.9713   13.4261  -13.3934 H         1 ZD6         0.0618
     46 H16       -22.9094   11.7930  -12.7582 H         1 ZD6         0.0496
     47 H17       -28.3825   10.9416   -9.2219 H         1 ZD6         0.0575
     48 H18       -26.8611   10.2523   -8.5611 H         1 ZD6         0.0575
     49 H19       -27.7117    9.4233   -9.9086 H         1 ZD6         0.0575
     50 H20       -25.6051    8.6964  -10.0250 H         1 ZD6         0.0546
     51 H21       -20.4246    7.9051  -12.5941 H         1 ZD6         0.1017
     52 H22       -24.9363    6.9117   -9.8180 H         1 ZD6         0.2213
     53 H23       -24.8205    4.2557  -10.7086 H         1 ZD6         0.0537
     54 H24       -23.7687    2.1352   -9.9431 H         1 ZD6         0.0581
     55 H25       -20.7730    4.3869   -7.8762 H         1 ZD6         0.0600
@<TRIPOS>BOND
     1    1    2 1  
     2    1    7 1  
     3    2    3 1  
     4    3    4 1  
     5    3    5 1  
     6    5    6 1  
     7    6    7 1  
     8    7    8 1  
     9    8    9 1  
    10    9   10 1  
    11   10   11 ar 
    12   10   12 ar 
    13   11   17 ar 
    14   12   13 1  
    15   12   15 ar 
    16   13   14 1  
    17   15   16 ar 
    18   16   17 ar 
    19   16   21 ar 
    20   17   18 ar 
    21   18   19 ar 
    22   19   20 ar 
    23   20   21 ar 
    24   21   22 1  
    25   22   23 1  
    26   23   24 ar 
    27   23   29 ar 
    28   24   25 ar 
    29   25   26 ar 
    30   26   27 1  
    31   26   28 ar 
    32   28   29 ar 
    33   29   30 1  
    34    1   31 1  
    35    1   32 1  
    36    2   33 1  
    37    2   34 1  
    38    3   35 1  
    39    4   36 1  
    40    4   37 1  
    41    4   38 1  
    42    5   39 1  
    43    5   40 1  
    44    6   41 1  
    45    6   42 1  
    46    7   43 1  
    47    8   44 1  
    48    8   45 1  
    49   11   46 1  
    50   14   47 1  
    51   14   48 1  
    52   14   49 1  
    53   15   50 1  
    54   19   51 1  
    55   22   52 1  
    56   24   53 1  
    57   25   54 1  
    58   28   55 1  
@<TRIPOS>SUBSTRUCTURE
     1 ZD6         1

