### 
### Created by X-TOOL on Mon Sep 10 21:12:55 2018
### 

@<TRIPOS>MOLECULE
2iw6_ligand
   61    63     1     0     0
SMALL
GAST_HUCK


@<TRIPOS>ATOM
      1 C22         3.8680   41.7760   50.5570 C.ar      1 QQ2        -0.0420
      2 C1          9.7210   44.7760   50.4540 C.ar      1 QQ2         0.0588
      3 C5          7.7540   43.6700   49.8940 C.ar      1 QQ2         0.1318
      4 C4          7.0570   44.5980   50.6990 C.ar      1 QQ2         0.0299
      5 C3          7.7420   45.6250   51.3840 C.ar      1 QQ2         0.1379
      6 C11         3.1920   45.8110   53.5440 C.ar      1 QQ2        -0.0714
      7 C10         3.4340   46.4780   52.3480 C.ar      1 QQ2        -0.0555
      8 C9          4.7430   46.7270   51.9120 C.ar      1 QQ2        -0.0368
      9 C8          5.8380   46.2910   52.6650 C.ar      1 QQ2         0.0755
     10 C12         4.2640   45.3640   54.3110 C.ar      1 QQ2        -0.0640
     11 C17         8.6430   47.6550   53.8110 C.1       1 QQ2         0.1198
     12 C16         7.7880   47.8100   52.5830 C.3       1 QQ2         0.1723
     13 C13         5.5600   45.6020   53.8670 C.ar      1 QQ2         0.0554
     14 C20         5.8680   42.1470   49.2930 C.ar      1 QQ2         0.0529
     15 N2          9.0810   45.6700   51.2260 N.ar      1 QQ2        -0.2651
     16 N6          9.0860   43.8040   49.7900 N.ar      1 QQ2        -0.2657
     17 N7          7.1150   46.5450   52.1970 N.pl3     1 QQ2        -0.2193
     18 N18         9.3490   47.5520   54.7690 N.1       1 QQ2        -0.3009
     19 N19         7.1490   42.6070   49.1720 N.pl3     1 QQ2        -0.2629
     20 C21         5.1740   42.2530   50.4950 C.ar      1 QQ2        -0.0463
     21 C23         3.2290   41.1960   49.4550 C.ar      1 QQ2         0.0798
     22 C24         3.9350   41.0890   48.2510 C.ar      1 QQ2        -0.0420
     23 C25         5.2570   41.5680   48.1950 C.ar      1 QQ2        -0.0463
     24 O26         1.9320   40.7440   49.6220 O.3       1 QQ2        -0.3225
     25 C27         1.1290   40.2120   48.5620 C.3       1 QQ2         0.0988
     26 C28        -0.4020   40.1960   48.8010 C.3       1 QQ2         0.1219
     27 C29        -0.9060   40.6490   50.1900 C.3       1 QQ2        -0.0032
     28 N30        -2.4040   40.5940   50.2230 N.4       1 QQ2         0.2328
     29 C31        -3.1750   41.7460   50.6990 C.3       1 QQ2        -0.0433
     30 C32        -3.1620   39.3690   49.9530 C.3       1 QQ2        -0.0433
     31 O33        -1.0280   40.9790   47.7660 O.3       1 QQ2        -0.3839
     32 CL1         6.8360   44.9780   54.9250 Cl        1 QQ2        -0.0855
     33 C33         2.2770   46.9500   51.5190 C.3       1 QQ2        -0.0336
     34 H1          3.3262   41.8566   51.4924 H         1 QQ2         0.0516
     35 H2         10.7991   44.8455   50.3654 H         1 QQ2         0.1046
     36 H3          5.9798   44.5205   50.7923 H         1 QQ2         0.0575
     37 H4          2.1746   45.6402   53.8769 H         1 QQ2         0.0462
     38 H5          4.9078   47.2618   50.9836 H         1 QQ2         0.0472
     39 H6          4.0908   44.8372   55.2424 H         1 QQ2         0.0577
     40 H7          8.4248   48.1398   51.7489 H         1 QQ2         0.0878
     41 H8          7.0200   48.5720   52.7815 H         1 QQ2         0.0878
     42 H9          7.7427   42.1290   48.4792 H         1 QQ2         0.2124
     43 H10         5.6416   42.6983   51.3657 H         1 QQ2         0.0511
     44 H11         3.4716   40.6451   47.3773 H         1 QQ2         0.0516
     45 H12         5.8111   41.4811   47.2674 H         1 QQ2         0.0511
     46 H13         1.4513   39.1752   48.3856 H         1 QQ2         0.0637
     47 H14         1.3212   40.8140   47.6616 H         1 QQ2         0.0637
     48 H15        -0.7275   39.1521   48.6815 H         1 QQ2         0.0674
     49 H16        -0.5731   41.6796   50.3822 H         1 QQ2         0.0841
     50 H17        -0.4979   39.9816   50.9633 H         1 QQ2         0.0841
     51 H18        -2.4625   40.8897   49.2611 H         1 QQ2         0.2029
     52 H19        -4.2492   41.5146   50.6480 H         1 QQ2         0.0777
     53 H20        -2.9577   42.6193   50.0665 H         1 QQ2         0.0777
     54 H21        -2.8969   41.9686   51.7397 H         1 QQ2         0.0777
     55 H22        -2.4762   38.5828   49.6043 H         1 QQ2         0.0777
     56 H23        -3.9163   39.5679   49.1775 H         1 QQ2         0.0777
     57 H24        -3.6623   39.0367   50.8746 H         1 QQ2         0.0777
     58 H25        -0.7109   40.6919   46.9177 H         1 QQ2         0.2101
     59 H26         1.3344   46.6690   52.0114 H         1 QQ2         0.0390
     60 H27         2.3242   46.4833   50.5241 H         1 QQ2         0.0390
     61 H28         2.3236   48.0439   51.4135 H         1 QQ2         0.0390
@<TRIPOS>BOND
     1   20    1 ar 
     2    1   21 ar 
     3    2   15 ar 
     4   16    2 ar 
     5    3    4 ar 
     6    3   16 ar 
     7   19    3 1  
     8    4    5 ar 
     9    5   15 ar 
    10    5   17 1  
    11    7    6 ar 
    12   10    6 ar 
    13    8    7 ar 
    14    7   33 1  
    15    9    8 ar 
    16    9   13 ar 
    17   17    9 1  
    18   13   10 ar 
    19   12   11 1  
    20   11   18 3  
    21   17   12 1  
    22   13   32 1  
    23   14   19 1  
    24   14   20 ar 
    25   14   23 ar 
    26   21   22 ar 
    27   21   24 1  
    28   22   23 ar 
    29   24   25 1  
    30   25   26 1  
    31   26   27 1  
    32   26   31 1  
    33   27   28 1  
    34   28   29 1  
    35   28   30 1  
    36    1   34 1  
    37    2   35 1  
    38    4   36 1  
    39    6   37 1  
    40    8   38 1  
    41   10   39 1  
    42   12   40 1  
    43   12   41 1  
    44   19   42 1  
    45   20   43 1  
    46   22   44 1  
    47   23   45 1  
    48   25   46 1  
    49   25   47 1  
    50   26   48 1  
    51   27   49 1  
    52   27   50 1  
    53   28   51 1  
    54   29   52 1  
    55   29   53 1  
    56   29   54 1  
    57   30   55 1  
    58   30   56 1  
    59   30   57 1  
    60   31   58 1  
    61   33   59 1  
    62   33   60 1  
    63   33   61 1  
@<TRIPOS>SUBSTRUCTURE
     1 QQ2         1

