### 
### Created by X-TOOL on Mon Sep 10 21:12:54 2018
### 

@<TRIPOS>MOLECULE
2iw8_ligand
   50    53     1     0     0
SMALL
GAST_HUCK


@<TRIPOS>ATOM
      1 C2          8.2220   44.0290   50.0230 C.ar      1 4SP         0.1794
      2 C8         11.0250   46.8000   52.1870 C.2       1 4SP         0.1033
      3 C10         5.2950   46.0300   52.0110 C.3       1 4SP         0.0801
      4 C11         4.4120   46.4980   53.1380 C.3       1 4SP        -0.0121
      5 C12         2.9660   46.2020   52.7200 C.3       1 4SP        -0.0477
      6 C13         1.9720   46.4300   53.8610 C.3       1 4SP        -0.0527
      7 C14         2.4070   45.7380   55.1520 C.3       1 4SP        -0.0530
      8 C15         3.8420   46.1550   55.5260 C.3       1 4SP        -0.0527
      9 C16         4.8150   45.7570   54.4270 C.3       1 4SP        -0.0477
     10 C19         4.5350   41.5910   50.1310 C.ar      1 4SP        -0.0450
     11 C20         4.2290   40.8110   49.0050 C.ar      1 4SP         0.0961
     12 C21         5.1580   40.8040   47.9430 C.ar      1 4SP        -0.0450
     13 C22         6.3390   41.5510   48.0210 C.ar      1 4SP        -0.0366
     14 N26         1.6910   40.5510   49.6590 N.am      1 4SP        -0.2622
     15 N1          7.2930   44.7030   50.7500 N.ar      1 4SP        -0.2398
     16 C6          7.6160   45.6970   51.6130 C.ar      1 4SP         0.1758
     17 O6          6.6500   46.3330   52.3110 O.3       1 4SP        -0.2929
     18 C5          9.0200   46.0680   51.7620 C.ar      1 4SP         0.1044
     19 N7          9.7070   46.9640   52.4940 N.2       1 4SP        -0.3018
     20 N9         11.1660   45.7940   51.2670 N.pl3     1 4SP        -0.2402
     21 C4          9.9130   45.3500   50.9890 C.ar      1 4SP         0.1450
     22 N3          9.5340   44.3580   50.1440 N.ar      1 4SP        -0.2565
     23 N2          7.8180   43.0320   49.1710 N.pl3     1 4SP        -0.2493
     24 C17         6.6350   42.3310   49.1500 C.ar      1 4SP         0.0643
     25 C18         5.7220   42.3300   50.2050 C.ar      1 4SP        -0.0366
     26 S23         2.8610   39.9350   48.9110 S.o2      1 4SP         0.0607
     27 O24         3.0650   38.5930   49.5070 O.2       1 4SP        -0.1520
     28 O25         2.5520   39.7690   47.4760 O.2       1 4SP        -0.1520
     29 H1         11.8433   47.3813   52.6095 H         1 4SP         0.1318
     30 H2          5.0030   46.5398   51.0810 H         1 4SP         0.0630
     31 H3          5.1822   44.9432   51.8844 H         1 4SP         0.0630
     32 H4          4.5348   47.5801   53.2925 H         1 4SP         0.0328
     33 H5          2.8991   45.1525   52.3973 H         1 4SP         0.0269
     34 H6          2.6985   46.8613   51.8811 H         1 4SP         0.0269
     35 H7          0.9906   46.0344   53.5603 H         1 4SP         0.0265
     36 H8          1.8899   47.5107   54.0487 H         1 4SP         0.0265
     37 H9          2.3718   44.6479   55.0089 H         1 4SP         0.0265
     38 H10         1.7230   46.0234   55.9648 H         1 4SP         0.0265
     39 H11         4.1311   45.6572   56.4633 H         1 4SP         0.0265
     40 H12         3.8779   47.2457   55.6638 H         1 4SP         0.0265
     41 H13         5.8383   46.0397   54.7150 H         1 4SP         0.0269
     42 H14         4.7673   44.6704   54.2626 H         1 4SP         0.0269
     43 H15         3.8379   41.6219   50.9606 H         1 4SP         0.0606
     44 H16         4.9548   40.2135   47.0569 H         1 4SP         0.0606
     45 H17         7.0388   41.5268   47.1935 H         1 4SP         0.0536
     46 H18         0.8030   40.0912   49.6641 H         1 4SP         0.1633
     47 H19         1.8089   41.4162   50.1463 H         1 4SP         0.1633
     48 H20        12.0477   45.4440   50.8658 H         1 4SP         0.2380
     49 H21         8.4983   42.7713   48.4429 H         1 4SP         0.2163
     50 H22         5.9348   42.9102   51.0956 H         1 4SP         0.0536
@<TRIPOS>BOND
     1    1   15 ar 
     2    1   22 ar 
     3   23    1 1  
     4    2   19 2  
     5   20    2 1  
     6    3    4 1  
     7   17    3 1  
     8    4    5 1  
     9    4    9 1  
    10    5    6 1  
    11    6    7 1  
    12    8    7 1  
    13    9    8 1  
    14   11   10 ar 
    15   10   25 ar 
    16   12   11 ar 
    17   11   26 1  
    18   13   12 ar 
    19   24   13 ar 
    20   26   14 am 
    21   15   16 ar 
    22   16   17 1  
    23   16   18 ar 
    24   18   19 1  
    25   21   18 ar 
    26   21   20 1  
    27   22   21 ar 
    28   23   24 1  
    29   24   25 ar 
    30   26   27 2  
    31   26   28 2  
    32    2   29 1  
    33    3   30 1  
    34    3   31 1  
    35    4   32 1  
    36    5   33 1  
    37    5   34 1  
    38    6   35 1  
    39    6   36 1  
    40    7   37 1  
    41    7   38 1  
    42    8   39 1  
    43    8   40 1  
    44    9   41 1  
    45    9   42 1  
    46   10   43 1  
    47   12   44 1  
    48   13   45 1  
    49   14   46 1  
    50   14   47 1  
    51   20   48 1  
    52   23   49 1  
    53   25   50 1  
@<TRIPOS>SUBSTRUCTURE
     1 4SP         1

