### 
### Created by X-TOOL on Sun Sep  9 21:50:28 2018
### 

@<TRIPOS>MOLECULE
2iw9_ligand
   50    53     1     0     0
SMALL
GAST_HUCK


@<TRIPOS>ATOM
      1 C2          7.7900   43.7290   49.8420 C.ar      1 NON         0.1794
      2 C8         10.6640   46.3810   51.9930 C.2       1 NON         0.1033
      3 C10         4.9380   45.7440   51.8420 C.3       1 NON         0.0801
      4 C11         4.0580   46.0110   53.0440 C.3       1 NON        -0.0121
      5 C12         2.6180   45.5960   52.7190 C.3       1 NON        -0.0477
      6 C13         1.7050   45.8360   53.9210 C.3       1 NON        -0.0527
      7 C14         2.2770   45.3040   55.2360 C.3       1 NON        -0.0530
      8 C15         3.7340   45.7260   55.4460 C.3       1 NON        -0.0527
      9 C16         4.5760   45.2560   54.2720 C.3       1 NON        -0.0477
     10 C19         4.1300   41.3120   49.9790 C.ar      1 NON        -0.0450
     11 C20         3.7920   40.6400   48.7970 C.ar      1 NON         0.0961
     12 C21         4.6640   40.7210   47.7110 C.ar      1 NON        -0.0450
     13 C22         5.8660   41.4390   47.8020 C.ar      1 NON        -0.0366
     14 N26         1.3840   40.3000   49.6640 N.am      1 NON        -0.2622
     15 N1          6.8680   44.3970   50.5810 N.ar      1 NON        -0.2398
     16 C6          7.2280   45.3720   51.4530 C.ar      1 NON         0.1758
     17 O6          6.2870   46.0290   52.1840 O.3       1 NON        -0.2929
     18 C5          8.6560   45.7010   51.5950 C.ar      1 NON         0.1044
     19 N7          9.3640   46.5760   52.3340 N.2       1 NON        -0.3018
     20 N9         10.7880   45.3880   51.0620 N.pl3     1 NON        -0.2402
     21 C4          9.5310   44.9790   50.8070 C.ar      1 NON         0.1450
     22 N3          9.1190   44.0070   49.9570 N.ar      1 NON        -0.2565
     23 N2          7.3900   42.7670   48.9840 N.pl3     1 NON        -0.2493
     24 C17         6.2030   42.1010   48.9740 C.ar      1 NON         0.0643
     25 C18         5.3360   42.0230   50.0800 C.ar      1 NON        -0.0366
     26 S23         2.4060   39.8040   48.6540 S.o2      1 NON         0.0607
     27 O24         2.6670   38.3710   48.8940 O.2       1 NON        -0.1520
     28 O25         1.8510   40.0060   47.3150 O.2       1 NON        -0.1520
     29 H1         11.4995   46.9431   52.4077 H         1 NON         0.1318
     30 H2          4.6257   46.3872   51.0061 H         1 NON         0.0630
     31 H3          4.8477   44.6884   51.5460 H         1 NON         0.0630
     32 H4          4.0752   47.0887   53.2637 H         1 NON         0.0328
     33 H5          2.5997   44.5274   52.4588 H         1 NON         0.0269
     34 H6          2.2551   46.1875   51.8656 H         1 NON         0.0269
     35 H7          0.7428   45.3374   53.7327 H         1 NON         0.0265
     36 H8          1.5428   46.9190   54.0246 H         1 NON         0.0265
     37 H9          2.2244   44.2053   55.2264 H         1 NON         0.0265
     38 H10         1.6722   45.6929   56.0684 H         1 NON         0.0265
     39 H11         4.1156   45.2748   56.3738 H         1 NON         0.0265
     40 H12         3.7903   46.8220   55.5211 H         1 NON         0.0265
     41 H13         5.6364   45.4916   54.4450 H         1 NON         0.0269
     42 H14         4.4598   44.1715   54.1297 H         1 NON         0.0269
     43 H15         3.4527   41.2825   50.8248 H         1 NON         0.0606
     44 H16         4.4091   40.2218   46.7831 H         1 NON         0.0606
     45 H17         6.5361   41.4768   46.9508 H         1 NON         0.0536
     46 H18         0.4757   39.8834   49.7020 H         1 NON         0.1633
     47 H19         1.6200   41.0429   50.2905 H         1 NON         0.1633
     48 H20        11.6583   45.0289   50.6443 H         1 NON         0.2380
     49 H21         8.0631   42.5058   48.2494 H         1 NON         0.2163
     50 H22         5.5999   42.5124   51.0105 H         1 NON         0.0536
@<TRIPOS>BOND
     1    1   15 ar 
     2    1   22 ar 
     3   23    1 1  
     4    2   19 2  
     5   20    2 1  
     6    3    4 1  
     7   17    3 1  
     8    4    5 1  
     9    4    9 1  
    10    5    6 1  
    11    6    7 1  
    12    8    7 1  
    13    9    8 1  
    14   11   10 ar 
    15   10   25 ar 
    16   12   11 ar 
    17   11   26 1  
    18   13   12 ar 
    19   24   13 ar 
    20   26   14 am 
    21   15   16 ar 
    22   16   17 1  
    23   16   18 ar 
    24   18   19 1  
    25   21   18 ar 
    26   21   20 1  
    27   22   21 ar 
    28   23   24 1  
    29   24   25 ar 
    30   26   27 2  
    31   26   28 2  
    32    2   29 1  
    33    3   30 1  
    34    3   31 1  
    35    4   32 1  
    36    5   33 1  
    37    5   34 1  
    38    6   35 1  
    39    6   36 1  
    40    7   37 1  
    41    7   38 1  
    42    8   39 1  
    43    8   40 1  
    44    9   41 1  
    45    9   42 1  
    46   10   43 1  
    47   12   44 1  
    48   13   45 1  
    49   14   46 1  
    50   14   47 1  
    51   20   48 1  
    52   23   49 1  
    53   25   50 1  
@<TRIPOS>SUBSTRUCTURE
     1 NON         1

