### 
### Created by X-TOOL on Mon Sep 10 21:12:54 2018
### 

@<TRIPOS>MOLECULE
2iws_ligand
   39    40     1     0     0
SMALL
GAST_HUCK


@<TRIPOS>ATOM
      1 C1         18.4650  -34.9290  -60.3030 C.2       1 NP4         0.2450
      2 C2         18.4250  -33.9530  -59.1610 C.ar      1 NP4         0.0836
      3 O10        19.7270  -35.1970  -60.9690 O.3       1 NP4        -0.2800
      4 C3         17.4640  -32.9540  -59.1340 C.ar      1 NP4         0.0971
      5 C4         17.4290  -32.0480  -58.0840 C.ar      1 NP4        -0.0045
      6 C5         18.3790  -32.1530  -57.0610 C.ar      1 NP4         0.0932
      7 C6         19.3380  -33.1400  -57.0890 C.ar      1 NP4         0.0655
      8 C7         19.3750  -34.0400  -58.1350 C.ar      1 NP4        -0.0054
      9 C8         20.4150  -35.1380  -58.1850 C.3       1 NP4         0.0540
     10 C9         21.7050  -34.7130  -58.8540 C.2       1 NP4         0.1173
     11 C10        21.9060  -33.2980  -59.3390 C.3       1 NP4         0.0247
     12 C11        23.0010  -33.2730  -60.4030 C.3       1 NP4        -0.0304
     13 C12        22.4170  -33.2520  -61.8100 C.3       1 NP4        -0.0343
     14 C13        22.7320  -34.5640  -62.4860 C.2       1 NP4        -0.0984
     15 C14        21.7910  -35.2420  -63.1410 C.2       1 NP4        -0.0962
     16 C15        20.3800  -34.7180  -63.2330 C.3       1 NP4        -0.0086
     17 C16        19.4780  -35.5460  -62.3300 C.3       1 NP4         0.0814
     18 O1         17.4560  -35.5070  -60.6830 O.2       1 NP4        -0.3725
     19 O3         16.5410  -32.8560  -60.1320 O.3       1 NP4        -0.3313
     20 O4         18.3460  -31.2700  -56.0350 O.3       1 NP4        -0.3330
     21 CL1        20.4000  -33.2140  -55.8910 Cl        1 NP4        -0.0932
     22 O5         22.6010  -35.5290  -59.0130 O.2       1 NP4        -0.3883
     23 H1         16.6759  -31.2689  -58.0560 H         1 NP4         0.0425
     24 H2         19.9971  -35.9893  -58.7423 H         1 NP4         0.0663
     25 H3         20.6426  -35.4501  -57.1551 H         1 NP4         0.0663
     26 H4         22.2022  -32.6596  -58.4936 H         1 NP4         0.0497
     27 H5         20.9669  -32.9220  -59.7711 H         1 NP4         0.0497
     28 H6         23.6283  -34.1695  -60.2905 H         1 NP4         0.0310
     29 H7         23.6177  -32.3735  -60.2593 H         1 NP4         0.0310
     30 H8         22.8616  -32.4248  -62.3827 H         1 NP4         0.0390
     31 H9         21.3268  -33.1162  -61.7560 H         1 NP4         0.0390
     32 H10        23.7443  -34.9626  -62.4375 H         1 NP4         0.0450
     33 H11        22.0442  -36.1882  -63.6169 H         1 NP4         0.0451
     34 H12        20.0274  -34.7917  -64.2723 H         1 NP4         0.0414
     35 H13        20.3566  -33.6663  -62.9115 H         1 NP4         0.0414
     36 H14        18.4253  -35.3421  -62.5752 H         1 NP4         0.0631
     37 H15        19.6891  -36.6151  -62.4800 H         1 NP4         0.0631
     38 H16        16.6945  -33.5410  -60.7722 H         1 NP4         0.2508
     39 H17        17.6300  -30.6596  -56.1669 H         1 NP4         0.2502
@<TRIPOS>BOND
     1    1    2 1  
     2    1    3 1  
     3    1   18 2  
     4    2    4 ar 
     5    2    8 ar 
     6    3   17 1  
     7    4    5 ar 
     8    4   19 1  
     9    5    6 ar 
    10    6    7 ar 
    11    6   20 1  
    12    7    8 ar 
    13    7   21 1  
    14    8    9 1  
    15    9   10 1  
    16   10   11 1  
    17   10   22 2  
    18   11   12 1  
    19   12   13 1  
    20   13   14 1  
    21   14   15 2  
    22   15   16 1  
    23   16   17 1  
    24    5   23 1  
    25    9   24 1  
    26    9   25 1  
    27   11   26 1  
    28   11   27 1  
    29   12   28 1  
    30   12   29 1  
    31   13   30 1  
    32   13   31 1  
    33   14   32 1  
    34   15   33 1  
    35   16   34 1  
    36   16   35 1  
    37   17   36 1  
    38   17   37 1  
    39   19   38 1  
    40   20   39 1  
@<TRIPOS>SUBSTRUCTURE
     1 NP4         1

