### 
### Created by X-TOOL on Mon Sep 10 21:12:55 2018
### 

@<TRIPOS>MOLECULE
2iwu_ligand
   39    40     1     0     0
SMALL
GAST_HUCK


@<TRIPOS>ATOM
      1 C1         18.5050  -35.2070   -5.6720 C.2       1 NP5         0.2450
      2 O10        19.7720  -35.6510   -6.2310 O.3       1 NP5        -0.2800
      3 C2         18.5160  -34.2160   -4.5470 C.ar      1 NP5         0.0836
      4 C3         17.6240  -33.1570   -4.5310 C.ar      1 NP5         0.0971
      5 C4         17.6450  -32.2430   -3.4850 C.ar      1 NP5        -0.0045
      6 C5         18.5660  -32.3810   -2.4560 C.ar      1 NP5         0.0932
      7 C6         19.4600  -33.4420   -2.4810 C.ar      1 NP5         0.0655
      8 C7         19.4410  -34.3540   -3.5240 C.ar      1 NP5        -0.0054
      9 C8         20.4270  -35.4990   -3.5290 C.3       1 NP5         0.0540
     10 C9         21.7940  -35.0650   -4.0150 C.2       1 NP5         0.1173
     11 C10        22.2030  -33.6060   -4.0360 C.3       1 NP5         0.0247
     12 C11        21.8840  -32.9170   -5.3650 C.3       1 NP5        -0.0304
     13 C12        22.8080  -33.3430   -6.5040 C.3       1 NP5        -0.0343
     14 C13        21.9820  -34.1990   -7.4310 C.2       1 NP5        -0.0984
     15 C14        21.8780  -35.5020   -7.1880 C.2       1 NP5        -0.0962
     16 C15        21.0330  -36.3710   -8.0850 C.3       1 NP5        -0.0086
     17 C16        19.6300  -36.3030   -7.4940 C.3       1 NP5         0.0814
     18 O1         17.4590  -35.6570   -6.1140 O.2       1 NP5        -0.3725
     19 O3         16.7110  -33.0120   -5.5390 O.3       1 NP5        -0.3313
     20 O4         18.5790  -31.4770   -1.4380 O.3       1 NP5        -0.3330
     21 CL1        20.5350  -33.6270   -1.3060 Cl        1 NP5        -0.0932
     22 O5         22.5860  -35.9180   -4.3840 O.2       1 NP5        -0.3883
     23 H1         16.9400  -31.4197   -3.4725 H         1 NP5         0.0425
     24 H2         20.0489  -36.2911   -4.1920 H         1 NP5         0.0663
     25 H3         20.5215  -35.8914   -2.5057 H         1 NP5         0.0663
     26 H4         23.2868  -33.5427   -3.8592 H         1 NP5         0.0497
     27 H5         21.6688  -33.0801   -3.2310 H         1 NP5         0.0497
     28 H6         21.9793  -31.8300   -5.2263 H         1 NP5         0.0310
     29 H7         20.8488  -33.1616   -5.6453 H         1 NP5         0.0310
     30 H8         23.6563  -33.9210   -6.1087 H         1 NP5         0.0390
     31 H9         23.1843  -32.4584   -7.0386 H         1 NP5         0.0390
     32 H10        21.4774  -33.7557   -8.2882 H         1 NP5         0.0450
     33 H11        22.4030  -35.9416   -6.3412 H         1 NP5         0.0451
     34 H12        21.4041  -37.4065   -8.0811 H         1 NP5         0.0414
     35 H13        21.0378  -35.9836   -9.1145 H         1 NP5         0.0414
     36 H14        18.9649  -35.7240   -8.1516 H         1 NP5         0.0631
     37 H15        19.2216  -37.3154   -7.3589 H         1 NP5         0.0631
     38 H16        16.8258  -33.7113   -6.1717 H         1 NP5         0.2508
     39 H17        19.4281  -31.0521   -1.4041 H         1 NP5         0.2502
@<TRIPOS>BOND
     1    1    2 1  
     2    1    3 1  
     3    1   18 2  
     4    2   17 1  
     5    3    4 ar 
     6    3    8 ar 
     7    4    5 ar 
     8    4   19 1  
     9    5    6 ar 
    10    6    7 ar 
    11    6   20 1  
    12    7    8 ar 
    13    7   21 1  
    14    8    9 1  
    15    9   10 1  
    16   10   11 1  
    17   10   22 2  
    18   11   12 1  
    19   12   13 1  
    20   13   14 1  
    21   14   15 2  
    22   15   16 1  
    23   16   17 1  
    24    5   23 1  
    25    9   24 1  
    26    9   25 1  
    27   11   26 1  
    28   11   27 1  
    29   12   28 1  
    30   12   29 1  
    31   13   30 1  
    32   13   31 1  
    33   14   32 1  
    34   15   33 1  
    35   16   34 1  
    36   16   35 1  
    37   17   36 1  
    38   17   37 1  
    39   19   38 1  
    40   20   39 1  
@<TRIPOS>SUBSTRUCTURE
     1 NP5         1

