### 
### Created by X-TOOL on Mon Sep 10 21:12:54 2018
### 

@<TRIPOS>MOLECULE
2iwx_ligand
   45    46     1     0     0
SMALL
GAST_HUCK


@<TRIPOS>ATOM
      1 C1         55.2130   75.9430   -5.7160 C.2       1 M1S         0.2450
      2 C2         55.1850   76.8410   -4.5140 C.ar      1 M1S         0.0836
      3 C3         54.3080   77.9400   -4.5250 C.ar      1 M1S         0.0971
      4 C4         54.2500   78.8390   -3.4690 C.ar      1 M1S        -0.0045
      5 C5         55.1110   78.6130   -2.3920 C.ar      1 M1S         0.0932
      6 C6         55.9470   77.5310   -2.4050 C.ar      1 M1S         0.0655
      7 C7         56.0390   76.6130   -3.4390 C.ar      1 M1S        -0.0054
      8 C8         57.0120   75.4290   -3.3490 C.3       1 M1S         0.0540
      9 C9         58.3680   75.6650   -3.9470 C.2       1 M1S         0.1171
     10 C10        58.8980   77.0470   -4.2040 C.3       1 M1S         0.0232
     11 C11        60.3080   76.9840   -4.8030 C.3       1 M1S        -0.0368
     12 C12        60.8100   78.3620   -5.2040 C.3       1 M1S        -0.0494
     13 C13        59.9570   79.0080   -6.2950 C.3       1 M1S        -0.0463
     14 C14        60.0570   78.2250   -7.6030 C.3       1 M1S        -0.0365
     15 C15        58.7230   77.5900   -7.9270 C.2       1 M1S        -0.0986
     16 C16        58.6180   76.2670   -8.0280 C.2       1 M1S        -0.0962
     17 C17        57.2910   75.6270   -8.3670 C.3       1 M1S        -0.0086
     18 C18        56.6900   74.7670   -7.2600 C.3       1 M1S         0.0814
     19 O2         54.2500   75.6110   -6.3730 O.2       1 M1S        -0.3725
     20 O3         53.4440   78.1320   -5.5890 O.3       1 M1S        -0.3313
     21 O4         55.1350   79.4940   -1.3390 O.3       1 M1S        -0.3330
     22 CL1        56.9420   77.2720   -0.9640 Cl        1 M1S        -0.0932
     23 O5         59.0370   74.6520   -4.1670 O.2       1 M1S        -0.3883
     24 O1         56.5320   75.5970   -6.0790 O.3       1 M1S        -0.2800
     25 H1         53.5663   79.6801   -3.4794 H         1 M1S         0.0425
     26 H2         56.5556   74.5740   -3.8692 H         1 M1S         0.0663
     27 H3         57.1481   75.1813   -2.2859 H         1 M1S         0.0663
     28 H4         58.9333   77.6024   -3.2552 H         1 M1S         0.0495
     29 H5         58.2297   77.5650   -4.9075 H         1 M1S         0.0495
     30 H6         60.2887   76.3385   -5.6935 H         1 M1S         0.0290
     31 H7         60.9941   76.5580   -4.0561 H         1 M1S         0.0290
     32 H8         61.8413   78.2664   -5.5746 H         1 M1S         0.0268
     33 H9         60.7979   79.0125   -4.3170 H         1 M1S         0.0268
     34 H10        60.3076   80.0369   -6.4639 H         1 M1S         0.0285
     35 H11        58.9073   79.0275   -5.9667 H         1 M1S         0.0285
     36 H12        60.8195   77.4389   -7.5000 H         1 M1S         0.0388
     37 H13        60.3425   78.9085   -8.4162 H         1 M1S         0.0388
     38 H14        57.8457   78.2172   -8.0781 H         1 M1S         0.0450
     39 H15        59.4942   75.6411   -7.8653 H         1 M1S         0.0451
     40 H16        57.4349   74.9913   -9.2531 H         1 M1S         0.0414
     41 H17        56.5757   76.4286   -8.6030 H         1 M1S         0.0414
     42 H18        57.3611   73.9246   -7.0365 H         1 M1S         0.0631
     43 H19        55.7103   74.3810   -7.5781 H         1 M1S         0.0631
     44 H20        53.5864   77.4527   -6.2376 H         1 M1S         0.2508
     45 H21        54.4970   80.1818   -1.4884 H         1 M1S         0.2502
@<TRIPOS>BOND
     1    1    2 1  
     2    1   19 2  
     3    1   24 1  
     4    2    3 ar 
     5    2    7 ar 
     6    3    4 ar 
     7    3   20 1  
     8    4    5 ar 
     9    5    6 ar 
    10    5   21 1  
    11    6    7 ar 
    12    6   22 1  
    13    7    8 1  
    14    8    9 1  
    15    9   10 1  
    16    9   23 2  
    17   10   11 1  
    18   11   12 1  
    19   12   13 1  
    20   13   14 1  
    21   14   15 1  
    22   15   16 2  
    23   16   17 1  
    24   17   18 1  
    25   18   24 1  
    26    4   25 1  
    27    8   26 1  
    28    8   27 1  
    29   10   28 1  
    30   10   29 1  
    31   11   30 1  
    32   11   31 1  
    33   12   32 1  
    34   12   33 1  
    35   13   34 1  
    36   13   35 1  
    37   14   36 1  
    38   14   37 1  
    39   15   38 1  
    40   16   39 1  
    41   17   40 1  
    42   17   41 1  
    43   18   42 1  
    44   18   43 1  
    45   20   44 1  
    46   21   45 1  
@<TRIPOS>SUBSTRUCTURE
     1 M1S         1

