### 
### Created by X-TOOL on Mon Sep 10 21:12:56 2018
### 

@<TRIPOS>MOLECULE
2iyf_ligand
  119   121     1     0     0
SMALL
GAST_HUCK


@<TRIPOS>ATOM
      1 C10       -15.3870  -11.7730  -20.6710 C.3       1 ERY         0.0587
      2 C11       -13.9060  -12.1220  -20.4830 C.3       1 ERY         0.1044
      3 C12       -13.2580  -13.1130  -21.4950 C.3       1 ERY         0.1217
      4 C13       -11.7240  -13.0220  -21.4010 C.3       1 ERY         0.1182
      5 O2        -11.3490  -11.8120  -22.0760 O.3       1 ERY        -0.2703
      6 C2        -10.4280   -9.5930  -22.1720 C.3       1 ERY         0.0838
      7 C3        -11.1360   -8.4020  -21.5100 C.3       1 ERY         0.0871
      8 C4        -12.5240   -8.1410  -22.1190 C.3       1 ERY         0.0141
      9 C5        -13.3580   -7.2070  -21.1770 C.3       1 ERY         0.0953
     10 C6        -14.3460   -7.9820  -20.2860 C.3       1 ERY         0.0920
     11 C7        -15.4500   -8.6090  -21.1600 C.3       1 ERY        -0.0033
     12 C8        -16.4620   -9.4210  -20.3300 C.3       1 ERY         0.0327
     13 C9        -15.8760  -10.6790  -19.7350 C.2       1 ERY         0.1131
     14 O11       -15.8430  -10.8620  -18.5140 O.2       1 ERY        -0.3910
     15 C1        -10.6580  -10.8080  -21.3500 C.2       1 ERY         0.2394
     16 O1        -10.3260  -10.9580  -20.1830 O.2       1 ERY        -0.3700
     17 O3        -10.3290   -7.2180  -21.5970 O.3       1 ERY        -0.3449
     18 O7        -14.0770   -6.3260  -21.9990 O.3       1 ERY        -0.3421
     19 C34       -16.3400  -12.9470  -20.4440 C.3       1 ERY        -0.0439
     20 C33       -17.6880   -9.7660  -21.1750 C.3       1 ERY        -0.0463
     21 C35       -13.7420  -12.8480  -22.9160 C.3       1 ERY        -0.0307
     22 O12       -13.7320  -12.5860  -19.1300 O.3       1 ERY        -0.3862
     23 O13       -13.7300  -14.4310  -21.2120 O.3       1 ERY        -0.3832
     24 C36       -10.9850  -14.1510  -22.1240 C.3       1 ERY        -0.0222
     25 C30        -8.8970   -9.5300  -22.3720 C.3       1 ERY        -0.0416
     26 C32       -14.8810   -7.1310  -19.1210 C.3       1 ERY        -0.0335
     27 O10       -13.6330   -9.0610  -19.7130 O.3       1 ERY        -0.3861
     28 C22       -13.7310   -4.9390  -21.8830 C.3       1 ERY         0.1909
     29 C23       -14.3830   -4.1530  -23.0290 C.3       1 ERY         0.1482
     30 C24       -14.1840   -2.6530  -22.8040 C.3       1 ERY         0.0124
     31 C25       -14.6280   -2.2510  -21.3780 C.3       1 ERY         0.0190
     32 C26       -13.9390   -3.1190  -20.3130 C.3       1 ERY         0.0642
     33 O9        -14.1960   -4.4990  -20.6140 O.3       1 ERY        -0.3454
     34 N1        -15.0240   -1.8380  -23.7160 N.4       1 ERY         0.2351
     35 C27       -14.5450   -2.8660  -18.9430 C.3       1 ERY        -0.0384
     36 O8        -13.7450   -4.4850  -24.2670 O.3       1 ERY        -0.3813
     37 C28       -14.5630   -0.4810  -23.9950 C.3       1 ERY        -0.0430
     38 C14        -9.4530   -7.0170  -20.4650 C.3       1 ERY         0.1628
     39 C15        -8.2750   -6.1280  -20.8890 C.3       1 ERY         0.0298
     40 C16        -8.6430   -4.6390  -21.0200 C.3       1 ERY         0.0991
     41 C17        -9.2900   -4.1600  -19.7090 C.3       1 ERY         0.1098
     42 C18       -10.4810   -5.0690  -19.3970 C.3       1 ERY         0.0874
     43 O4        -10.1340   -6.4680  -19.3320 O.3       1 ERY        -0.3456
     44 O5         -9.5980   -4.4240  -22.0710 O.3       1 ERY        -0.3740
     45 O6         -9.7920   -2.8280  -19.9150 O.3       1 ERY        -0.3864
     46 C20        -9.3780   -4.6560  -23.4840 C.3       1 ERY         0.0373
     47 C29       -16.3490   -2.2570  -24.1580 C.3       1 ERY        -0.0430
     48 C21       -11.0930   -4.7510  -18.0260 C.3       1 ERY        -0.0361
     49 C37        -9.5070  -14.1270  -21.7920 C.3       1 ERY        -0.0625
     50 C31       -12.3480   -7.5820  -23.5390 C.3       1 ERY        -0.0574
     51 C19        -7.3980   -3.7730  -21.2890 C.3       1 ERY        -0.0331
     52 H1        -15.5034  -11.4253  -21.7081 H         1 ERY         0.0553
     53 H2        -13.3495  -11.1791  -20.5891 H         1 ERY         0.0652
     54 H3        -11.4206  -12.9991  -20.3439 H         1 ERY         0.0679
     55 H4        -10.8870   -9.7257  -23.1628 H         1 ERY         0.0577
     56 H5        -11.2747   -8.6442  -20.4460 H         1 ERY         0.0630
     57 H6        -13.0584   -9.0993  -22.1971 H         1 ERY         0.0351
     58 H7        -12.6707   -6.6400  -20.5320 H         1 ERY         0.0629
     59 H8        -14.9808   -9.2767  -21.8975 H         1 ERY         0.0321
     60 H9        -15.9868   -7.8040  -21.6833 H         1 ERY         0.0321
     61 H10       -16.7907   -8.7831  -19.4963 H         1 ERY         0.0528
     62 H11       -17.3766  -12.6128  -20.5980 H         1 ERY         0.0258
     63 H12       -16.2239  -13.3200  -19.4157 H         1 ERY         0.0258
     64 H13       -16.1051  -13.7527  -21.1550 H         1 ERY         0.0258
     65 H14       -18.4001  -10.3451  -20.5686 H         1 ERY         0.0257
     66 H15       -17.3774  -10.3628  -22.0453 H         1 ERY         0.0257
     67 H16       -18.1689   -8.8385  -21.5192 H         1 ERY         0.0257
     68 H17       -14.8391  -12.9203  -22.9491 H         1 ERY         0.0259
     69 H18       -13.3048  -13.5928  -23.5972 H         1 ERY         0.0259
     70 H19       -13.4315  -11.8397  -23.2271 H         1 ERY         0.0259
     71 H20       -14.1337  -11.9682  -18.5304 H         1 ERY         0.2101
     72 H21       -13.4696  -14.6773  -20.3322 H         1 ERY         0.2104
     73 H22       -11.1126  -14.0280  -23.2096 H         1 ERY         0.0292
     74 H23       -11.4088  -15.1169  -21.8121 H         1 ERY         0.0292
     75 H24        -8.5520  -10.4557  -22.8558 H         1 ERY         0.0259
     76 H25        -8.4037   -9.4212  -21.3949 H         1 ERY         0.0259
     77 H26        -8.6454   -8.6683  -23.0078 H         1 ERY         0.0259
     78 H27       -14.0361   -6.7210  -18.5482 H         1 ERY         0.0258
     79 H28       -15.5001   -7.7582  -18.4628 H         1 ERY         0.0258
     80 H29       -15.4891   -6.3053  -19.5191 H         1 ERY         0.0258
     81 H30       -12.9373   -8.7223  -19.1619 H         1 ERY         0.2103
     82 H31       -12.6392   -4.8170  -21.9381 H         1 ERY         0.0939
     83 H32       -15.4558   -4.3908  -23.0788 H         1 ERY         0.0702
     84 H33       -13.1220   -2.4090  -22.9542 H         1 ERY         0.0879
     85 H34       -15.7174   -2.3771  -21.2930 H         1 ERY         0.0346
     86 H35       -14.3663   -1.1967  -21.2051 H         1 ERY         0.0346
     87 H36       -12.8584   -2.9137  -20.3005 H         1 ERY         0.0596
     88 H37       -14.5864   -2.2202  -24.5397 H         1 ERY         0.2031
     89 H38       -14.0390   -3.4956  -18.1963 H         1 ERY         0.0255
     90 H39       -15.6167   -3.1127  -18.9649 H         1 ERY         0.0255
     91 H40       -14.4180   -1.8065  -18.6758 H         1 ERY         0.0255
     92 H41       -14.1425   -3.9858  -24.9707 H         1 ERY         0.2103
     93 H42       -15.2690    0.0127  -24.6789 H         1 ERY         0.0778
     94 H43       -13.5676   -0.5205  -24.4615 H         1 ERY         0.0778
     95 H44       -14.5051    0.0872  -23.0549 H         1 ERY         0.0778
     96 H45        -9.0536   -7.9979  -20.1680 H         1 ERY         0.0911
     97 H46        -7.9051   -6.4818  -21.8626 H         1 ERY         0.0343
     98 H47        -7.4781   -6.2244  -20.1369 H         1 ERY         0.0343
     99 H48        -8.5600   -4.1787  -18.8864 H         1 ERY         0.0648
    100 H49       -11.2364   -4.9188  -20.1823 H         1 ERY         0.0621
    101 H50       -10.4037   -2.8302  -20.6418 H         1 ERY         0.2100
    102 H51       -10.2902   -4.4017  -24.0437 H         1 ERY         0.0524
    103 H52        -9.1309   -5.7153  -23.6476 H         1 ERY         0.0524
    104 H53        -8.5460   -4.0271  -23.8337 H         1 ERY         0.0524
    105 H54       -16.5210   -3.3022  -23.8613 H         1 ERY         0.0778
    106 H55       -16.4146   -2.1711  -25.2527 H         1 ERY         0.0778
    107 H56       -17.1109   -1.6139  -23.6934 H         1 ERY         0.0778
    108 H57       -11.9433   -5.4233  -17.8392 H         1 ERY         0.0255
    109 H58       -11.4409   -3.7075  -18.0128 H         1 ERY         0.0255
    110 H59       -10.3335   -4.8943  -17.2433 H         1 ERY         0.0255
    111 H60        -8.9988  -14.9459  -22.3223 H         1 ERY         0.0231
    112 H61        -9.3727  -14.2534  -20.7076 H         1 ERY         0.0231
    113 H62        -9.0764  -13.1645  -22.1052 H         1 ERY         0.0231
    114 H63       -11.7556   -8.2876  -24.1400 H         1 ERY         0.0234
    115 H64       -11.8269   -6.6145  -23.4902 H         1 ERY         0.0234
    116 H65       -13.3354   -7.4437  -24.0036 H         1 ERY         0.0234
    117 H66        -6.9193   -4.0996  -22.2240 H         1 ERY         0.0258
    118 H67        -6.6881   -3.8826  -20.4559 H         1 ERY         0.0258
    119 H68        -7.6974   -2.7184  -21.3794 H         1 ERY         0.0258
@<TRIPOS>BOND
     1    2    1 1  
     2    1   13 1  
     3    1   19 1  
     4    3    2 1  
     5    2   22 1  
     6    4    3 1  
     7    3   21 1  
     8    3   23 1  
     9    5    4 1  
    10    4   24 1  
    11   15    5 1  
    12    6    7 1  
    13    6   15 1  
    14    6   25 1  
    15    7    8 1  
    16    7   17 1  
    17    8    9 1  
    18    8   50 1  
    19    9   10 1  
    20    9   18 1  
    21   10   11 1  
    22   10   26 1  
    23   10   27 1  
    24   11   12 1  
    25   12   13 1  
    26   12   20 1  
    27   13   14 2  
    28   15   16 2  
    29   17   38 1  
    30   18   28 1  
    31   24   49 1  
    32   28   29 1  
    33   28   33 1  
    34   29   30 1  
    35   29   36 1  
    36   30   31 1  
    37   30   34 1  
    38   31   32 1  
    39   32   33 1  
    40   32   35 1  
    41   34   37 1  
    42   34   47 1  
    43   38   39 1  
    44   38   43 1  
    45   39   40 1  
    46   40   41 1  
    47   40   44 1  
    48   40   51 1  
    49   41   42 1  
    50   41   45 1  
    51   42   43 1  
    52   42   48 1  
    53   44   46 1  
    54    1   52 1  
    55    2   53 1  
    56    4   54 1  
    57    6   55 1  
    58    7   56 1  
    59    8   57 1  
    60    9   58 1  
    61   11   59 1  
    62   11   60 1  
    63   12   61 1  
    64   19   62 1  
    65   19   63 1  
    66   19   64 1  
    67   20   65 1  
    68   20   66 1  
    69   20   67 1  
    70   21   68 1  
    71   21   69 1  
    72   21   70 1  
    73   22   71 1  
    74   23   72 1  
    75   24   73 1  
    76   24   74 1  
    77   25   75 1  
    78   25   76 1  
    79   25   77 1  
    80   26   78 1  
    81   26   79 1  
    82   26   80 1  
    83   27   81 1  
    84   28   82 1  
    85   29   83 1  
    86   30   84 1  
    87   31   85 1  
    88   31   86 1  
    89   32   87 1  
    90   34   88 1  
    91   35   89 1  
    92   35   90 1  
    93   35   91 1  
    94   36   92 1  
    95   37   93 1  
    96   37   94 1  
    97   37   95 1  
    98   38   96 1  
    99   39   97 1  
   100   39   98 1  
   101   41   99 1  
   102   42  100 1  
   103   45  101 1  
   104   46  102 1  
   105   46  103 1  
   106   46  104 1  
   107   47  105 1  
   108   47  106 1  
   109   47  107 1  
   110   48  108 1  
   111   48  109 1  
   112   48  110 1  
   113   49  111 1  
   114   49  112 1  
   115   49  113 1  
   116   50  114 1  
   117   50  115 1  
   118   50  116 1  
   119   51  117 1  
   120   51  118 1  
   121   51  119 1  
@<TRIPOS>SUBSTRUCTURE
     1 ERY         1

