### 
### Created by X-TOOL on Mon Sep 10 21:12:46 2018
### 

@<TRIPOS>MOLECULE
2izl_ligand
   33    34     1     0     0
SMALL
GAST_HUCK


@<TRIPOS>ATOM
      1 C11        29.2980   14.3270   -9.8890 C.2       1 IMI         0.0348
      2 O11        28.0900   14.1070   -9.8120 O.co2     1 IMI        -0.5690
      3 O12        30.0100   13.9020  -10.7890 O.co2     1 IMI        -0.5690
      4 C10        29.9750   15.2140   -8.8110 C.3       1 IMI         0.0002
      5 C9         31.4330   14.8050   -8.4620 C.3       1 IMI        -0.0414
      6 C8         31.4760   13.4260   -7.7710 C.3       1 IMI        -0.0504
      7 C7         32.8560   13.2180   -7.1340 C.3       1 IMI        -0.0374
      8 C2         32.8280   11.9210   -6.2780 C.3       1 IMI         0.0448
      9 S1         32.0850   12.0150   -4.6360 S.3       1 IMI        -0.1496
     10 C6         32.8850   10.4480   -4.1980 C.3       1 IMI         0.0337
     11 C5         34.2070   10.2490   -4.9770 C.3       1 IMI         0.1191
     12 N1         35.3210   10.7870   -4.1460 N.pl3     1 IMI        -0.2652
     13 C3         35.8070   11.8830   -4.6390 C.cat     1 IMI         0.2910
     14 N3         36.7610   12.5430   -4.0600 N.pl3     1 IMI        -0.2847
     15 N2         35.2340   12.2360   -5.7600 N.pl3     1 IMI        -0.2649
     16 C4         34.2240   11.2500   -6.2010 C.3       1 IMI         0.1216
     17 H1         29.3731   15.1574   -7.8920 H         1 IMI         0.0430
     18 H2         29.9876   16.2510   -9.1778 H         1 IMI         0.0430
     19 H3         31.8650   15.5582   -7.7867 H         1 IMI         0.0283
     20 H4         32.0246   14.7606   -9.3883 H         1 IMI         0.0283
     21 H5         31.2926   12.6368   -8.5150 H         1 IMI         0.0267
     22 H6         30.7015   13.3820   -6.9912 H         1 IMI         0.0267
     23 H7         33.0996   14.0779   -6.4927 H         1 IMI         0.0277
     24 H8         33.6160   13.1224   -7.9235 H         1 IMI         0.0277
     25 H9         32.1860   11.2281   -6.8416 H         1 IMI         0.0451
     26 H10        32.2019    9.6192   -4.4357 H         1 IMI         0.0415
     27 H11        33.1020   10.4466   -3.1196 H         1 IMI         0.0415
     28 H12        34.3531    9.1997   -5.2731 H         1 IMI         0.0773
     29 H13        35.6638   10.3413   -3.2830 H         1 IMI         0.2646
     30 H14        37.1190   13.4102   -4.4852 H         1 IMI         0.2615
     31 H15        37.1609   12.2002   -3.1749 H         1 IMI         0.2615
     32 H16        35.4595   13.0990   -6.2751 H         1 IMI         0.2646
     33 H17        34.4908   10.7662   -7.1522 H         1 IMI         0.0776
@<TRIPOS>BOND
     1    1    4 1  
     2    1    3 ar 
     3    1    2 ar 
     4    4    5 1  
     5    5    6 1  
     6    6    7 1  
     7    7    8 1  
     8    8   16 1  
     9    8    9 1  
    10    9   10 1  
    11   10   11 1  
    12   11   16 1  
    13   11   12 1  
    14   12   13 ar 
    15   13   15 ar 
    16   13   14 ar 
    17   15   16 1  
    18    4   17 1  
    19    4   18 1  
    20    5   19 1  
    21    5   20 1  
    22    6   21 1  
    23    6   22 1  
    24    7   23 1  
    25    7   24 1  
    26    8   25 1  
    27   10   26 1  
    28   10   27 1  
    29   11   28 1  
    30   12   29 1  
    31   14   30 1  
    32   14   31 1  
    33   15   32 1  
    34   16   33 1  
@<TRIPOS>SUBSTRUCTURE
     1 IMI         1

