### 
### Created by X-TOOL on Mon Sep 10 21:12:53 2018
### 

@<TRIPOS>MOLECULE
2izx_ligand
   16    16     1     0     0
SMALL
GAST_HUCK


@<TRIPOS>ATOM
      1 S1         -6.7210   -6.6790  -17.3060 S.3       1 DTD        -0.0904
      2 C1         -6.7160   -7.9020  -18.6420 C.3       1 DTD         0.0324
      3 C2         -8.0810   -7.9170  -19.3400 C.3       1 DTD         0.0915
      4 O2         -8.1250   -8.9890  -20.2500 O.3       1 DTD        -0.3884
      5 C3         -8.2650   -6.6830  -20.2160 C.3       1 DTD         0.0915
      6 O3         -9.4150   -6.8090  -21.0280 O.3       1 DTD        -0.3884
      7 C4         -8.3980   -5.3790  -19.4420 C.3       1 DTD         0.0324
      8 S4         -6.7940   -4.9860  -18.6360 S.3       1 DTD        -0.0904
      9 H1         -6.5091   -8.8982  -18.2240 H         1 DTD         0.0411
     10 H2         -5.9357   -7.6415  -19.3722 H         1 DTD         0.0411
     11 H3         -8.8841   -7.9925  -18.5921 H         1 DTD         0.0628
     12 H4         -8.9701   -9.0002  -20.6838 H         1 DTD         0.2099
     13 H5         -7.3802   -6.6058  -20.8650 H         1 DTD         0.0628
     14 H6         -9.3241   -7.5712  -21.5878 H         1 DTD         0.2099
     15 H7         -9.1788   -5.4851  -18.6745 H         1 DTD         0.0411
     16 H8         -8.6707   -4.5676  -20.1328 H         1 DTD         0.0411
@<TRIPOS>BOND
     1    1    2 1  
     2    1    8 1  
     3    2    3 1  
     4    3    4 1  
     5    3    5 1  
     6    5    6 1  
     7    5    7 1  
     8    7    8 1  
     9    2    9 1  
    10    2   10 1  
    11    3   11 1  
    12    4   12 1  
    13    5   13 1  
    14    6   14 1  
    15    7   15 1  
    16    7   16 1  
@<TRIPOS>SUBSTRUCTURE
     1 DTD         1

