### 
### Created by X-TOOL on Mon Sep 10 21:12:55 2018
### 

@<TRIPOS>MOLECULE
2j2i_ligand
   64    69     1     0     0
SMALL
GAST_HUCK


@<TRIPOS>ATOM
      1 CBD        39.4820   -1.7760   -2.1850 C.3       1 LY4         0.0055
      2 CBB        39.8820   -0.5500   -1.3140 C.3       1 LY4         0.0564
      3 NAW        40.2160   -1.0350    0.0250 N.pl3     1 LY4        -0.2592
      4 CAV        41.4520   -0.8920    0.4710 C.2       1 LY4         0.0421
      5 CAX        39.4810   -1.6790    0.9410 C.ar      1 LY4         0.0710
      6 CAY        38.1440   -2.0850    0.9720 C.ar      1 LY4        -0.0411
      7 CAZ        37.6190   -2.7500    2.0880 C.ar      1 LY4        -0.0750
      8 CAP        38.4470   -3.0050    3.1720 C.ar      1 LY4        -0.0775
      9 CAO        39.7830   -2.6070    3.1360 C.ar      1 LY4        -0.0722
     10 CAN        40.3040   -1.9490    2.0160 C.ar      1 LY4        -0.0132
     11 CAM        41.5540   -1.4300    1.6900 C.2       1 LY4        -0.0050
     12 CAH        42.7680   -1.4370    2.3840 C.2       1 LY4         0.0442
     13 CAE        43.0160   -1.4260    3.7620 C.2       1 LY4         0.2236
     14 OAF        42.1820   -1.3600    4.6650 O.2       1 LY4        -0.3720
     15 NAD        44.3000   -1.4830    4.0100 N.am      1 LY4        -0.2037
     16 CAC        44.9270   -1.5300    2.8610 C.2       1 LY4         0.2236
     17 OAB        46.1480   -1.5960    2.8010 O.2       1 LY4        -0.3720
     18 CAG        44.0380   -1.5220    1.7820 C.2       1 LY4         0.0442
     19 CAL        44.3450   -1.6070    0.4060 C.2       1 LY4        -0.0050
     20 CAU        43.6980   -2.4510   -0.4230 C.2       1 LY4         0.0422
     21 CAK        45.3420   -1.0090   -0.3660 C.ar      1 LY4        -0.0132
     22 CAJ        46.3380   -0.0810   -0.0800 C.ar      1 LY4        -0.0722
     23 CAI        47.1950    0.3710   -1.0810 C.ar      1 LY4        -0.0775
     24 CAQ        47.0720   -0.1240   -2.3750 C.ar      1 LY4        -0.0750
     25 CAR        46.0880   -1.0600   -2.6600 C.ar      1 LY4        -0.0411
     26 CAS        45.2170   -1.5040   -1.6590 C.ar      1 LY4         0.0711
     27 NAT        44.2090   -2.3790   -1.6710 N.pl3     1 LY4        -0.2571
     28 CBA        43.6440   -3.2130   -2.7510 C.3       1 LY4         0.0772
     29 CBC        42.8350   -2.4430   -3.7930 C.3       1 LY4         0.0751
     30 OBE        41.6180   -1.7990   -3.3130 O.3       1 LY4        -0.3685
     31 CBF        40.6500   -2.6440   -2.7140 C.3       1 LY4         0.1009
     32 CBG        40.1710   -3.7160   -3.7590 C.3       1 LY4        -0.0054
     33 NBH        38.7390   -4.0420   -3.5440 N.4       1 LY4         0.2327
     34 CBI        38.5660   -4.9020   -2.3450 C.3       1 LY4        -0.0433
     35 CBJ        38.1140   -4.6790   -4.7250 C.3       1 LY4        -0.0433
     36 H1         38.9203   -1.4025   -3.0538 H         1 LY4         0.0319
     37 H2         38.8311   -2.4221   -1.5777 H         1 LY4         0.0319
     38 H3         39.0410    0.1566   -1.2558 H         1 LY4         0.0608
     39 H4         40.7541   -0.0465   -1.7566 H         1 LY4         0.0608
     40 H5         42.2633   -0.4095   -0.0720 H         1 LY4         0.1003
     41 H6         37.5042   -1.8826    0.1207 H         1 LY4         0.0550
     42 H7         36.5807   -3.0609    2.1044 H         1 LY4         0.0540
     43 H8         38.0556   -3.5131    4.0459 H         1 LY4         0.0519
     44 H9         40.4254   -2.8096    3.9853 H         1 LY4         0.0549
     45 H10        44.7260   -1.4895    4.9147 H         1 LY4         0.2196
     46 H11        42.8763   -3.1014   -0.1268 H         1 LY4         0.1003
     47 H12        46.4483    0.2939    0.9311 H         1 LY4         0.0549
     48 H13        47.9567    1.1075   -0.8517 H         1 LY4         0.0519
     49 H14        47.7407    0.2193   -3.1561 H         1 LY4         0.0540
     50 H15        45.9933   -1.4505   -3.6668 H         1 LY4         0.0550
     51 H16        42.9856   -3.9663   -2.2938 H         1 LY4         0.0630
     52 H17        44.4753   -3.7167   -3.2660 H         1 LY4         0.0630
     53 H18        42.5507   -3.1494   -4.5868 H         1 LY4         0.0587
     54 H19        43.4853   -1.6616   -4.2131 H         1 LY4         0.0587
     55 H20        41.1083   -3.1690   -1.8630 H         1 LY4         0.0650
     56 H21        40.7724   -4.6297   -3.6430 H         1 LY4         0.0840
     57 H22        40.3034   -3.3164   -4.7753 H         1 LY4         0.0840
     58 H23        38.2545   -3.1744   -3.3752 H         1 LY4         0.2029
     59 H24        37.4985   -5.1290   -2.2076 H         1 LY4         0.0777
     60 H25        38.9459   -4.3746   -1.4576 H         1 LY4         0.0777
     61 H26        39.1254   -5.8391   -2.4821 H         1 LY4         0.0777
     62 H27        38.2492   -4.0326   -5.6047 H         1 LY4         0.0777
     63 H28        37.0397   -4.8238   -4.5380 H         1 LY4         0.0777
     64 H29        38.5887   -5.6539   -4.9100 H         1 LY4         0.0777
@<TRIPOS>BOND
     1    1    2 1  
     2    1   31 1  
     3    2    3 1  
     4    3    4 1  
     5    3    5 1  
     6    4   11 2  
     7    5    6 ar 
     8    5   10 ar 
     9    6    7 ar 
    10    7    8 ar 
    11    8    9 ar 
    12    9   10 ar 
    13   10   11 1  
    14   11   12 1  
    15   12   13 1  
    16   12   18 2  
    17   13   14 2  
    18   13   15 am 
    19   15   16 am 
    20   16   17 2  
    21   16   18 1  
    22   18   19 1  
    23   19   20 2  
    24   19   21 1  
    25   20   27 1  
    26   21   22 ar 
    27   21   26 ar 
    28   22   23 ar 
    29   23   24 ar 
    30   24   25 ar 
    31   25   26 ar 
    32   26   27 1  
    33   27   28 1  
    34   28   29 1  
    35   29   30 1  
    36   30   31 1  
    37   31   32 1  
    38   32   33 1  
    39   33   34 1  
    40   33   35 1  
    41    1   36 1  
    42    1   37 1  
    43    2   38 1  
    44    2   39 1  
    45    4   40 1  
    46    6   41 1  
    47    7   42 1  
    48    8   43 1  
    49    9   44 1  
    50   15   45 1  
    51   20   46 1  
    52   22   47 1  
    53   23   48 1  
    54   24   49 1  
    55   25   50 1  
    56   28   51 1  
    57   28   52 1  
    58   29   53 1  
    59   29   54 1  
    60   31   55 1  
    61   32   56 1  
    62   32   57 1  
    63   33   58 1  
    64   34   59 1  
    65   34   60 1  
    66   34   61 1  
    67   35   62 1  
    68   35   63 1  
    69   35   64 1  
@<TRIPOS>SUBSTRUCTURE
     1 LY4         1

