### 
### Created by X-TOOL on Mon Sep 10 21:12:54 2018
### 

@<TRIPOS>MOLECULE
2j2u_ligand
   53    56     1     0     0
SMALL
GAST_HUCK


@<TRIPOS>ATOM
      1 CL         13.9850    7.5280   26.1870 Cl        1 GSQ        -0.0819
      2 C13        12.2480    7.6990   26.1510 C.ar      1 GSQ         0.0226
      3 C14        11.4930    7.1820   27.2330 C.ar      1 GSQ        -0.0625
      4 C11        10.0900    7.2970   27.1870 C.ar      1 GSQ        -0.0426
      5 C6          9.4790    7.9410   26.0830 C.ar      1 GSQ         0.0653
      6 N1          8.1520    8.1990   25.7840 N.pl3     1 GSQ        -0.2572
      7 C5         10.2540    8.4820   24.9880 C.ar      1 GSQ        -0.0252
      8 C10        11.6420    8.3570   25.0530 C.ar      1 GSQ        -0.0612
      9 C2          9.3720    9.0700   24.0370 C.2       1 GSQ        -0.0360
     10 C1          8.1090    8.8410   24.5920 C.2       1 GSQ         0.1943
     11 S4          6.5310    9.2820   24.0070 S.o2      1 GSQ         0.0937
     12 O8          5.6650    9.1730   25.1390 O.2       1 GSQ        -0.1472
     13 O9          6.6080   10.5090   23.2790 O.2       1 GSQ        -0.1472
     14 N7          6.0030    8.2680   22.8500 N.am      1 GSQ        -0.2228
     15 C12         6.1900    6.8190   22.8420 C.3       1 GSQ         0.1286
     16 C15         7.0710    6.2480   21.7330 C.2       1 GSQ         0.2026
     17 O19         8.1360    6.7260   21.3350 O.2       1 GSQ        -0.3946
     18 C16         4.8490    6.0750   22.7180 C.3       1 GSQ         0.0047
     19 C20         5.0510    5.0650   21.5780 C.3       1 GSQ         0.0405
     20 N18         6.4880    5.1170   21.2860 N.am      1 GSQ        -0.2502
     21 C21         7.2540    4.0430   20.6140 C.3       1 GSQ         0.1310
     22 C23         6.9970    2.7010   21.3190 C.3       1 GSQ        -0.0242
     23 C22         7.0000    3.8700   19.1120 C.2       1 GSQ         0.2042
     24 O25         5.8610    4.0100   18.6740 O.2       1 GSQ        -0.3943
     25 N24         8.0520    3.5530   18.2950 N.am      1 GSQ        -0.2669
     26 C26         9.2600    2.7890   18.6630 C.3       1 GSQ         0.0574
     27 C28         9.6150    1.6910   17.6480 C.3       1 GSQ         0.0681
     28 O30         9.6060    2.2560   16.3370 O.3       1 GSQ        -0.3758
     29 C29         8.3310    2.7880   15.9710 C.3       1 GSQ         0.0681
     30 C27         8.0200    3.9780   16.8890 C.3       1 GSQ         0.0574
     31 H1         11.9836    6.7092   28.0761 H         1 GSQ         0.0536
     32 H2          9.4824    6.8958   27.9901 H         1 GSQ         0.0545
     33 H3          7.3402    7.9471   26.3657 H         1 GSQ         0.2288
     34 H4         12.2588    8.7649   24.2604 H         1 GSQ         0.0543
     35 H5          9.6205    9.5750   23.1047 H         1 GSQ         0.0306
     36 H6          5.5088    8.6702   22.0793 H         1 GSQ         0.1707
     37 H7          6.6522    6.5576   23.8054 H         1 GSQ         0.0754
     38 H8          4.0396    6.7778   22.4714 H         1 GSQ         0.0328
     39 H9          4.6090    5.5540   23.6566 H         1 GSQ         0.0328
     40 H10         4.4646    5.3553   20.6938 H         1 GSQ         0.0526
     41 H11         4.7563    4.0546   21.8979 H         1 GSQ         0.0526
     42 H12         8.3187    4.2934   20.7311 H         1 GSQ         0.0799
     43 H13         7.5684    1.9071   20.8157 H         1 GSQ         0.0277
     44 H14         5.9237    2.4638   21.2760 H         1 GSQ         0.0277
     45 H15         7.3151    2.7719   22.3696 H         1 GSQ         0.0277
     46 H16         9.0908    2.3180   19.6425 H         1 GSQ         0.0545
     47 H17        10.1072    3.4871   18.7333 H         1 GSQ         0.0545
     48 H18         8.8740    0.8802   17.7062 H         1 GSQ         0.0580
     49 H19        10.6149    1.2906   17.8711 H         1 GSQ         0.0580
     50 H20         7.5578    2.0148   16.0906 H         1 GSQ         0.0580
     51 H21         8.3553    3.1234   14.9237 H         1 GSQ         0.0580
     52 H22         8.7708    4.7660   16.7299 H         1 GSQ         0.0545
     53 H23         7.0205    4.3702   16.6501 H         1 GSQ         0.0545
@<TRIPOS>BOND
     1    1    2 1  
     2    2    3 ar 
     3    2    8 ar 
     4    3    4 ar 
     5    4    5 ar 
     6    5    6 1  
     7    5    7 ar 
     8    6   10 1  
     9    7    8 ar 
    10    7    9 1  
    11    9   10 2  
    12   10   11 1  
    13   11   12 2  
    14   11   13 2  
    15   11   14 am 
    16   14   15 1  
    17   15   16 1  
    18   15   18 1  
    19   16   17 2  
    20   16   20 am 
    21   18   19 1  
    22   19   20 1  
    23   20   21 1  
    24   21   22 1  
    25   21   23 1  
    26   23   24 2  
    27   23   25 am 
    28   25   26 1  
    29   25   30 1  
    30   26   27 1  
    31   27   28 1  
    32   28   29 1  
    33   29   30 1  
    34    3   31 1  
    35    4   32 1  
    36    6   33 1  
    37    8   34 1  
    38    9   35 1  
    39   14   36 1  
    40   15   37 1  
    41   18   38 1  
    42   18   39 1  
    43   19   40 1  
    44   19   41 1  
    45   21   42 1  
    46   22   43 1  
    47   22   44 1  
    48   22   45 1  
    49   26   46 1  
    50   26   47 1  
    51   27   48 1  
    52   27   49 1  
    53   29   50 1  
    54   29   51 1  
    55   30   52 1  
    56   30   53 1  
@<TRIPOS>SUBSTRUCTURE
     1 GSQ         1

