### 
### Created by X-TOOL on Mon Sep 10 21:12:54 2018
### 

@<TRIPOS>MOLECULE
2j34_ligand
   52    55     1     0     0
SMALL
GAST_HUCK


@<TRIPOS>ATOM
      1 CL         13.7680    7.3080   26.6650 Cl        1 GS6        -0.0759
      2 C1         12.0620    7.5350   26.3870 C.ar      1 GS6         0.0315
      3 C2         11.6350    8.1390   25.1910 C.ar      1 GS6        -0.0360
      4 C3         10.2390    8.3210   24.9260 C.ar      1 GS6         0.0401
      5 C4          9.3090    7.8670   25.8950 C.ar      1 GS6        -0.0233
      6 C5          7.9530    8.1060   25.5240 C.2       1 GS6        -0.0334
      7 C9          9.7370    7.2670   27.1030 C.ar      1 GS6        -0.0661
      8 C10        11.1190    7.0970   27.3590 C.ar      1 GS6        -0.0579
      9 C6          7.9630    8.7240   24.2400 C.2       1 GS6         0.1663
     10 S1          6.4580    9.1250   23.4830 S.o2      1 GS6         0.0830
     11 O2          5.4740    9.1170   24.5050 O.2       1 GS6        -0.1483
     12 O1          6.5920   10.3140   22.6940 O.2       1 GS6        -0.1483
     13 N1          6.0530    8.0100   22.3610 N.am      1 GS6        -0.2238
     14 C12         6.1290    6.5490   22.5640 C.3       1 GS6         0.1286
     15 C13         4.7840    5.8390   22.3370 C.3       1 GS6         0.0047
     16 C14         5.1260    4.5170   21.6280 C.3       1 GS6         0.0405
     17 C15         7.1340    5.7510   21.7220 C.2       1 GS6         0.2026
     18 O3          8.2730    6.1080   21.4510 O.2       1 GS6        -0.3946
     19 N2          6.5620    4.5870   21.3350 N.am      1 GS6        -0.2502
     20 C16         7.3350    3.4890   20.6800 C.3       1 GS6         0.1310
     21 C17         7.0070    2.0910   21.2540 C.3       1 GS6        -0.0242
     22 C18         7.1130    3.4600   19.1730 C.2       1 GS6         0.2042
     23 O4          6.1400    4.0560   18.7300 O.2       1 GS6        -0.3943
     24 N3          8.0040    2.7860   18.3790 N.am      1 GS6        -0.2669
     25 C19         7.7220    2.7270   16.9360 C.3       1 GS6         0.0574
     26 C20         8.9900    2.7460   16.0710 C.3       1 GS6         0.0681
     27 O5          9.9140    1.7640   16.5410 O.3       1 GS6        -0.3758
     28 C22        10.3830    2.0710   17.8490 C.3       1 GS6         0.0681
     29 C23         9.2290    2.0910   18.8520 C.3       1 GS6         0.0574
     30 S2          9.5280    9.0060   23.5500 S.3       1 GS6        -0.0090
     31 H1         12.3679    8.4695   24.4639 H         1 GS6         0.0575
     32 H2          7.0711    7.8610   26.1140 H         1 GS6         0.0443
     33 H3          9.0063    6.9374   27.8327 H         1 GS6         0.0570
     34 H4         11.4544    6.6395   28.2827 H         1 GS6         0.0562
     35 H5          5.7307    8.3396   21.4736 H         1 GS6         0.1707
     36 H6          6.4130    6.4141   23.6181 H         1 GS6         0.0754
     37 H7          4.1272    6.4545   21.7048 H         1 GS6         0.0328
     38 H8          4.2875    5.6413   23.2984 H         1 GS6         0.0328
     39 H9          4.5484    4.4199   20.6969 H         1 GS6         0.0526
     40 H10         4.9093    3.6617   22.2848 H         1 GS6         0.0526
     41 H11         8.4012    3.6871   20.8642 H         1 GS6         0.0799
     42 H12         7.6062    1.3305   20.7319 H         1 GS6         0.0277
     43 H13         5.9376    1.8773   21.1104 H         1 GS6         0.0277
     44 H14         7.2440    2.0707   22.3280 H         1 GS6         0.0277
     45 H15         7.1011    3.5937   16.6653 H         1 GS6         0.0545
     46 H16         7.1690    1.7997   16.7254 H         1 GS6         0.0545
     47 H17         9.4553    3.7411   16.1277 H         1 GS6         0.0580
     48 H18         8.7227    2.5251   15.0271 H         1 GS6         0.0580
     49 H19        10.8657    3.0593   17.8358 H         1 GS6         0.0580
     50 H20        11.1147    1.3097   18.1571 H         1 GS6         0.0580
     51 H21         8.9625    1.0501   19.0876 H         1 GS6         0.0545
     52 H22         9.5779    2.5958   19.7649 H         1 GS6         0.0545
@<TRIPOS>BOND
     1    1    2 1  
     2    2    3 ar 
     3    2    8 ar 
     4    3    4 ar 
     5    4    5 ar 
     6    4   30 1  
     7    5    6 1  
     8    5    7 ar 
     9    6    9 2  
    10    7    8 ar 
    11    9   10 1  
    12    9   30 1  
    13   10   11 2  
    14   10   12 2  
    15   10   13 am 
    16   13   14 1  
    17   14   15 1  
    18   14   17 1  
    19   15   16 1  
    20   16   19 1  
    21   17   18 2  
    22   17   19 am 
    23   19   20 1  
    24   20   21 1  
    25   20   22 1  
    26   22   23 2  
    27   22   24 am 
    28   24   25 1  
    29   24   29 1  
    30   25   26 1  
    31   26   27 1  
    32   27   28 1  
    33   28   29 1  
    34    3   31 1  
    35    6   32 1  
    36    7   33 1  
    37    8   34 1  
    38   13   35 1  
    39   14   36 1  
    40   15   37 1  
    41   15   38 1  
    42   16   39 1  
    43   16   40 1  
    44   20   41 1  
    45   21   42 1  
    46   21   43 1  
    47   21   44 1  
    48   25   45 1  
    49   25   46 1  
    50   26   47 1  
    51   26   48 1  
    52   28   49 1  
    53   28   50 1  
    54   29   51 1  
    55   29   52 1  
@<TRIPOS>SUBSTRUCTURE
     1 GS6         1

