### 
### Created by X-TOOL on Mon Sep 10 21:12:55 2018
### 

@<TRIPOS>MOLECULE
2j3q_ligand
   38    40     1     0     0
SMALL
GAST_HUCK


@<TRIPOS>ATOM
      1 C2        -23.6730  110.3450   39.8380 C.ar      1 TFL         0.0329
      2 C3        -22.8280  110.8850   38.7660 C.ar      1 TFL        -0.0505
      3 C4        -21.5980  111.6120   39.0710 C.ar      1 TFL        -0.0686
      4 C5        -21.1930  111.8150   40.4530 C.ar      1 TFL        -0.0199
      5 C6        -22.0560  111.2870   41.4870 C.ar      1 TFL        -0.0686
      6 C7        -23.2560  110.5770   41.1920 C.ar      1 TFL        -0.0505
      7 C8        -19.8790  112.5630   40.8620 C.3       1 TFL         0.1196
      8 N1        -19.2620  112.8740   42.0950 N.pl3     1 TFL        -0.2975
      9 C9        -18.0390  113.5590   41.9960 C.ar      1 TFL         0.0448
     10 S1        -18.9000  113.1310   39.5010 S.3       1 TFL        -0.0735
     11 C10       -17.6880  113.7710   40.5450 C.ar      1 TFL         0.0295
     12 C11       -16.4800  114.4360   40.1540 C.ar      1 TFL        -0.0322
     13 C12       -15.5800  114.8900   41.1870 C.ar      1 TFL         0.0683
     14 C13       -15.9030  114.6890   42.5750 C.ar      1 TFL        -0.0517
     15 C14       -17.1020  114.0360   42.9650 C.ar      1 TFL        -0.0579
     16 O3        -14.2830  115.5930   40.8380 O.3       1 TFL        -0.3433
     17 N2        -24.9090  109.5780   39.5790 N.pl3     1 TFL        -0.3186
     18 C15       -25.3910  109.2780   38.2090 C.3       1 TFL         0.0138
     19 C16       -25.7230  109.0460   40.7000 C.3       1 TFL         0.0138
     20 C17       -19.8520  112.5270   43.4220 C.3       1 TFL         0.0151
     21 H1        -23.1211  110.7422   37.7322 H         1 TFL         0.0499
     22 H2        -20.9858  112.0010   38.2654 H         1 TFL         0.0526
     23 H3        -21.7798  111.4369   42.5244 H         1 TFL         0.0526
     24 H4        -23.8664  110.2045   42.0067 H         1 TFL         0.0499
     25 H5        -20.4574  113.4964   40.9271 H         1 TFL         0.0822
     26 H6        -16.2478  114.5942   39.1071 H         1 TFL         0.0456
     27 H7        -15.2180  115.0428   43.3370 H         1 TFL         0.0453
     28 H8        -17.3114  113.8962   44.0194 H         1 TFL         0.0469
     29 H9        -14.2021  115.6553   39.8935 H         1 TFL         0.2437
     30 H10       -26.3244  108.6989   38.2673 H         1 TFL         0.0475
     31 H11       -24.6296  108.6930   37.6723 H         1 TFL         0.0475
     32 H12       -25.5766  110.2194   37.6712 H         1 TFL         0.0475
     33 H13       -25.2630  109.3349   41.6565 H         1 TFL         0.0475
     34 H14       -25.7687  107.9491   40.6317 H         1 TFL         0.0475
     35 H15       -26.7406  109.4597   40.6428 H         1 TFL         0.0475
     36 H16       -19.1830  112.8748   44.2229 H         1 TFL         0.0472
     37 H17       -19.9749  111.4363   43.4948 H         1 TFL         0.0472
     38 H18       -20.8327  113.0143   43.5260 H         1 TFL         0.0472
@<TRIPOS>BOND
     1    1    2 ar 
     2    1    6 ar 
     3    1   17 1  
     4    2    3 ar 
     5    3    4 ar 
     6    4    5 ar 
     7    4    7 1  
     8    5    6 ar 
     9    7    8 1  
    10    7   10 1  
    11    8    9 1  
    12    8   20 1  
    13    9   11 ar 
    14    9   15 ar 
    15   10   11 1  
    16   11   12 ar 
    17   12   13 ar 
    18   13   14 ar 
    19   13   16 1  
    20   14   15 ar 
    21   17   18 1  
    22   17   19 1  
    23    2   21 1  
    24    3   22 1  
    25    5   23 1  
    26    6   24 1  
    27    7   25 1  
    28   12   26 1  
    29   14   27 1  
    30   15   28 1  
    31   16   29 1  
    32   18   30 1  
    33   18   31 1  
    34   18   32 1  
    35   19   33 1  
    36   19   34 1  
    37   19   35 1  
    38   20   36 1  
    39   20   37 1  
    40   20   38 1  
@<TRIPOS>SUBSTRUCTURE
     1 TFL         1

