### 
### Created by X-TOOL on Mon Sep 10 21:12:54 2018
### 

@<TRIPOS>MOLECULE
2j47_ligand
   46    48     1     0     0
SMALL
GAST_HUCK


@<TRIPOS>ATOM
      1 O1          3.0100   -6.4480   34.3000 O.2       1 GDV        -0.3972
      2 C10         3.2140   -7.6070   34.6270 C.2       1 GDV         0.1755
      3 C12         4.0590   -7.9390   35.8400 C.3       1 GDV         0.0258
      4 N4          2.7230   -8.7070   34.0160 N.am      1 GDV        -0.2639
      5 C2          1.8830   -8.6750   32.8270 C.3       1 GDV         0.1467
      6 C3          2.7340   -8.3220   31.5950 C.3       1 GDV         0.1226
      7 O3          3.1570   -9.5410   30.9620 O.3       1 GDV        -0.3842
      8 C4          1.9610   -7.3370   30.6650 C.3       1 GDV         0.1185
      9 O4          2.7910   -7.0590   29.5500 O.3       1 GDV        -0.3857
     10 C5          1.6360   -6.0050   31.4510 C.3       1 GDV         0.1225
     11 C6          1.0760   -4.9320   30.4980 C.3       1 GDV         0.0777
     12 O5         -0.0400   -5.3970   29.7370 O.3       1 GDV        -0.3918
     13 C1          0.6770   -7.7480   32.9170 C.2       1 GDV         0.1486
     14 N1          0.6290   -6.5290   32.3460 N.pl3     1 GDV        -0.2302
     15 C7         -0.6280   -6.0480   32.6320 C.2       1 GDV         0.0572
     16 C8         -1.2640   -6.9870   33.4310 C.2       1 GDV         0.0839
     17 N2         -0.4310   -8.0320   33.6020 N.2       1 GDV        -0.3166
     18 C9         -2.5440   -6.9170   33.9830 C.2       1 GDV         0.2159
     19 O2         -3.2380   -5.9440   33.7790 O.2       1 GDV        -0.3869
     20 N3         -2.9620   -8.0020   34.6850 N.am      1 GDV        -0.2373
     21 C11        -4.2070   -8.1070   35.3040 C.ar      1 GDV         0.0653
     22 C17        -4.9020   -9.3190   35.4250 C.ar      1 GDV        -0.0413
     23 C16        -6.1220   -9.4030   36.1220 C.ar      1 GDV        -0.0755
     24 C15        -6.6610   -8.2640   36.7180 C.ar      1 GDV        -0.0772
     25 C14        -5.9870   -7.0530   36.6100 C.ar      1 GDV        -0.0755
     26 C13        -4.7570   -6.9750   35.9210 C.ar      1 GDV        -0.0413
     27 H1          4.1177   -9.0311   35.9581 H         1 GDV         0.0467
     28 H2          3.6016   -7.4972   36.7376 H         1 GDV         0.0467
     29 H3          5.0711   -7.5299   35.7049 H         1 GDV         0.0467
     30 H4          2.9507   -9.5998   34.4047 H         1 GDV         0.1888
     31 H5          1.4916   -9.6931   32.6851 H         1 GDV         0.0824
     32 H6          3.6385   -7.7989   31.9388 H         1 GDV         0.0672
     33 H7          3.6838   -9.3341   30.1991 H         1 GDV         0.2103
     34 H8          1.0225   -7.7996   30.3257 H         1 GDV         0.0654
     35 H9          2.3432   -6.4592   28.9650 H         1 GDV         0.2100
     36 H10         2.5081   -5.6076   31.9909 H         1 GDV         0.0710
     37 H11         1.8730   -4.6280   29.8035 H         1 GDV         0.0589
     38 H12         0.7580   -4.0638   31.0939 H         1 GDV         0.0589
     39 H13        -0.7384   -5.6556   30.3268 H         1 GDV         0.2095
     40 H14        -1.0475   -5.1020   32.2928 H         1 GDV         0.0932
     41 H15        -2.3351   -8.7772   34.7631 H         1 GDV         0.2244
     42 H16        -4.4897  -10.2127   34.9708 H         1 GDV         0.0502
     43 H17        -6.6414  -10.3516   36.1952 H         1 GDV         0.0577
     44 H18        -7.5975   -8.3221   37.2609 H         1 GDV         0.0487
     45 H19        -6.4093   -6.1610   37.0585 H         1 GDV         0.0577
     46 H20        -4.2317   -6.0282   35.8686 H         1 GDV         0.0502
@<TRIPOS>BOND
     1    1    2 2  
     2    2    3 1  
     3    2    4 am 
     4    4    5 1  
     5    5    6 1  
     6    5   13 1  
     7    6    7 1  
     8    6    8 1  
     9    8    9 1  
    10    8   10 1  
    11   10   11 1  
    12   10   14 1  
    13   11   12 1  
    14   13   14 1  
    15   13   17 2  
    16   14   15 1  
    17   15   16 2  
    18   16   17 1  
    19   16   18 1  
    20   18   19 2  
    21   18   20 am 
    22   20   21 1  
    23   21   22 ar 
    24   21   26 ar 
    25   22   23 ar 
    26   23   24 ar 
    27   24   25 ar 
    28   25   26 ar 
    29    3   27 1  
    30    3   28 1  
    31    3   29 1  
    32    4   30 1  
    33    5   31 1  
    34    6   32 1  
    35    7   33 1  
    36    8   34 1  
    37    9   35 1  
    38   10   36 1  
    39   11   37 1  
    40   11   38 1  
    41   12   39 1  
    42   15   40 1  
    43   20   41 1  
    44   22   42 1  
    45   23   43 1  
    46   24   44 1  
    47   25   45 1  
    48   26   46 1  
@<TRIPOS>SUBSTRUCTURE
     1 GDV         1

