### 
### Created by X-TOOL on Mon Sep 10 21:12:56 2018
### 

@<TRIPOS>MOLECULE
2j4a_ligand
   41    42     1     0     0
SMALL
GAST_HUCK


@<TRIPOS>ATOM
      1 C1          6.4900   19.0420   32.8500 C.ar      1 OEF        -0.0460
      2 C2          2.3540   21.7550   31.3060 C.ar      1 OEF         0.0988
      3 C3          5.8470   20.0310   33.6580 C.ar      1 OEF        -0.0554
      4 C4          1.4270   22.6970   31.7290 C.ar      1 OEF        -0.0348
      5 C5          4.5460   20.4980   33.3470 C.ar      1 OEF         0.0412
      6 C6          1.2520   23.9740   31.1480 C.ar      1 OEF        -0.0185
      7 C7          3.7950   20.0060   32.2010 C.ar      1 OEF         0.1263
      8 C8          2.0540   24.3780   30.0420 C.ar      1 OEF         0.0790
      9 C9          4.4840   19.0210   31.4300 C.ar      1 OEF         0.0412
     10 C10         3.0060   23.4380   29.5910 C.ar      1 OEF        -0.0471
     11 C11         5.7610   18.5620   31.7330 C.ar      1 OEF        -0.0554
     12 C12         3.1370   22.1820   30.2080 C.ar      1 OEF        -0.0437
     13 C13         7.8520   18.6100   33.2760 C.3       1 OEF        -0.0112
     14 C14         8.2320   17.1570   32.9820 C.3       1 OEF         0.0086
     15 BR1         3.7580   21.8140   34.4760 Br        1 OEF        -0.0580
     16 C15         0.2020   24.9570   31.6810 C.3       1 OEF        -0.0170
     17 BR2         3.5920   18.3280   29.9380 Br        1 OEF        -0.0580
     18 O2          2.4840   20.4930   31.9240 O.3       1 OEF        -0.2669
     19 O1          1.9230   25.6120   29.4400 O.3       1 OEF        -0.3435
     20 C18         9.6320   16.8450   33.4760 C.2       1 OEF         0.0365
     21 C16         0.9380   25.7200   32.8070 C.3       1 OEF        -0.0545
     22 O3         10.5350   17.5640   33.0370 O.co2     1 OEF        -0.5689
     23 O4          9.8080   15.9150   34.2490 O.co2     1 OEF        -0.5689
     24 C17        -1.0650   24.2530   32.1980 C.3       1 OEF        -0.0545
     25 H1          6.3637   20.4303   34.5232 H         1 OEF         0.0582
     26 H2          0.7904   22.4345   32.5662 H         1 OEF         0.0464
     27 H3          3.6473   23.6895   28.7540 H         1 OEF         0.0498
     28 H4          6.2140   17.8125   31.0941 H         1 OEF         0.0582
     29 H5          3.8834   21.4990   29.8188 H         1 OEF         0.0469
     30 H6          7.9255   18.7609   34.3631 H         1 OEF         0.0424
     31 H7          8.5820   19.2558   32.7660 H         1 OEF         0.0424
     32 H8          8.1888   16.9876   31.8960 H         1 OEF         0.0450
     33 H9          7.5169   16.4902   33.4859 H         1 OEF         0.0450
     34 H10        -0.0926   25.6556   30.8841 H         1 OEF         0.0432
     35 H11         1.6971   25.4942   28.5247 H         1 OEF         0.2423
     36 H12         0.2567   26.4577   33.2560 H         1 OEF         0.0252
     37 H13         1.8137   26.2372   32.3878 H         1 OEF         0.0252
     38 H14         1.2670   25.0079   33.5781 H         1 OEF         0.0252
     39 H15        -1.5556   23.7245   31.3673 H         1 OEF         0.0252
     40 H16        -1.7554   25.0006   32.6156 H         1 OEF         0.0252
     41 H17        -0.7897   23.5306   32.9805 H         1 OEF         0.0252
@<TRIPOS>BOND
     1    3    1 ar 
     2    1   11 ar 
     3    1   13 1  
     4    2    4 ar 
     5    2   12 ar 
     6   18    2 1  
     7    5    3 ar 
     8    4    6 ar 
     9    7    5 ar 
    10    5   15 1  
    11    6    8 ar 
    12    6   16 1  
    13    7    9 ar 
    14    7   18 1  
    15    8   10 ar 
    16    8   19 1  
    17    9   11 ar 
    18    9   17 1  
    19   10   12 ar 
    20   13   14 1  
    21   14   20 1  
    22   16   21 1  
    23   16   24 1  
    24   20   22 ar 
    25   20   23 ar 
    26    3   25 1  
    27    4   26 1  
    28   10   27 1  
    29   11   28 1  
    30   12   29 1  
    31   13   30 1  
    32   13   31 1  
    33   14   32 1  
    34   14   33 1  
    35   16   34 1  
    36   19   35 1  
    37   21   36 1  
    38   21   37 1  
    39   21   38 1  
    40   24   39 1  
    41   24   40 1  
    42   24   41 1  
@<TRIPOS>SUBSTRUCTURE
     1 OEF         1

