### 
### Created by X-TOOL on Mon Sep 10 21:12:56 2018
### 

@<TRIPOS>MOLECULE
2j4g_ligand
   33    34     1     0     0
SMALL
GAST_HUCK


@<TRIPOS>ATOM
      1 C1          1.2970   -6.2080   33.6630 C.3       1 NB1         0.1382
      2 C2          1.8600   -7.5520   33.1280 C.3       1 NB1         0.0652
      3 C3          2.7330   -7.3380   31.8630 C.3       1 NB1         0.0954
      4 C4          2.0920   -6.3480   30.8720 C.3       1 NB1         0.1101
      5 C5          1.7590   -5.0090   31.5850 C.3       1 NB1         0.1116
      6 C6          1.0410   -3.9750   30.6770 C.3       1 NB1         0.0730
      7 C7          3.3530   -7.2160   35.0740 C.2       1 NB1         0.0759
      8 C8          4.4070   -7.5420   36.1190 C.3       1 NB1         0.0220
      9 CM          5.8910   -6.5100   37.9350 C.3       1 NB1        -0.0623
     10 N2          2.7290   -8.0480   34.2350 N.2       1 NB1        -0.3500
     11 O3          3.0930   -8.5780   31.2660 O.3       1 NB1        -0.3883
     12 O4          3.0670   -6.1740   29.8600 O.3       1 NB1        -0.3866
     13 O5          0.8890   -5.2840   32.6810 O.3       1 NB1        -0.3535
     14 O6         -0.1480   -4.5550   30.1570 O.3       1 NB1        -0.3924
     15 S1          2.6050   -5.7290   34.7420 S.3       1 NB1        -0.0196
     16 C9          4.7710   -6.2720   36.9150 C.3       1 NB1        -0.0367
     17 H1          0.4014   -6.4116   34.2683 H         1 NB1         0.0761
     18 H2          1.0463   -8.2587   32.9079 H         1 NB1         0.0431
     19 H3          3.6700   -6.8718   32.2018 H         1 NB1         0.0628
     20 H4          1.1699   -6.7697   30.4455 H         1 NB1         0.0646
     21 H5          2.6962   -4.5665   31.9534 H         1 NB1         0.0646
     22 H6          1.7048   -3.6905   29.8473 H         1 NB1         0.0584
     23 H7          0.7871   -3.0816   31.2664 H         1 NB1         0.0584
     24 H8          5.3073   -7.9295   35.6198 H         1 NB1         0.0556
     25 H9          4.0133   -8.3035   36.8082 H         1 NB1         0.0556
     26 H10         6.1056   -5.5727   38.4693 H         1 NB1         0.0232
     27 H11         6.7972   -6.8496   37.4120 H         1 NB1         0.0232
     28 H12         5.5737   -7.2783   38.6554 H         1 NB1         0.0232
     29 H13         3.7203   -8.4227   30.5698 H         1 NB1         0.2099
     30 H14         2.7419   -5.5615   29.2106 H         1 NB1         0.2100
     31 H15         0.0733   -5.3266   29.6489 H         1 NB1         0.2095
     32 H16         3.8755   -5.9247   37.4512 H         1 NB1         0.0298
     33 H17         5.0990   -5.4960   36.2078 H         1 NB1         0.0298
@<TRIPOS>BOND
     1    2    1 1  
     2    1   13 1  
     3    1   15 1  
     4    2    3 1  
     5   10    2 1  
     6    3    4 1  
     7    3   11 1  
     8    4    5 1  
     9    4   12 1  
    10    5    6 1  
    11   13    5 1  
    12    6   14 1  
    13    7    8 1  
    14    7   10 2  
    15    7   15 1  
    16    8   16 1  
    17   16    9 1  
    18    1   17 1  
    19    2   18 1  
    20    3   19 1  
    21    4   20 1  
    22    5   21 1  
    23    6   22 1  
    24    6   23 1  
    25    8   24 1  
    26    8   25 1  
    27    9   26 1  
    28    9   27 1  
    29    9   28 1  
    30   11   29 1  
    31   12   30 1  
    32   14   31 1  
    33   16   32 1  
    34   16   33 1  
@<TRIPOS>SUBSTRUCTURE
     1 NB1         1

