### 
### Created by X-TOOL on Mon Sep 10 21:12:54 2018
### 

@<TRIPOS>MOLECULE
2j4z_ligand
   59    63     1     0     0
SMALL
GAST_HUCK


@<TRIPOS>ATOM
      1 C1         43.2880   49.6920   17.8900 C.2       1 626         0.1947
      2 O2         44.2440   49.3480   17.1880 O.2       1 626        -0.3932
      3 N3         42.1820   50.2990   17.3360 N.am      1 626        -0.2554
      4 N4         39.8830   51.6260   14.8130 N.pl3     1 626        -0.2433
      5 C5         38.8920   51.8500   16.7730 C.2       1 626         0.1027
      6 N6         38.7740   52.0380   15.5080 N.2       1 626        -0.2404
      7 N7         37.8270   52.2310   17.6960 N.am      1 626        -0.2391
      8 C8         37.7260   52.1610   19.0560 C.2       1 626         0.2181
      9 C9         36.4630   52.6220   19.7430 C.ar      1 626         0.0412
     10 O10        38.6560   51.7240   19.7280 O.2       1 626        -0.3816
     11 C11        35.3170   53.1510   19.0750 C.ar      1 626        -0.0531
     12 C12        34.1780   53.5430   19.8020 C.ar      1 626        -0.0381
     13 C13        35.2910   52.8940   21.8880 C.ar      1 626        -0.0381
     14 C14        36.4250   52.5060   21.1670 C.ar      1 626        -0.0531
     15 C15        40.6850   51.1640   15.8400 C.2       1 626         0.0786
     16 C16        40.0510   51.2910   17.1030 C.2       1 626         0.0146
     17 C17        40.9870   50.7450   18.1220 C.3       1 626         0.0513
     18 C18        42.0550   50.5590   15.8640 C.3       1 626         0.0896
     19 N19        32.9210   53.8240   22.0180 N.pl3     1 626        -0.2958
     20 C20        32.6940   53.2840   23.4290 C.3       1 626         0.0680
     21 C21        31.2160   53.1950   23.9100 C.3       1 626        -0.0118
     22 N22        30.2230   53.3100   22.7910 N.4       1 626         0.2359
     23 C23        30.4030   54.5050   21.8920 C.3       1 626        -0.0118
     24 C24        31.8760   54.7840   21.4550 C.3       1 626         0.0680
     25 C25        28.8320   53.2220   23.3170 C.3       1 626        -0.0430
     26 C26        34.1360   53.4210   21.2300 C.ar      1 626         0.0460
     27 C27        41.4530   45.8970   19.5050 C.2       1 626        -0.0189
     28 C28        40.8760   46.6880   20.4680 C.2       1 626        -0.0924
     29 S29        42.7160   46.7230   18.6860 S.3       1 626        -0.0419
     30 C30        41.4440   47.9610   20.5580 C.2       1 626        -0.0791
     31 C31        42.4540   48.1200   19.6560 C.2       1 626         0.0307
     32 C32        43.3250   49.3760   19.4090 C.3       1 626         0.0821
     33 H1         40.0680   51.6535   13.8001 H         1 626         0.2389
     34 H2         37.0198   52.6155   17.2481 H         1 626         0.2188
     35 H3         35.3247   53.2517   17.9957 H         1 626         0.0636
     36 H4         33.3195   53.9432   19.2747 H         1 626         0.0530
     37 H5         35.2876   52.7932   22.9673 H         1 626         0.0530
     38 H6         37.2860   52.1123   21.6950 H         1 626         0.0636
     39 H7         41.2675   51.5224   18.8478 H         1 626         0.0576
     40 H8         40.5316   49.8956   18.6521 H         1 626         0.0576
     41 H9         42.1041   49.6300   15.2770 H         1 626         0.0708
     42 H10        42.8207   51.2616   15.5034 H         1 626         0.0708
     43 H11        33.2340   53.9392   24.1284 H         1 626         0.0569
     44 H12        33.1207   52.2711   23.4717 H         1 626         0.0569
     45 H13        31.0316   54.0093   24.6262 H         1 626         0.0834
     46 H14        31.0687   52.2264   24.4101 H         1 626         0.0834
     47 H15        30.3655   52.5012   22.2065 H         1 626         0.2032
     48 H16        30.0310   55.3925   22.4249 H         1 626         0.0834
     49 H17        29.8024   54.3435   20.9847 H         1 626         0.0834
     50 H18        31.9204   54.7277   20.3573 H         1 626         0.0569
     51 H19        32.1394   55.8010   21.7810 H         1 626         0.0569
     52 H20        28.7410   52.3393   23.9671 H         1 626         0.0778
     53 H21        28.1273   53.1330   22.4771 H         1 626         0.0778
     54 H22        28.6006   54.1286   23.8953 H         1 626         0.0778
     55 H23        41.1479   44.8744   19.2881 H         1 626         0.0603
     56 H24        40.0546   46.3548   21.1007 H         1 626         0.0373
     57 H25        41.1211   48.7289   21.2595 H         1 626         0.0284
     58 H26        42.9226   50.2273   19.9776 H         1 626         0.0685
     59 H27        44.3604   49.1806   19.7248 H         1 626         0.0685
@<TRIPOS>BOND
     1    1    2 2  
     2    1    3 am 
     3   32    1 1  
     4    3   17 1  
     5    3   18 1  
     6    4    6 1  
     7   15    4 1  
     8    5    6 2  
     9    5    7 1  
    10   16    5 1  
    11    7    8 am 
    12    8    9 1  
    13    8   10 2  
    14    9   11 ar 
    15    9   14 ar 
    16   11   12 ar 
    17   12   26 ar 
    18   14   13 ar 
    19   13   26 ar 
    20   15   16 2  
    21   18   15 1  
    22   17   16 1  
    23   19   20 1  
    24   19   24 1  
    25   26   19 1  
    26   20   21 1  
    27   21   22 1  
    28   23   22 1  
    29   22   25 1  
    30   24   23 1  
    31   28   27 2  
    32   29   27 1  
    33   30   28 1  
    34   31   29 1  
    35   31   30 2  
    36   31   32 1  
    37    4   33 1  
    38    7   34 1  
    39   11   35 1  
    40   12   36 1  
    41   13   37 1  
    42   14   38 1  
    43   17   39 1  
    44   17   40 1  
    45   18   41 1  
    46   18   42 1  
    47   20   43 1  
    48   20   44 1  
    49   21   45 1  
    50   21   46 1  
    51   22   47 1  
    52   23   48 1  
    53   23   49 1  
    54   24   50 1  
    55   24   51 1  
    56   25   52 1  
    57   25   53 1  
    58   25   54 1  
    59   27   55 1  
    60   28   56 1  
    61   30   57 1  
    62   32   58 1  
    63   32   59 1  
@<TRIPOS>SUBSTRUCTURE
     1 626         1

