### 
### Created by X-TOOL on Mon Sep 10 21:12:54 2018
### 

@<TRIPOS>MOLECULE
2j50_ligand
   66    70     1     0     0
SMALL
GAST_HUCK


@<TRIPOS>ATOM
      1 N1         26.1750   36.7030   24.3730 N.am      1 627        -0.2534
      2 N2         27.9040   39.4280   26.1480 N.pl3     1 627        -0.2433
      3 C3         25.8050   39.8180   26.3570 C.2       1 627         0.1027
      4 N4         27.0480   40.2780   26.6680 N.2       1 627        -0.2404
      5 N5         24.7320   40.5390   26.7920 N.am      1 627        -0.2391
      6 C6         23.3860   40.2720   26.6200 C.2       1 627         0.2181
      7 C7         22.3970   41.2730   27.1970 C.ar      1 627         0.0412
      8 O8         22.9650   39.2870   26.0400 O.2       1 627        -0.3816
      9 C9         22.7860   42.4430   27.8930 C.ar      1 627        -0.0531
     10 C10        21.8200   43.3460   28.4160 C.ar      1 627        -0.0381
     11 C11        20.0270   41.9220   27.5480 C.ar      1 627        -0.0381
     12 C12        20.9910   41.0300   27.0320 C.ar      1 627        -0.0531
     13 C13        27.3070   38.4420   25.5130 C.2       1 627         0.0786
     14 C14        25.9790   38.6240   25.6050 C.2       1 627         0.0146
     15 C15        25.1590   37.5880   24.9280 C.3       1 627         0.0514
     16 C16        27.5230   37.1890   24.7220 C.3       1 627         0.0897
     17 N17        19.3500   44.0150   28.7910 N.pl3     1 627        -0.2958
     18 C18        18.1270   44.1130   27.8930 C.3       1 627         0.0680
     19 C19        17.8010   45.4680   27.1860 C.3       1 627        -0.0118
     20 N20        18.0720   46.6500   28.0240 N.4       1 627         0.2359
     21 C21        19.4730   46.6410   28.4580 C.3       1 627        -0.0118
     22 C22        19.8610   45.3540   29.2440 C.3       1 627         0.0680
     23 C23        17.7480   47.8910   27.3140 C.3       1 627        -0.0430
     24 C24        20.3960   43.1260   28.2660 C.ar      1 627         0.0460
     25 C25        25.9940   35.5270   23.5830 C.2       1 627         0.2222
     26 O26        26.9510   34.8780   23.1730 O.2       1 627        -0.3907
     27 C27        23.8780   36.1590   22.2630 C.ar      1 627         0.0044
     28 C28        22.5870   36.7000   22.5010 C.ar      1 627        -0.0555
     29 C29        24.6160   36.6400   21.1350 C.ar      1 627        -0.0555
     30 C31        22.0490   37.6890   21.6440 C.ar      1 627        -0.0680
     31 C33        24.0850   37.6240   20.2800 C.ar      1 627        -0.0680
     32 C20        24.4930   35.0940   23.2020 C.3       1 627         0.1804
     33 C35        22.7960   38.1580   20.5290 C.ar      1 627        -0.0684
     34 C36        23.3370   33.1330   22.3410 C.3       1 627         0.0424
     35 O34        24.5810   33.7900   22.5560 O.3       1 627        -0.3473
     36 H1         28.9265   39.5225   26.2282 H         1 627         0.2389
     37 H2         24.9472   41.3711   27.3031 H         1 627         0.2188
     38 H3         23.8403   42.6544   28.0298 H         1 627         0.0636
     39 H4         22.1607   44.2288   28.9448 H         1 627         0.0530
     40 H5         18.9761   41.6996   27.4027 H         1 627         0.0530
     41 H6         20.6639   40.1437   26.5005 H         1 627         0.0636
     42 H7         24.5165   37.0567   25.6455 H         1 627         0.0576
     43 H8         24.5370   38.0278   24.1345 H         1 627         0.0576
     44 H9         28.1011   37.4047   23.8114 H         1 627         0.0708
     45 H10        28.0565   36.4406   25.3264 H         1 627         0.0708
     46 H11        17.2542   43.8560   28.5111 H         1 627         0.0569
     47 H12        18.2499   43.3598   27.1009 H         1 627         0.0569
     48 H13        16.7351   45.4711   26.9144 H         1 627         0.0834
     49 H14        18.4120   45.5405   26.2742 H         1 627         0.0834
     50 H15        17.4866   46.5976   28.8429 H         1 627         0.2032
     51 H16        19.6440   47.5124   29.1071 H         1 627         0.0834
     52 H17        20.1156   46.7148   27.5683 H         1 627         0.0834
     53 H18        20.9594   45.2948   29.2342 H         1 627         0.0569
     54 H19        19.5105   45.4949   30.2771 H         1 627         0.0569
     55 H20        16.6936   47.8698   27.0011 H         1 627         0.0778
     56 H21        18.3918   47.9848   26.4270 H         1 627         0.0778
     57 H22        17.9153   48.7495   27.9811 H         1 627         0.0778
     58 H23        22.0074   36.3517   23.3482 H         1 627         0.0562
     59 H24        25.6030   36.2387   20.9352 H         1 627         0.0562
     60 H25        21.0615   38.0914   21.8387 H         1 627         0.0600
     61 H26        24.6618   37.9733   19.4313 H         1 627         0.0600
     62 H27        23.8786   35.0157   24.1110 H         1 627         0.1000
     63 H28        22.3832   38.9175   19.8749 H         1 627         0.0561
     64 H29        23.5139   32.1640   21.8514 H         1 627         0.0528
     65 H30        22.6988   33.7573   21.6984 H         1 627         0.0528
     66 H31        22.8368   32.9698   23.3070 H         1 627         0.0528
@<TRIPOS>BOND
     1    1   15 1  
     2    1   16 1  
     3   25    1 am 
     4    2    4 1  
     5   13    2 1  
     6    3    4 2  
     7    3    5 am 
     8   14    3 1  
     9    5    6 am 
    10    6    7 1  
    11    6    8 2  
    12    7    9 ar 
    13    7   12 ar 
    14    9   10 ar 
    15   10   24 ar 
    16   12   11 ar 
    17   11   24 ar 
    18   13   14 2  
    19   16   13 1  
    20   15   14 1  
    21   17   18 1  
    22   17   22 1  
    23   24   17 1  
    24   18   19 1  
    25   19   20 1  
    26   21   20 1  
    27   20   23 1  
    28   22   21 1  
    29   25   26 2  
    30   32   25 1  
    31   27   28 ar 
    32   27   29 ar 
    33   27   32 1  
    34   28   30 ar 
    35   29   31 ar 
    36   30   33 ar 
    37   31   33 ar 
    38   32   35 1  
    39   35   34 1  
    40    2   36 1  
    41    5   37 1  
    42    9   38 1  
    43   10   39 1  
    44   11   40 1  
    45   12   41 1  
    46   15   42 1  
    47   15   43 1  
    48   16   44 1  
    49   16   45 1  
    50   18   46 1  
    51   18   47 1  
    52   19   48 1  
    53   19   49 1  
    54   20   50 1  
    55   21   51 1  
    56   21   52 1  
    57   22   53 1  
    58   22   54 1  
    59   23   55 1  
    60   23   56 1  
    61   23   57 1  
    62   28   58 1  
    63   29   59 1  
    64   30   60 1  
    65   31   61 1  
    66   32   62 1  
    67   33   63 1  
    68   34   64 1  
    69   34   65 1  
    70   34   66 1  
@<TRIPOS>SUBSTRUCTURE
     1 627         1

