### 
### Created by X-TOOL on Mon Sep 10 21:12:55 2018
### 

@<TRIPOS>MOLECULE
2j62_ligand
   54    56     1     0     0
SMALL
GAST_HUCK


@<TRIPOS>ATOM
      1 CAZ        37.1090   40.4740   22.5240 C.3       1 GSZ        -0.0456
      2 CAN        36.5190   41.7320   21.8600 C.3       1 GSZ         0.0432
      3 CBA        37.0330   42.9790   22.5650 C.3       1 GSZ        -0.0456
      4 CAL        34.9720   41.7350   21.8580 C.2       1 GSZ         0.1811
      5 OAM        34.3250   40.7810   22.3200 O.2       1 GSZ        -0.3966
      6 NAK        34.4150   42.8330   21.3140 N.am      1 GSZ        -0.2638
      7 CAC        32.9330   43.0140   21.2010 C.3       1 GSZ         0.1446
      8 CAB        32.2780   43.1860   22.5720 C.3       1 GSZ         0.1222
      9 OAG        32.2910   44.5600   22.8210 O.3       1 GSZ        -0.3842
     10 CAA        30.8330   42.6510   22.6560 C.3       1 GSZ         0.1176
     11 OAH        30.3000   42.8810   23.9690 O.3       1 GSZ        -0.3858
     12 CAF        30.8690   41.1540   22.3300 C.3       1 GSZ         0.1168
     13 CAI        29.5680   40.3700   22.6510 C.3       1 GSZ         0.0768
     14 OAJ        28.5320   40.8310   21.8280 O.3       1 GSZ        -0.3919
     15 NAE        31.2900   41.0200   20.9070 N.pl3     1 GSZ        -0.2497
     16 CAQ        30.9460   40.1880   19.9240 C.2       1 GSZ         0.0236
     17 CAD        32.2770   41.8850   20.3670 C.2       1 GSZ         0.1393
     18 NAO        32.4450   41.5340   19.0930 N.2       1 GSZ        -0.3317
     19 CAP        31.6290   40.5070   18.8130 C.2       1 GSZ        -0.0178
     20 CAR        31.5430   39.7580   17.4630 C.3       1 GSZ        -0.0191
     21 CAS        31.3720   40.7370   16.3070 C.3       1 GSZ        -0.0133
     22 CAT        29.9540   41.3460   16.2500 C.ar      1 GSZ        -0.0416
     23 CAU        28.8900   40.6290   15.6690 C.ar      1 GSZ        -0.0602
     24 CAV        27.6060   41.1840   15.5930 C.ar      1 GSZ        -0.0686
     25 CAW        27.4000   42.4620   16.1150 C.ar      1 GSZ        -0.0687
     26 CAX        28.4610   43.1830   16.6960 C.ar      1 GSZ        -0.0686
     27 CAY        29.7370   42.6290   16.7710 C.ar      1 GSZ        -0.0602
     28 H1         38.2074   40.5260   22.4968 H         1 GSZ         0.0257
     29 H2         36.7708   39.5795   21.9804 H         1 GSZ         0.0257
     30 H3         36.7703   40.4179   23.5691 H         1 GSZ         0.0257
     31 H4         36.8602   41.7553   20.8145 H         1 GSZ         0.0532
     32 H5         36.6076   43.8729   22.0855 H         1 GSZ         0.0257
     33 H6         38.1303   43.0132   22.4962 H         1 GSZ         0.0257
     34 H7         36.7326   42.9523   23.6228 H         1 GSZ         0.0257
     35 H8         35.0147   43.5564   20.9718 H         1 GSZ         0.1888
     36 H9         32.7667   43.9516   20.6504 H         1 GSZ         0.0820
     37 H10        32.8826   42.6621   23.3270 H         1 GSZ         0.0672
     38 H11        31.8934   44.7312   23.6666 H         1 GSZ         0.2103
     39 H12        30.2033   43.1704   21.9186 H         1 GSZ         0.0654
     40 H13        29.4110   42.5487   24.0113 H         1 GSZ         0.2100
     41 H14        31.6561   40.7056   22.9540 H         1 GSZ         0.0699
     42 H15        29.2961   40.5260   23.7054 H         1 GSZ         0.0589
     43 H16        29.7314   39.2975   22.4693 H         1 GSZ         0.0589
     44 H17        28.3920   41.7573   21.9858 H         1 GSZ         0.2095
     45 H18        30.2243   39.3769   20.0088 H         1 GSZ         0.0663
     46 H19        30.6823   39.0734   17.4853 H         1 GSZ         0.0392
     47 H20        32.4670   39.1806   17.3121 H         1 GSZ         0.0392
     48 H21        31.5654   40.2055   15.3635 H         1 GSZ         0.0442
     49 H22        32.1011   41.5522   16.4248 H         1 GSZ         0.0442
     50 H23        29.0670   39.6346   15.2755 H         1 GSZ         0.0557
     51 H24        26.7904   40.6331   15.1388 H         1 GSZ         0.0599
     52 H25        26.4115   42.9048   16.0727 H         1 GSZ         0.0559
     53 H26        28.2833   44.1778   17.0883 H         1 GSZ         0.0599
     54 H27        30.5506   43.1824   17.2259 H         1 GSZ         0.0557
@<TRIPOS>BOND
     1    1    2 1  
     2    2    3 1  
     3    2    4 1  
     4    4    5 2  
     5    4    6 am 
     6    6    7 1  
     7    7    8 1  
     8    7   17 1  
     9    8    9 1  
    10    8   10 1  
    11   10   11 1  
    12   10   12 1  
    13   12   13 1  
    14   12   15 1  
    15   13   14 1  
    16   15   16 1  
    17   15   17 1  
    18   16   19 2  
    19   17   18 2  
    20   18   19 1  
    21   19   20 1  
    22   20   21 1  
    23   21   22 1  
    24   22   23 ar 
    25   22   27 ar 
    26   23   24 ar 
    27   24   25 ar 
    28   25   26 ar 
    29   26   27 ar 
    30    1   28 1  
    31    1   29 1  
    32    1   30 1  
    33    2   31 1  
    34    3   32 1  
    35    3   33 1  
    36    3   34 1  
    37    6   35 1  
    38    7   36 1  
    39    8   37 1  
    40    9   38 1  
    41   10   39 1  
    42   11   40 1  
    43   12   41 1  
    44   13   42 1  
    45   13   43 1  
    46   14   44 1  
    47   16   45 1  
    48   20   46 1  
    49   20   47 1  
    50   21   48 1  
    51   21   49 1  
    52   23   50 1  
    53   24   51 1  
    54   25   52 1  
    55   26   53 1  
    56   27   54 1  
@<TRIPOS>SUBSTRUCTURE
     1 GSZ         1

