### 
### Created by X-TOOL on Mon Sep 10 21:12:56 2018
### 

@<TRIPOS>MOLECULE
2j6m_ligand
   67    71     1     0     0
SMALL
GAST_HUCK


@<TRIPOS>ATOM
      1 CAQ       -50.7820   -0.6920  -12.4130 C.3       1 AEE         0.0109
      2 CAO       -49.4830   -1.0040  -11.6760 C.3       1 AEE         0.0095
      3 NBF       -49.1860   -2.4340  -11.7620 N.4       1 AEE         0.2425
      4 CAN       -50.2950   -3.2120  -11.2020 C.3       1 AEE        -0.0344
      5 CAA       -50.3250   -3.0340   -9.6850 C.3       1 AEE        -0.0245
      6 CAP       -48.9970   -2.7720  -13.1700 C.3       1 AEE         0.0095
      7 CAR       -50.3000   -2.5340  -13.9180 C.3       1 AEE         0.0109
      8 NBG       -50.6950   -1.1260  -13.8110 N.4       1 AEE         0.2548
      9 CAS       -49.8460   -0.2520  -14.6260 C.3       1 AEE         0.0025
     10 CAX       -50.5050   -0.0850  -15.9900 C.ar      1 AEE         0.0018
     11 CAI       -51.5450    0.8070  -16.1470 C.ar      1 AEE        -0.0546
     12 CAK       -52.1510    0.9550  -17.3830 C.ar      1 AEE        -0.0586
     13 CAJ       -50.0770   -0.8310  -17.0690 C.ar      1 AEE        -0.0546
     14 CAL       -50.6790   -0.6800  -18.3070 C.ar      1 AEE        -0.0586
     15 CAY       -51.7220    0.2090  -18.4630 C.ar      1 AEE        -0.0019
     16 CBA       -52.3280    0.3730  -19.6960 C.2       1 AEE         0.0634
     17 NAW       -53.3660    1.1590  -19.9400 N.pl3     1 AEE        -0.2618
     18 CAM       -51.9570   -0.2180  -20.8220 C.2       1 AEE        -0.0457
     19 C5        -52.7630    0.1890  -21.7830 C.ar      1 AEE         0.0466
     20 C4        -53.6530    1.0650  -21.2250 C.ar      1 AEE         0.1356
     21 N3        -54.5870    1.6230  -21.9920 N.ar      1 AEE        -0.2767
     22 C2        -54.6590    1.3430  -23.2760 C.ar      1 AEE         0.0500
     23 N1        -53.8170    0.5090  -23.8430 N.ar      1 AEE        -0.2729
     24 C6        -52.8630   -0.0780  -23.1290 C.ar      1 AEE         0.1220
     25 NAV       -52.0340   -0.9090  -23.7250 N.pl3     1 AEE        -0.2876
     26 CBE       -52.3410   -1.3270  -25.0890 C.3       1 AEE         0.0722
     27 CAB       -51.2870   -2.3080  -25.5730 C.3       1 AEE        -0.0314
     28 CAZ       -52.3440   -0.1220  -26.0010 C.ar      1 AEE        -0.0177
     29 CAG       -52.2240    1.1440  -25.4670 C.ar      1 AEE        -0.0581
     30 CAD       -52.2300    2.2450  -26.3050 C.ar      1 AEE        -0.0685
     31 CAC       -52.3550    2.0790  -27.6710 C.ar      1 AEE        -0.0687
     32 CAE       -52.4720    0.8110  -28.2030 C.ar      1 AEE        -0.0685
     33 CAH       -52.4670   -0.2920  -27.3680 C.ar      1 AEE        -0.0581
     34 H1        -50.9651    0.3922  -12.3811 H         1 AEE         0.0868
     35 H2        -51.6130   -1.2189  -11.9213 H         1 AEE         0.0868
     36 H3        -49.5866   -0.7171  -10.6192 H         1 AEE         0.0868
     37 H4        -48.6602   -0.4337  -12.1319 H         1 AEE         0.0868
     38 H5        -48.3433   -2.6376  -11.2477 H         1 AEE         0.2037
     39 H6        -50.1557   -4.2760  -11.4439 H         1 AEE         0.0812
     40 H7        -51.2443   -2.8595  -11.6316 H         1 AEE         0.0812
     41 H8        -51.1569   -3.6175   -9.2638 H         1 AEE         0.0281
     42 H9        -50.4641   -1.9699   -9.4433 H         1 AEE         0.0281
     43 H10       -49.3756   -3.3865   -9.2556 H         1 AEE         0.0281
     44 H11       -48.7088   -3.8298  -13.2595 H         1 AEE         0.0868
     45 H12       -48.2057   -2.1389  -13.5979 H         1 AEE         0.0868
     46 H13       -51.0886   -3.1666  -13.4846 H         1 AEE         0.0868
     47 H14       -50.1631   -2.7934  -14.9782 H         1 AEE         0.0868
     48 H15       -51.6257   -1.0565  -14.1918 H         1 AEE         0.2053
     49 H16       -48.8512   -0.7058  -14.7462 H         1 AEE         0.0983
     50 H17       -49.7451    0.7290  -14.1387 H         1 AEE         0.0983
     51 H18       -51.8883    1.3928  -15.3019 H         1 AEE         0.0561
     52 H19       -52.9659    1.6596  -17.5035 H         1 AEE         0.0602
     53 H20       -49.2653   -1.5390  -16.9470 H         1 AEE         0.0561
     54 H21       -50.3305   -1.2605  -19.1535 H         1 AEE         0.0602
     55 H22       -53.8615    1.7406  -19.2492 H         1 AEE         0.2284
     56 H23       -51.1304   -0.9180  -20.9344 H         1 AEE         0.0342
     57 H24       -55.4294    1.8105  -23.8785 H         1 AEE         0.0975
     58 H25       -51.1923   -1.2544  -23.2421 H         1 AEE         0.1894
     59 H26       -53.3299   -1.8081  -25.1105 H         1 AEE         0.0724
     60 H27       -51.5218   -2.6207  -26.6012 H         1 AEE         0.0275
     61 H28       -51.2768   -3.1894  -24.9150 H         1 AEE         0.0275
     62 H29       -50.2993   -1.8243  -25.5534 H         1 AEE         0.0275
     63 H30       -52.1254    1.2758  -24.3956 H         1 AEE         0.0557
     64 H31       -52.1363    3.2413  -25.8884 H         1 AEE         0.0599
     65 H32       -52.3612    2.9440  -28.3243 H         1 AEE         0.0559
     66 H33       -52.5678    0.6793  -29.2747 H         1 AEE         0.0599
     67 H34       -52.5594   -1.2884  -27.7847 H         1 AEE         0.0557
@<TRIPOS>BOND
     1    1    2 1  
     2    1    8 1  
     3    2    3 1  
     4    3    4 1  
     5    3    6 1  
     6    4    5 1  
     7    6    7 1  
     8    7    8 1  
     9    8    9 1  
    10    9   10 1  
    11   10   11 ar 
    12   10   13 ar 
    13   11   12 ar 
    14   12   15 ar 
    15   13   14 ar 
    16   14   15 ar 
    17   15   16 1  
    18   16   17 1  
    19   16   18 2  
    20   17   20 1  
    21   18   19 1  
    22   19   20 ar 
    23   19   24 ar 
    24   20   21 ar 
    25   21   22 ar 
    26   22   23 ar 
    27   23   24 ar 
    28   24   25 1  
    29   25   26 1  
    30   26   27 1  
    31   26   28 1  
    32   28   29 ar 
    33   28   33 ar 
    34   29   30 ar 
    35   30   31 ar 
    36   31   32 ar 
    37   32   33 ar 
    38    1   34 1  
    39    1   35 1  
    40    2   36 1  
    41    2   37 1  
    42    3   38 1  
    43    4   39 1  
    44    4   40 1  
    45    5   41 1  
    46    5   42 1  
    47    5   43 1  
    48    6   44 1  
    49    6   45 1  
    50    7   46 1  
    51    7   47 1  
    52    8   48 1  
    53    9   49 1  
    54    9   50 1  
    55   11   51 1  
    56   12   52 1  
    57   13   53 1  
    58   14   54 1  
    59   17   55 1  
    60   18   56 1  
    61   22   57 1  
    62   25   58 1  
    63   26   59 1  
    64   27   60 1  
    65   27   61 1  
    66   27   62 1  
    67   29   63 1  
    68   30   64 1  
    69   31   65 1  
    70   32   66 1  
    71   33   67 1  
@<TRIPOS>SUBSTRUCTURE
     1 AEE         1

