### 
### Created by X-TOOL on Mon Sep 10 21:12:54 2018
### 

@<TRIPOS>MOLECULE
2j75_ligand
   25    25     1     0     0
SMALL
GAST_HUCK


@<TRIPOS>ATOM
      1 O4         -1.6710   10.6170    6.8920 O.3       1 NOY        -0.3884
      2 C4         -1.1700   10.4880    8.2180 C.3       1 NOY         0.0986
      3 C3         -0.4290   11.7620    8.6050 C.3       1 NOY         0.1497
      4 O3          0.6620   12.0020    7.7220 O.3       1 NOY        -0.3811
      5 C2          0.1360   11.6520   10.0140 C.3       1 NOY         0.1091
      6 N          -0.8990   11.2140   10.9700 N.4       1 NOY         0.2513
      7 C7         -1.7170   10.0580   10.6180 C.3       1 NOY        -0.0236
      8 C5         -2.3230   10.2650    9.2230 C.3       1 NOY         0.0509
      9 C6         -3.2310    9.1000    8.8570 C.3       1 NOY         0.0543
     10 O2          0.5860   12.9450   10.3860 O.3       1 NOY        -0.3504
     11 O6         -2.5760    7.8160    8.9700 O.3       1 NOY        -0.3945
     12 H1         -2.1330    9.8228    6.6506 H         1 NOY         0.2099
     13 H2         -0.4800    9.6325    8.2610 H         1 NOY         0.0627
     14 H3         -1.1306   12.6078    8.5574 H         1 NOY         0.0704
     15 H4          0.3353   12.0951    6.8348 H         1 NOY         0.2103
     16 H5          0.9729   10.9383   10.0261 H         1 NOY         0.1211
     17 H6         -1.5249   11.9916   11.1101 H         1 NOY         0.2042
     18 H7         -0.4328   10.9974   11.8370 H         1 NOY         0.2042
     19 H8         -2.5252    9.9426   11.3552 H         1 NOY         0.0819
     20 H9         -1.0913    9.1533   10.6152 H         1 NOY         0.0819
     21 H10        -2.9404   11.1752    9.2399 H         1 NOY         0.0401
     22 H11        -3.5681    9.2312    7.8182 H         1 NOY         0.0562
     23 H12        -4.1017    9.1096    9.5291 H         1 NOY         0.0562
     24 H13        -0.1455   13.5508   10.3686 H         1 NOY         0.2155
     25 H14        -1.8259    7.7920    8.3875 H         1 NOY         0.2094
@<TRIPOS>BOND
     1    1    2 1  
     2    2    3 1  
     3    2    8 1  
     4    3    4 1  
     5    3    5 1  
     6    5    6 1  
     7    5   10 1  
     8    6    7 1  
     9    7    8 1  
    10    8    9 1  
    11    9   11 1  
    12    1   12 1  
    13    2   13 1  
    14    3   14 1  
    15    4   15 1  
    16    5   16 1  
    17    6   17 1  
    18    6   18 1  
    19    7   19 1  
    20    7   20 1  
    21    8   21 1  
    22    9   22 1  
    23    9   23 1  
    24   10   24 1  
    25   11   25 1  
@<TRIPOS>SUBSTRUCTURE
     1 NOY         1

