### 
### Created by X-TOOL on Mon Sep 10 21:12:54 2018
### 

@<TRIPOS>MOLECULE
2j77_ligand
   25    25     1     0     0
SMALL
GAST_HUCK


@<TRIPOS>ATOM
      1 C1         -0.9120   11.1330   10.9470 C.3       1 NOJ        -0.0040
      2 C2          0.1350   11.6360    9.9430 C.3       1 NOJ         0.1231
      3 O2          0.4720   12.9340   10.3860 O.3       1 NOJ        -0.3838
      4 C3         -0.4860   11.7580    8.5440 C.3       1 NOJ         0.1171
      5 O3          0.5770   12.0530    7.6640 O.3       1 NOJ        -0.3862
      6 C4         -1.3080   10.5040    8.1440 C.3       1 NOJ         0.1280
      7 O4         -1.7400   10.7230    6.8160 O.3       1 NOJ        -0.3835
      8 C5         -2.4700   10.3840    9.1460 C.3       1 NOJ         0.0301
      9 N5         -1.8910   10.1580   10.4680 N.4       1 NOJ         0.2346
     10 C6         -3.4120    9.1980    8.8830 C.3       1 NOJ         0.0893
     11 O6         -2.7160    7.9670    9.0060 O.3       1 NOJ        -0.3894
     12 H1         -1.4695   12.0094   11.3090 H         1 NOJ         0.0840
     13 H2         -0.3699   10.6713   11.7854 H         1 NOJ         0.0840
     14 H3          1.0135   10.9744    9.9197 H         1 NOJ         0.0674
     15 H4         -0.3057   13.4795   10.3852 H         1 NOJ         0.2101
     16 H5         -1.1803   12.6112    8.5432 H         1 NOJ         0.0649
     17 H6          0.2402   12.1385    6.7798 H         1 NOJ         0.2100
     18 H7         -0.6883    9.5963    8.1884 H         1 NOJ         0.0678
     19 H8         -2.2512    9.9776    6.5235 H         1 NOJ         0.2102
     20 H9         -3.0511   11.3178    9.1325 H         1 NOJ         0.0900
     21 H10        -2.6495   10.1395   11.1316 H         1 NOJ         0.2019
     22 H11        -1.4380    9.2577   10.4502 H         1 NOJ         0.2019
     23 H12        -3.8215    9.2810    7.8655 H         1 NOJ         0.0614
     24 H13        -4.2349    9.2219    9.6126 H         1 NOJ         0.0614
     25 H14        -2.0061    7.9415    8.3752 H         1 NOJ         0.2097
@<TRIPOS>BOND
     1    1    2 1  
     2    1    9 1  
     3    2    3 1  
     4    2    4 1  
     5    4    5 1  
     6    4    6 1  
     7    6    7 1  
     8    6    8 1  
     9    8    9 1  
    10    8   10 1  
    11   10   11 1  
    12    1   12 1  
    13    1   13 1  
    14    2   14 1  
    15    3   15 1  
    16    4   16 1  
    17    5   17 1  
    18    6   18 1  
    19    7   19 1  
    20    8   20 1  
    21    9   21 1  
    22    9   22 1  
    23   10   23 1  
    24   10   24 1  
    25   11   25 1  
@<TRIPOS>SUBSTRUCTURE
     1 NOJ         1

