### 
### Created by X-TOOL on Mon Sep 10 21:12:53 2018
### 

@<TRIPOS>MOLECULE
2j78_ligand
   25    25     1     0     0
SMALL
GAST_HUCK


@<TRIPOS>ATOM
      1 C1          0.1250   11.4600   10.3170 C.2       1 GOX         0.1322
      2 N1          0.5030   11.3590   11.5760 N.2       1 GOX        -0.2068
      3 C2          1.1740   12.1210    9.4020 C.3       1 GOX         0.1503
      4 N5         -1.1350   10.9800    9.9070 N.pl3     1 GOX        -0.2990
      5 O7         -0.3610   10.7420   12.4840 O.3       1 GOX        -0.3046
      6 O2          1.6700   13.3100    9.9680 O.3       1 GOX        -0.3713
      7 C3          0.5390   12.4040    8.0430 C.3       1 GOX         0.1233
      8 O3          1.6100   12.6700    7.1400 O.3       1 GOX        -0.3841
      9 C4         -0.2660   11.1900    7.5690 C.3       1 GOX         0.1104
     10 O4         -0.6380   11.3320    6.2030 O.3       1 GOX        -0.3866
     11 C5         -1.5140   11.1240    8.4950 C.3       1 GOX         0.0898
     12 C6         -2.4280    9.9260    8.1640 C.3       1 GOX         0.0694
     13 O6         -1.7790    8.6990    8.4330 O.3       1 GOX        -0.3927
     14 H1          2.0135   11.4235    9.2653 H         1 GOX         0.0843
     15 H2         -1.7755   10.5383   10.5819 H         1 GOX         0.1812
     16 H3          0.0371   10.7394   13.3466 H         1 GOX         0.2523
     17 H4          0.9538   13.9205   10.0976 H         1 GOX         0.2137
     18 H5         -0.1249   13.2784    8.1105 H         1 GOX         0.0673
     19 H6          1.2572   12.8523    6.2770 H         1 GOX         0.2103
     20 H7          0.3324   10.2739    7.6817 H         1 GOX         0.0646
     21 H8         -1.1352   10.5697    5.9305 H         1 GOX         0.2100
     22 H9         -2.0832   12.0564    8.3664 H         1 GOX         0.0603
     23 H10        -2.6971    9.9635    7.0981 H         1 GOX         0.0581
     24 H11        -3.3403    9.9910    8.7751 H         1 GOX         0.0581
     25 H12        -0.9920    8.6358    7.9047 H         1 GOX         0.2095
@<TRIPOS>BOND
     1    1    2 2  
     2    1    3 1  
     3    1    4 1  
     4    2    5 1  
     5    3    6 1  
     6    3    7 1  
     7    4   11 1  
     8    7    8 1  
     9    7    9 1  
    10    9   10 1  
    11    9   11 1  
    12   11   12 1  
    13   12   13 1  
    14    3   14 1  
    15    4   15 1  
    16    5   16 1  
    17    6   17 1  
    18    7   18 1  
    19    8   19 1  
    20    9   20 1  
    21   10   21 1  
    22   11   22 1  
    23   12   23 1  
    24   12   24 1  
    25   13   25 1  
@<TRIPOS>SUBSTRUCTURE
     1 GOX         1

