### 
### Created by X-TOOL on Mon Sep 10 21:12:54 2018
### 

@<TRIPOS>MOLECULE
2j79_ligand
   25    25     1     0     0
SMALL
GAST_HUCK


@<TRIPOS>ATOM
      1 C1         -1.0040   10.7130   10.5590 C.2       1 GTL         0.1322
      2 N1         -0.6590   10.3720   11.8000 N.2       1 GTL        -0.2068
      3 C2          0.0820   11.4610    9.7580 C.3       1 GTL         0.1503
      4 N5         -2.3020   10.3820   10.0750 N.pl3     1 GTL        -0.2990
      5 O7         -1.4930    9.5120   12.5330 O.3       1 GTL        -0.3046
      6 O2          0.4940   12.6670   10.3580 O.3       1 GTL        -0.3713
      7 C3         -0.4750   11.8970    8.4000 C.3       1 GTL         0.1233
      8 O3          0.6520   12.1630    7.5930 O.3       1 GTL        -0.3841
      9 C4         -1.4350   10.8530    7.7670 C.3       1 GTL         0.1104
     10 O4         -0.6840    9.6660    7.6480 O.3       1 GTL        -0.3866
     11 C5         -2.6640   10.6690    8.6850 C.3       1 GTL         0.0898
     12 C6         -3.6670    9.5670    8.2980 C.3       1 GTL         0.0694
     13 O6         -3.2150    8.2790    8.6280 O.3       1 GTL        -0.3927
     14 H1          0.9464   10.7936    9.6265 H         1 GTL         0.0843
     15 H2         -2.9876    9.9399   10.7038 H         1 GTL         0.1812
     16 H3         -1.5740    8.6841   12.0741 H         1 GTL         0.2523
     17 H4         -0.2518   13.2499   10.4393 H         1 GTL         0.2137
     18 H5         -1.0446   12.8285    8.5337 H         1 GTL         0.0673
     19 H6          1.1702   12.8521    7.9919 H         1 GTL         0.2103
     20 H7         -1.7695   11.1879    6.7740 H         1 GTL         0.0646
     21 H8         -1.2258    8.9871    7.2633 H         1 GTL         0.2100
     22 H9         -3.2034   11.6273    8.6611 H         1 GTL         0.0603
     23 H10        -3.8371    9.6122    7.2122 H         1 GTL         0.0581
     24 H11        -4.6142    9.7529    8.8256 H         1 GTL         0.0581
     25 H12        -2.4004    8.1039    8.1716 H         1 GTL         0.2095
@<TRIPOS>BOND
     1    1    2 2  
     2    1    3 1  
     3    1    4 1  
     4    2    5 1  
     5    3    6 1  
     6    3    7 1  
     7    4   11 1  
     8    7    8 1  
     9    7    9 1  
    10    9   10 1  
    11    9   11 1  
    12   11   12 1  
    13   12   13 1  
    14    3   14 1  
    15    4   15 1  
    16    5   16 1  
    17    6   17 1  
    18    7   18 1  
    19    8   19 1  
    20    9   20 1  
    21   10   21 1  
    22   11   22 1  
    23   12   23 1  
    24   12   24 1  
    25   13   25 1  
@<TRIPOS>SUBSTRUCTURE
     1 GTL         1

