### 
### Created by X-TOOL on Mon Sep 10 21:12:54 2018
### 

@<TRIPOS>MOLECULE
2j7b_ligand
   24    25     1     0     0
SMALL
GAST_HUCK


@<TRIPOS>ATOM
      1 C1         34.3030   24.4830   38.9730 C.2       1 NTZ         0.1975
      2 C2         35.0210   23.4660   38.1460 C.3       1 NTZ         0.1694
      3 C3         35.2650   24.0260   36.7490 C.3       1 NTZ         0.1278
      4 C4         34.0460   24.8430   36.2670 C.3       1 NTZ         0.1212
      5 C5         33.8810   26.1370   37.1030 C.3       1 NTZ         0.1447
      6 C6         32.6400   26.9400   36.7370 C.3       1 NTZ         0.0799
      7 N1         33.8200   25.6260   38.4860 N.pl3     1 NTZ        -0.1275
      8 N17        33.1480   26.3780   39.4370 N.2       1 NTZ        -0.0699
      9 N18        33.2300   25.6160   40.5920 N.2       1 NTZ        -0.1529
     10 N21        33.9810   24.4530   40.2830 N.2       1 NTZ        -0.2201
     11 O2         36.2560   23.0390   38.7230 O.3       1 NTZ        -0.3672
     12 O3         35.5150   22.9010   35.8850 O.3       1 NTZ        -0.3836
     13 O4         34.2130   25.2280   34.9140 O.3       1 NTZ        -0.3856
     14 O6         31.4470   26.1970   37.0270 O.3       1 NTZ        -0.3917
     15 H1         34.3700   22.5836   38.0586 H         1 NTZ         0.0891
     16 H2         36.1477   24.6822   36.7627 H         1 NTZ         0.0678
     17 H3         33.1414   24.2250   36.3654 H         1 NTZ         0.0656
     18 H4         34.7608   26.7843   36.9731 H         1 NTZ         0.0734
     19 H5         32.6663   27.1744   35.6626 H         1 NTZ         0.0590
     20 H6         32.6319   27.8751   37.3163 H         1 NTZ         0.0590
     21 H7         36.8495   23.7785   38.7811 H         1 NTZ         0.2143
     22 H8         35.6878   23.2119   35.0041 H         1 NTZ         0.2103
     23 H9         33.4483   25.7136   34.6274 H         1 NTZ         0.2100
     24 H10        31.4187   25.9951   37.9549 H         1 NTZ         0.2095
@<TRIPOS>BOND
     1    1    2 1  
     2    1    7 1  
     3    1   10 2  
     4    2    3 1  
     5    2   11 1  
     6    3    4 1  
     7    3   12 1  
     8    4    5 1  
     9    4   13 1  
    10    5    6 1  
    11    5    7 1  
    12    6   14 1  
    13    7    8 1  
    14    8    9 2  
    15    9   10 1  
    16    2   15 1  
    17    3   16 1  
    18    4   17 1  
    19    5   18 1  
    20    6   19 1  
    21    6   20 1  
    22   11   21 1  
    23   12   22 1  
    24   13   23 1  
    25   14   24 1  
@<TRIPOS>SUBSTRUCTURE
     1 NTZ         1

