### 
### Created by X-TOOL on Mon Sep 10 21:12:53 2018
### 

@<TRIPOS>MOLECULE
2j7d_ligand
   34    35     1     0     0
SMALL
GAST_HUCK


@<TRIPOS>ATOM
      1 C1         -0.8960   10.5930   10.5900 C.2       1 GI1         0.1428
      2 C2          0.0790   11.3970    9.8090 C.3       1 GI1         0.1578
      3 O2          0.3250   12.6490   10.4320 O.3       1 GI1        -0.3700
      4 C3         -0.4530   11.6990    8.4080 C.3       1 GI1         0.1252
      5 O3          0.6740   11.9900    7.5790 O.3       1 GI1        -0.3839
      6 C4         -1.3380   10.5470    7.8970 C.3       1 GI1         0.1178
      7 C80        -2.6760    9.4050   11.1250 C.2       1 GI1         0.0282
      8 N10        -2.1030   10.1490   10.1590 N.pl3     1 GI1        -0.2493
      9 O4         -1.6680   10.6890    6.5180 O.3       1 GI1        -0.3858
     10 C5         -2.6030   10.4470    8.7850 C.3       1 GI1         0.1168
     11 C6         -3.5510    9.3730    8.3240 C.3       1 GI1         0.0768
     12 O6         -3.0290    8.0670    8.5650 O.3       1 GI1        -0.3919
     13 N1         -0.7000   10.1480   11.8460 N.2       1 GI1        -0.3267
     14 C7         -1.7760    9.4130   12.1750 C.2       1 GI1         0.0350
     15 C8         -2.1320    8.7220   13.4410 C.3       1 GI1         0.1812
     16 O8         -2.8830    7.5150   13.2500 O.3       1 GI1        -0.3591
     17 C9         -0.1880    7.3170   14.0820 C.3       1 GI1         0.0413
     18 O9         -0.9590    8.5300   14.2460 O.3       1 GI1        -0.3467
     19 H1          1.0200   10.8327    9.7319 H         1 GI1         0.0858
     20 H2         -0.4888   13.1352   10.4955 H         1 GI1         0.2138
     21 H3         -1.0825   12.5998    8.4554 H         1 GI1         0.0675
     22 H4          0.3761   12.1828    6.6977 H         1 GI1         0.2103
     23 H5         -0.7712    9.6105    8.0050 H         1 GI1         0.0654
     24 H6         -3.6422    8.9040   11.0871 H         1 GI1         0.0664
     25 H7         -2.2125    9.9593    6.2471 H         1 GI1         0.2100
     26 H8         -3.1346   11.4100    8.7787 H         1 GI1         0.0699
     27 H9         -3.7271    9.4926    7.2448 H         1 GI1         0.0589
     28 H10        -4.5026    9.4816    8.8650 H         1 GI1         0.0589
     29 H11        -2.2091    7.9634    8.0964 H         1 GI1         0.2095
     30 H12        -2.7904    9.4051   13.9976 H         1 GI1         0.1016
     31 H13        -3.1627    7.1804   14.0941 H         1 GI1         0.2148
     32 H14         0.6701    7.3321   14.7701 H         1 GI1         0.0526
     33 H15         0.1743    7.2501   13.0456 H         1 GI1         0.0526
     34 H16        -0.8220    6.4464   14.3057 H         1 GI1         0.0526
@<TRIPOS>BOND
     1    1    2 1  
     2    1    8 1  
     3    1   13 2  
     4    2    3 1  
     5    2    4 1  
     6    4    5 1  
     7    4    6 1  
     8    6    9 1  
     9    6   10 1  
    10    8    7 1  
    11    7   14 2  
    12    8   10 1  
    13   10   11 1  
    14   11   12 1  
    15   13   14 1  
    16   14   15 1  
    17   15   16 1  
    18   15   18 1  
    19   18   17 1  
    20    2   19 1  
    21    3   20 1  
    22    4   21 1  
    23    5   22 1  
    24    6   23 1  
    25    7   24 1  
    26    9   25 1  
    27   10   26 1  
    28   11   27 1  
    29   11   28 1  
    30   12   29 1  
    31   15   30 1  
    32   16   31 1  
    33   17   32 1  
    34   17   33 1  
    35   17   34 1  
@<TRIPOS>SUBSTRUCTURE
     1 GI1         1

