### 
### Created by X-TOOL on Mon Sep 10 21:12:54 2018
### 

@<TRIPOS>MOLECULE
2j7e_ligand
   35    36     1     0     0
SMALL
GAST_HUCK


@<TRIPOS>ATOM
      1 C1         -1.6080    8.8230   13.6050 C.3       1 GI2         0.0724
      2 C2         -0.5400    7.7680   13.7940 C.2       1 GI2         0.2405
      3 C4          0.4590    6.0810   15.1020 C.3       1 GI2         0.0658
      4 C1B        -0.6490   10.6230   10.5800 C.2       1 GI2         0.1431
      5 C2B         0.2760   11.4620    9.6810 C.3       1 GI2         0.1578
      6 C3B        -0.3370   11.7040    8.3010 C.3       1 GI2         0.1252
      7 C4B        -1.2340   10.5090    7.8680 C.3       1 GI2         0.1178
      8 C5B        -2.4210   10.3920    8.8390 C.3       1 GI2         0.1169
      9 C6B        -3.4050    9.3070    8.4490 C.3       1 GI2         0.0768
     10 O2B         0.5560   12.7200   10.2880 O.3       1 GI2        -0.3700
     11 O3B         0.7340   11.9810    7.4100 O.3       1 GI2        -0.3839
     12 O4B        -1.7040   10.6370    6.5310 O.3       1 GI2        -0.3858
     13 N1B        -1.8940   10.1120   10.1860 N.pl3     1 GI2        -0.2488
     14 O6B        -2.8380    8.0000    8.5580 O.3       1 GI2        -0.3919
     15 N2B        -0.4590   10.1820   11.8220 N.2       1 GI2        -0.3291
     16 C7B        -1.4940    9.4490   12.2250 C.2       1 GI2         0.0005
     17 C8B        -2.3720    9.3950   11.2170 C.2       1 GI2         0.0263
     18 O1         -0.2830    7.3260   15.0490 O.3       1 GI2        -0.2792
     19 O5          0.0810    7.3100   12.8320 O.2       1 GI2        -0.3685
     20 H1         -1.4849    9.6047   14.3691 H         1 GI2         0.0620
     21 H2         -2.5994    8.3587   13.7118 H         1 GI2         0.0620
     22 H3          0.6232    5.7965   16.1518 H         1 GI2         0.0577
     23 H4          1.4297    6.2111   14.6013 H         1 GI2         0.0577
     24 H5         -0.1131    5.2912   14.5932 H         1 GI2         0.0577
     25 H6          1.2204   10.9128    9.5523 H         1 GI2         0.0858
     26 H7         -0.9797   12.5953    8.3510 H         1 GI2         0.0675
     27 H8         -0.6349    9.5886    7.9312 H         1 GI2         0.0654
     28 H9         -2.9556   11.3533    8.8524 H         1 GI2         0.0699
     29 H10        -3.7191    9.4712    7.4077 H         1 GI2         0.0589
     30 H11        -4.2816    9.3692    9.1106 H         1 GI2         0.0589
     31 H12        -0.2505   13.2143   10.3763 H         1 GI2         0.2138
     32 H13         0.3844   12.1907    6.5520 H         1 GI2         0.2103
     33 H14        -2.2189    9.8720    6.3029 H         1 GI2         0.2100
     34 H15        -2.0832    7.9347    7.9848 H         1 GI2         0.2095
     35 H16        -3.3192    8.8578   11.2300 H         1 GI2         0.0671
@<TRIPOS>BOND
     1    1    2 1  
     2   16    1 1  
     3    2   18 1  
     4    2   19 2  
     5   18    3 1  
     6    4    5 1  
     7    4   13 1  
     8   15    4 2  
     9    5    6 1  
    10    5   10 1  
    11    6    7 1  
    12    6   11 1  
    13    8    7 1  
    14    7   12 1  
    15    8    9 1  
    16   13    8 1  
    17    9   14 1  
    18   13   17 1  
    19   15   16 1  
    20   16   17 2  
    21    1   20 1  
    22    1   21 1  
    23    3   22 1  
    24    3   23 1  
    25    3   24 1  
    26    5   25 1  
    27    6   26 1  
    28    7   27 1  
    29    8   28 1  
    30    9   29 1  
    31    9   30 1  
    32   10   31 1  
    33   11   32 1  
    34   12   33 1  
    35   14   34 1  
    36   17   35 1  
@<TRIPOS>SUBSTRUCTURE
     1 GI2         1

