### 
### Created by X-TOOL on Mon Sep 10 21:12:54 2018
### 

@<TRIPOS>MOLECULE
2j7f_ligand
   28    29     1     0     0
SMALL
GAST_HUCK


@<TRIPOS>ATOM
      1 C1         34.1380   24.1570   38.7180 C.2       1 GI3         0.1500
      2 C2         35.0250   23.1910   38.0220 C.3       1 GI3         0.1593
      3 O2         36.2280   23.0440   38.8040 O.3       1 GI3        -0.3698
      4 C3         35.3170   23.7160   36.6100 C.3       1 GI3         0.1255
      5 C80        32.9540   25.9430   39.1670 C.2       1 GI3         0.0478
      6 O3         35.6440   22.5790   35.8160 O.3       1 GI3        -0.3839
      7 C4         34.1310   24.6110   36.1080 C.3       1 GI3         0.1186
      8 N10        33.7460   25.3550   38.2580 N.pl3     1 GI3        -0.2338
      9 O4         34.0640   24.9460   34.7060 O.3       1 GI3        -0.3857
     10 C5         34.1140   25.8840   36.9380 C.3       1 GI3         0.1213
     11 C6         33.0860   26.9090   36.4980 C.3       1 GI3         0.0775
     12 O6         31.7510   26.4240   36.6590 O.3       1 GI3        -0.3918
     13 N1         33.5970   23.9810   39.9400 N.2       1 GI3        -0.3222
     14 C7         32.8710   25.0760   40.2380 C.2       1 GI3         0.0370
     15 C8         32.1390   25.3010   41.4940 C.2       1 GI3         0.0483
     16 O8         31.1390   25.9920   41.5040 O.co2     1 GI3        -0.5687
     17 O9         32.6270   24.7710   42.5960 O.co2     1 GI3        -0.5687
     18 H1         34.5240   22.2148   37.9443 H         1 GI3         0.0860
     19 H2         36.6586   23.8872   38.8821 H         1 GI3         0.2139
     20 H3         36.2076   24.3605   36.6477 H         1 GI3         0.0675
     21 H4         32.4707   26.9148   39.0775 H         1 GI3         0.0881
     22 H5         35.8335   22.8582   34.9279 H         1 GI3         0.2103
     23 H6         33.2104   24.0505   36.3278 H         1 GI3         0.0654
     24 H7         33.3003   25.4882   34.5473 H         1 GI3         0.2100
     25 H8         35.1084   26.3541   36.9495 H         1 GI3         0.0707
     26 H9         33.2526   27.1479   35.4373 H         1 GI3         0.0589
     27 H10        33.2095   27.8195   37.1027 H         1 GI3         0.0589
     28 H11        31.6348   25.6401   36.1352 H         1 GI3         0.2095
@<TRIPOS>BOND
     1    1    2 1  
     2    1    8 1  
     3    1   13 2  
     4    2    3 1  
     5    2    4 1  
     6    4    6 1  
     7    4    7 1  
     8    8    5 1  
     9    5   14 2  
    10    7    9 1  
    11    7   10 1  
    12    8   10 1  
    13   10   11 1  
    14   11   12 1  
    15   13   14 1  
    16   14   15 1  
    17   15   16 ar 
    18   15   17 ar 
    19    2   18 1  
    20    3   19 1  
    21    4   20 1  
    22    5   21 1  
    23    6   22 1  
    24    7   23 1  
    25    9   24 1  
    26   10   25 1  
    27   11   26 1  
    28   11   27 1  
    29   12   28 1  
@<TRIPOS>SUBSTRUCTURE
     1 GI3         1

