### 
### Created by X-TOOL on Mon Sep 10 21:12:54 2018
### 

@<TRIPOS>MOLECULE
2j7g_ligand
   31    32     1     0     0
SMALL
GAST_HUCK


@<TRIPOS>ATOM
      1 C1         -2.0290    9.3280   13.8130 C.3       1 GI4         0.0241
      2 C1B        -0.9850   10.7530   10.6690 C.2       1 GI4         0.1429
      3 C2B         0.0050   11.5230    9.7990 C.3       1 GI4         0.1578
      4 C3B        -0.5790   11.7990    8.4110 C.3       1 GI4         0.1252
      5 C4B        -1.3710   10.5560    7.9290 C.3       1 GI4         0.1178
      6 C5B        -2.6280   10.3660    8.8320 C.3       1 GI4         0.1169
      7 C6B        -3.5440    9.2260    8.4010 C.3       1 GI4         0.0768
      8 O2B         0.3680   12.7580   10.4240 O.3       1 GI4        -0.3700
      9 O3B         0.5410   12.0790    7.5940 O.3       1 GI4        -0.3839
     10 O4B        -1.8180   10.7610    6.6050 O.3       1 GI4        -0.3858
     11 N1B        -2.2060   10.1920   10.2360 N.pl3     1 GI4        -0.2491
     12 O6B        -2.9030    7.9790    8.6380 O.3       1 GI4        -0.3919
     13 N2B        -0.8660   10.4410   11.9350 N.2       1 GI4        -0.3299
     14 C7B        -1.9140    9.7170   12.3320 C.2       1 GI4        -0.0068
     15 C8B        -2.7480    9.5700   11.2990 C.2       1 GI4         0.0253
     16 C2         -1.4910    7.9810   14.2360 C.2       1 GI4         0.0418
     17 O1         -0.3590    7.6630   13.8490 O.co2     1 GI4        -0.5672
     18 O5         -2.2270    7.3170   14.9960 O.co2     1 GI4        -0.5672
     19 H1         -3.0970    9.3507   14.0753 H         1 GI4         0.0533
     20 H2         -1.4922   10.0919   14.3946 H         1 GI4         0.0533
     21 H3          0.9108   10.9102    9.6807 H         1 GI4         0.0858
     22 H4         -1.2525   12.6683    8.4383 H         1 GI4         0.0675
     23 H5         -0.7300    9.6634    7.9777 H         1 GI4         0.0654
     24 H6         -3.2170   11.2928    8.7682 H         1 GI4         0.0699
     25 H7         -3.7688    9.3233    7.3286 H         1 GI4         0.0589
     26 H8         -4.4798    9.2712    8.9774 H         1 GI4         0.0589
     27 H9         -0.4027   13.3069   10.5095 H         1 GI4         0.2138
     28 H10         0.2497   12.2442    6.7049 H         1 GI4         0.2103
     29 H11        -2.3181   10.0051    6.3202 H         1 GI4         0.2100
     30 H12        -2.0951    7.9397    8.1396 H         1 GI4         0.2095
     31 H13        -3.6992    9.0400   11.3144 H         1 GI4         0.0668
@<TRIPOS>BOND
     1   14    1 1  
     2    1   16 1  
     3    2    3 1  
     4    2   11 1  
     5   13    2 2  
     6    3    4 1  
     7    3    8 1  
     8    4    5 1  
     9    4    9 1  
    10    6    5 1  
    11    5   10 1  
    12    6    7 1  
    13   11    6 1  
    14    7   12 1  
    15   11   15 1  
    16   13   14 1  
    17   14   15 2  
    18   16   17 ar 
    19   16   18 ar 
    20    1   19 1  
    21    1   20 1  
    22    3   21 1  
    23    4   22 1  
    24    5   23 1  
    25    6   24 1  
    26    7   25 1  
    27    7   26 1  
    28    8   27 1  
    29    9   28 1  
    30   10   29 1  
    31   12   30 1  
    32   15   31 1  
@<TRIPOS>SUBSTRUCTURE
     1 GI4         1

