### 
### Created by X-TOOL on Mon Sep 10 21:12:54 2018
### 

@<TRIPOS>MOLECULE
2j7h_ligand
   24    24     1     0     0
SMALL
GAST_HUCK


@<TRIPOS>ATOM
      1 O4         -1.6300   10.6580    6.7330 O.3       1 AZF        -0.3833
      2 C4         -1.1360   10.6320    8.0810 C.3       1 AZF         0.1318
      3 C3         -0.3170   11.9080    8.4230 C.3       1 AZF         0.1272
      4 O3          0.8150   12.0560    7.5660 O.3       1 AZF        -0.3837
      5 C2          0.1820   11.9810    9.8740 C.3       1 AZF         0.0220
      6 N          -0.8370   11.4630   10.8000 N.4       1 AZF         0.3216
      7 C5         -2.3020   10.5360    9.0620 C.3       1 AZF         0.0564
      8 C6         -3.2410    9.3710    8.7770 C.3       1 AZF         0.0908
      9 O6         -2.5130    8.1500    8.9590 O.3       1 AZF        -0.3893
     10 N2         -1.6760   10.4190   10.3790 N.4       1 AZF         0.3247
     11 H1         -2.1235    9.8643    6.5624 H         1 AZF         0.2102
     12 H2         -0.4884    9.7508    8.1994 H         1 AZF         0.0679
     13 H3         -0.9848   12.7666    8.2589 H         1 AZF         0.0675
     14 H4          0.5220   12.1213    6.6647 H         1 AZF         0.2101
     15 H5          0.4020   13.0284   10.1281 H         1 AZF         0.0855
     16 H6          1.0979   11.3798    9.9717 H         1 AZF         0.0855
     17 H7         -1.4322   12.2381   11.0468 H         1 AZF         0.2326
     18 H8         -0.3511   11.1377   11.6210 H         1 AZF         0.2326
     19 H9         -2.8914   11.4636    9.0155 H         1 AZF         0.0915
     20 H10        -3.6082    9.4341    7.7420 H         1 AZF         0.0615
     21 H11        -4.0937    9.4024    9.4712 H         1 AZF         0.0615
     22 H12        -1.7765    8.1293    8.3592 H         1 AZF         0.2097
     23 H13        -2.4167   10.3363   11.0576 H         1 AZF         0.2330
     24 H14        -1.1265    9.5740   10.3766 H         1 AZF         0.2330
@<TRIPOS>BOND
     1    1    2 1  
     2    2    3 1  
     3    2    7 1  
     4    3    4 1  
     5    3    5 1  
     6    5    6 1  
     7    6   10 1  
     8    7    8 1  
     9    7   10 1  
    10    8    9 1  
    11    1   11 1  
    12    2   12 1  
    13    3   13 1  
    14    4   14 1  
    15    5   15 1  
    16    5   16 1  
    17    6   17 1  
    18    6   18 1  
    19    7   19 1  
    20    8   20 1  
    21    8   21 1  
    22    9   22 1  
    23   10   23 1  
    24   10   24 1  
@<TRIPOS>SUBSTRUCTURE
     1 AZF         1

