### 
### Created by X-TOOL on Mon Sep 10 21:12:54 2018
### 

@<TRIPOS>MOLECULE
2j7x_ligand
   44    47     1     0     0
SMALL
GAST_HUCK


@<TRIPOS>ATOM
      1 C1         50.3610   31.3800   79.3660 C.ar      1 EST        -0.0749
      2 C2         51.0470   32.3200   80.1530 C.ar      1 EST        -0.0468
      3 C3         51.6670   33.4430   79.5740 C.ar      1 EST         0.0739
      4 O3         52.3070   34.3290   80.3980 O.3       1 EST        -0.3393
      5 C4         51.6170   33.6210   78.1890 C.ar      1 EST        -0.0385
      6 C5         50.9550   32.6910   77.3540 C.ar      1 EST        -0.0491
      7 C6         50.9070   32.8990   75.8520 C.3       1 EST        -0.0236
      8 C7         50.5480   31.6030   75.1140 C.3       1 EST        -0.0396
      9 C8         49.2480   31.0270   75.6980 C.3       1 EST        -0.0259
     10 C9         49.5470   30.4930   77.1110 C.3       1 EST        -0.0116
     11 C10        50.2650   31.5150   77.9730 C.ar      1 EST        -0.0484
     12 C11        48.2330   29.9840   77.7130 C.3       1 EST        -0.0421
     13 C12        47.6230   28.8520   76.8540 C.3       1 EST        -0.0433
     14 C13        47.3450   29.3400   75.4350 C.3       1 EST        -0.0028
     15 C14        48.6650   29.8620   74.8790 C.3       1 EST        -0.0285
     16 C15        48.3690   30.0280   73.3980 C.3       1 EST        -0.0469
     17 C16        47.4060   28.8730   73.0710 C.3       1 EST        -0.0261
     18 C17        46.9670   28.2630   74.4140 C.3       1 EST         0.0609
     19 O17        45.5580   27.9440   74.4380 O.3       1 EST        -0.3912
     20 C18        46.2600   30.4400   75.4350 C.3       1 EST        -0.0569
     21 H1         49.8939   30.5285   79.8475 H         1 EST         0.0511
     22 H2         51.0998   32.1777   81.2263 H         1 EST         0.0468
     23 H3         51.6850   34.6869   81.0204 H         1 EST         0.2457
     24 H4         52.0943   34.4878   77.7464 H         1 EST         0.0462
     25 H5         51.8929   33.2445   75.5077 H         1 EST         0.0410
     26 H6         50.1497   33.6627   75.6213 H         1 EST         0.0410
     27 H7         51.3612   30.8727   75.2378 H         1 EST         0.0290
     28 H8         50.4068   31.8167   74.0443 H         1 EST         0.0290
     29 H9         48.5000   31.8317   75.7522 H         1 EST         0.0326
     30 H10        50.2230   29.6310   77.0113 H         1 EST         0.0429
     31 H11        47.5173   30.8175   77.7679 H         1 EST         0.0286
     32 H12        48.4275   29.6004   78.7254 H         1 EST         0.0286
     33 H13        46.6800   28.5193   77.3124 H         1 EST         0.0273
     34 H14        48.3287   28.0091   76.8139 H         1 EST         0.0273
     35 H15        49.4133   29.0600   74.9620 H         1 EST         0.0311
     36 H16        49.2916   29.9459   72.8046 H         1 EST         0.0269
     37 H17        47.8924   30.9999   73.2024 H         1 EST         0.0269
     38 H18        47.9183   28.1147   72.4606 H         1 EST         0.0290
     39 H19        46.5306   29.2536   72.5243 H         1 EST         0.0290
     40 H20        47.5328   27.3408   74.6127 H         1 EST         0.0599
     41 H21        45.3650   27.3156   73.7521 H         1 EST         0.2098
     42 H22        46.5258   31.2171   76.1668 H         1 EST         0.0236
     43 H23        45.2897   29.9980   75.7056 H         1 EST         0.0236
     44 H24        46.1921   30.8881   74.4327 H         1 EST         0.0236
@<TRIPOS>BOND
     1    1    2 ar 
     2    1   11 ar 
     3    2    3 ar 
     4    3    4 1  
     5    3    5 ar 
     6    5    6 ar 
     7    6    7 1  
     8    6   11 ar 
     9    7    8 1  
    10    8    9 1  
    11    9   10 1  
    12    9   15 1  
    13   10   11 1  
    14   10   12 1  
    15   12   13 1  
    16   13   14 1  
    17   14   15 1  
    18   14   18 1  
    19   14   20 1  
    20   15   16 1  
    21   16   17 1  
    22   17   18 1  
    23   18   19 1  
    24    1   21 1  
    25    2   22 1  
    26    4   23 1  
    27    5   24 1  
    28    7   25 1  
    29    7   26 1  
    30    8   27 1  
    31    8   28 1  
    32    9   29 1  
    33   10   30 1  
    34   12   31 1  
    35   12   32 1  
    36   13   33 1  
    37   13   34 1  
    38   15   35 1  
    39   16   36 1  
    40   16   37 1  
    41   17   38 1  
    42   17   39 1  
    43   18   40 1  
    44   19   41 1  
    45   20   42 1  
    46   20   43 1  
    47   20   44 1  
@<TRIPOS>SUBSTRUCTURE
     1 EST         1

