### 
### Created by X-TOOL on Mon Sep 10 21:12:53 2018
### 

@<TRIPOS>MOLECULE
2j83_ligand
   63    64     1     0     0
SMALL
GAST_HUCK


@<TRIPOS>ATOM
      1 C1         25.7170   48.9420   99.0180 C.3       1 BAT         0.0811
      2 C2         24.9690   47.6350   99.2020 C.2       1 BAT         0.2054
      3 C3         27.1960   48.6780   98.6970 C.3       1 BAT         0.0313
      4 C4         29.4320   47.2100   99.3910 C.2       1 BAT         0.0710
      5 C5         30.6700   47.7160   99.7270 C.2       1 BAT        -0.0710
      6 C6         31.6250   46.9970   99.0330 C.2       1 BAT        -0.0923
      7 C7         31.0940   46.0040   98.2180 C.2       1 BAT        -0.0187
      8 C8         25.0010   49.8430   97.9940 C.3       1 BAT         0.0694
      9 C9         23.5370   50.0930   98.3930 C.3       1 BAT        -0.0285
     10 C10        22.6700   50.6100   97.2500 C.3       1 BAT        -0.0442
     11 C11        22.6350   52.1330   97.2330 C.3       1 BAT        -0.0625
     12 C12        21.2470   50.0750   97.3190 C.3       1 BAT        -0.0625
     13 C13        25.7030   51.1740   97.8650 C.2       1 BAT         0.1840
     14 C14        27.0760   52.6360   96.4240 C.3       1 BAT         0.1402
     15 C15        26.3740   53.9710   96.3550 C.2       1 BAT         0.2035
     16 C16        26.8040   56.3670   96.7760 C.3       1 BAT         0.0196
     17 C17        27.9710   52.4180   95.1970 C.3       1 BAT         0.0214
     18 C18        28.9160   51.2690   95.4920 C.ar      1 BAT        -0.0386
     19 C19        30.0460   51.4740   96.2880 C.ar      1 BAT        -0.0601
     20 C20        30.9100   50.4170   96.5760 C.ar      1 BAT        -0.0686
     21 C21        30.6390   49.1460   96.0680 C.ar      1 BAT        -0.0687
     22 C22        29.5120   48.9330   95.2690 C.ar      1 BAT        -0.0686
     23 C23        28.6530   50.0000   94.9850 C.ar      1 BAT        -0.0601
     24 N1         24.3680   47.4860  100.3700 N.am      1 BAT        -0.1639
     25 N2         26.1770   51.4980   96.6530 N.am      1 BAT        -0.2635
     26 N3         26.9600   54.9510   97.0540 N.am      1 BAT        -0.2880
     27 O1         24.9120   46.7780   98.3290 O.2       1 BAT        -0.3965
     28 O2         23.7010   46.2970  100.6560 O.3       1 BAT        -0.2717
     29 O3         25.7880   51.9040   98.8450 O.2       1 BAT        -0.3965
     30 O4         25.3450   54.1150   95.7130 O.2       1 BAT        -0.3944
     31 S1         27.9600   47.8540  100.0630 S.3       1 BAT        -0.0833
     32 S2         29.3420   45.8920   98.2710 S.3       1 BAT        -0.0328
     33 H1         25.6914   49.4744   99.9802 H         1 BAT         0.0575
     34 H2         27.7075   49.6344   98.5136 H         1 BAT         0.0434
     35 H3         27.2690   48.0452   97.8002 H         1 BAT         0.0434
     36 H4         30.8614   48.5366  100.4168 H         1 BAT         0.0285
     37 H5         32.6934   47.1904   99.1169 H         1 BAT         0.0371
     38 H6         31.7105   45.3524   97.6005 H         1 BAT         0.0598
     39 H7         25.0187   49.3369   97.0175 H         1 BAT         0.0566
     40 H8         23.5201   50.8351   99.2048 H         1 BAT         0.0296
     41 H9         23.1085   49.1460   98.7529 H         1 BAT         0.0296
     42 H10        23.1188   50.2646   96.3070 H         1 BAT         0.0297
     43 H11        22.0037   52.4759   96.4000 H         1 BAT         0.0232
     44 H12        23.6558   52.5218   97.1036 H         1 BAT         0.0232
     45 H13        22.2202   52.5009   98.1830 H         1 BAT         0.0232
     46 H14        21.2690   48.9753   97.3314 H         1 BAT         0.0232
     47 H15        20.6823   50.4205   96.4405 H         1 BAT         0.0232
     48 H16        20.7611   50.4424   98.2349 H         1 BAT         0.0232
     49 H17        27.7418   52.6816   97.2984 H         1 BAT         0.0823
     50 H18        27.3925   56.9498   97.4999 H         1 BAT         0.0484
     51 H19        25.7424   56.6424   96.8602 H         1 BAT         0.0484
     52 H20        27.1590   56.5820   95.7573 H         1 BAT         0.0484
     53 H21        28.5491   53.3311   94.9918 H         1 BAT         0.0474
     54 H22        27.3499   52.1730   94.3228 H         1 BAT         0.0474
     55 H23        30.2528   52.4614   96.6846 H         1 BAT         0.0557
     56 H24        31.7871   50.5823   97.1911 H         1 BAT         0.0599
     57 H25        31.3048   48.3209   96.2938 H         1 BAT         0.0559
     58 H26        29.3047   47.9461   94.8715 H         1 BAT         0.0599
     59 H27        27.7777   49.8374   94.3666 H         1 BAT         0.0557
     60 H28        24.3921   48.2234  101.0450 H         1 BAT         0.2216
     61 H29        25.9057   50.9390   95.8695 H         1 BAT         0.1884
     62 H30        27.5459   54.6892   97.8209 H         1 BAT         0.1848
     63 H31        23.3256   46.3475  101.5272 H         1 BAT         0.2490
@<TRIPOS>BOND
     1    1    2 1  
     2    1    3 1  
     3    8    1 1  
     4    2   24 am 
     5    2   27 2  
     6    3   31 1  
     7    4    5 2  
     8   31    4 1  
     9    4   32 1  
    10    5    6 1  
    11    7    6 2  
    12   32    7 1  
    13    8    9 1  
    14   13    8 1  
    15    9   10 1  
    16   10   11 1  
    17   10   12 1  
    18   25   13 am 
    19   13   29 2  
    20   14   15 1  
    21   14   17 1  
    22   14   25 1  
    23   15   26 am 
    24   15   30 2  
    25   26   16 1  
    26   17   18 1  
    27   18   19 ar 
    28   18   23 ar 
    29   19   20 ar 
    30   20   21 ar 
    31   21   22 ar 
    32   22   23 ar 
    33   24   28 1  
    34    1   33 1  
    35    3   34 1  
    36    3   35 1  
    37    5   36 1  
    38    6   37 1  
    39    7   38 1  
    40    8   39 1  
    41    9   40 1  
    42    9   41 1  
    43   10   42 1  
    44   11   43 1  
    45   11   44 1  
    46   11   45 1  
    47   12   46 1  
    48   12   47 1  
    49   12   48 1  
    50   14   49 1  
    51   16   50 1  
    52   16   51 1  
    53   16   52 1  
    54   17   53 1  
    55   17   54 1  
    56   19   55 1  
    57   20   56 1  
    58   21   57 1  
    59   22   58 1  
    60   23   59 1  
    61   24   60 1  
    62   25   61 1  
    63   26   62 1  
    64   28   63 1  
@<TRIPOS>SUBSTRUCTURE
     1 BAT         1

