### 
### Created by X-TOOL on Mon Sep 10 21:12:55 2018
### 

@<TRIPOS>MOLECULE
2j94_ligand
   52    55     1     0     0
SMALL
GAST_HUCK


@<TRIPOS>ATOM
      1 O26         6.2560    4.6970   17.7970 O.2       1 G15        -0.3943
      2 C23         7.0120    3.9640   18.4280 C.2       1 G15         0.2042
      3 N25         7.8080    3.0650   17.7800 N.am      1 G15        -0.2669
      4 C27         7.6500    2.9310   16.3220 C.3       1 G15         0.0574
      5 C29         9.0120    3.0320   15.6360 C.3       1 G15         0.0681
      6 O31         9.8690    2.0580   16.2330 O.3       1 G15        -0.3758
      7 C30        10.1440    2.3450   17.6000 C.3       1 G15         0.0681
      8 C28         8.8350    2.2120   18.3790 C.3       1 G15         0.0574
      9 C22         7.0670    4.0890   19.9570 C.3       1 G15         0.1310
     10 C24         6.5420    2.8280   20.6620 C.3       1 G15        -0.0242
     11 N19         6.3940    5.2930   20.4710 N.am      1 G15        -0.2502
     12 C21         4.9660    5.4720   20.7060 C.3       1 G15         0.0405
     13 C18         4.8340    6.9920   20.5490 C.3       1 G15         0.0047
     14 C17         7.1060    6.3800   20.7780 C.2       1 G15         0.2026
     15 O20         8.3090    6.3840   20.6960 O.2       1 G15        -0.3946
     16 C16         6.1390    7.4760   21.1950 C.3       1 G15         0.1289
     17 N13         6.4430    8.8810   20.9380 N.am      1 G15        -0.2192
     18 S11         6.3560    9.9130   22.2060 S.o2      1 G15         0.1184
     19 O14         4.9730   10.0270   22.5760 O.2       1 G15        -0.1429
     20 O15         7.1240   11.0420   21.7880 O.2       1 G15        -0.1429
     21 C7          7.1410    9.2320   23.5930 C.2       1 G15         0.2938
     22 N2          6.4670    8.6010   24.5220 N.2       1 G15        -0.2317
     23 N3          7.3290    8.1310   25.4580 N.2       1 G15        -0.2564
     24 N1          8.4700    9.1720   23.7720 N.pl3     1 G15        -0.2099
     25 C1          8.5910    8.5160   24.9860 C.2       1 G15         0.1615
     26 C2          9.8910    8.1930   25.6470 C.2       1 G15         0.0830
     27 C5          9.9140    7.6310   26.9240 C.2       1 G15        -0.0577
     28 C9         11.2550    7.3910   27.3180 C.2       1 G15        -0.0540
     29 C10        12.1390    7.7990   26.2950 C.2       1 G15         0.1006
     30 S6         11.4100    8.4400   24.9100 S.3       1 G15        -0.0181
     31 CL         13.8510    7.6210   26.3890 Cl        1 G15        -0.0509
     32 H1          6.9954    3.7336   15.9514 H         1 G15         0.0545
     33 H2          7.1986    1.9544   16.0929 H         1 G15         0.0545
     34 H3          9.4309    4.0389   15.7800 H         1 G15         0.0580
     35 H4          8.9061    2.8293   14.5600 H         1 G15         0.0580
     36 H5         10.5340    3.3690   17.6961 H         1 G15         0.0580
     37 H6         10.8854    1.6321   17.9901 H         1 G15         0.0580
     38 H7          8.4999    1.1646   18.3522 H         1 G15         0.0545
     39 H8          8.9995    2.5178   19.4227 H         1 G15         0.0545
     40 H9          8.1302    4.1846   20.2224 H         1 G15         0.0799
     41 H10         7.0583    1.9427   20.2624 H         1 G15         0.0277
     42 H11         5.4605    2.7325   20.4854 H         1 G15         0.0277
     43 H12         6.7316    2.9063   21.7427 H         1 G15         0.0277
     44 H13         4.6780    5.1433   21.7155 H         1 G15         0.0526
     45 H14         4.3629    4.9346   19.9594 H         1 G15         0.0526
     46 H15         3.9532    7.3770   21.0837 H         1 G15         0.0328
     47 H16         4.7766    7.2839   19.4900 H         1 G15         0.0328
     48 H17         6.0311    7.4102   22.2877 H         1 G15         0.0754
     49 H18         6.6942    9.2000   20.0241 H         1 G15         0.1710
     50 H19         9.2166    9.5267   23.1574 H         1 G15         0.2451
     51 H20         9.0347    7.4100   27.5272 H         1 G15         0.0496
     52 H21        11.5584    6.9562   28.2692 H         1 G15         0.0449
@<TRIPOS>BOND
     1    1    2 2  
     2    2    3 am 
     3    2    9 1  
     4    3    4 1  
     5    3    8 1  
     6    4    5 1  
     7    5    6 1  
     8    6    7 1  
     9    7    8 1  
    10    9   10 1  
    11    9   11 1  
    12   11   12 1  
    13   11   14 am 
    14   12   13 1  
    15   13   16 1  
    16   14   15 2  
    17   14   16 1  
    18   16   17 1  
    19   17   18 am 
    20   18   19 2  
    21   18   20 2  
    22   18   21 1  
    23   21   22 2  
    24   21   24 1  
    25   22   23 1  
    26   23   25 2  
    27   24   25 1  
    28   25   26 1  
    29   26   27 2  
    30   26   30 1  
    31   27   28 1  
    32   28   29 2  
    33   29   30 1  
    34   29   31 1  
    35    4   32 1  
    36    4   33 1  
    37    5   34 1  
    38    5   35 1  
    39    7   36 1  
    40    7   37 1  
    41    8   38 1  
    42    8   39 1  
    43    9   40 1  
    44   10   41 1  
    45   10   42 1  
    46   10   43 1  
    47   12   44 1  
    48   12   45 1  
    49   13   46 1  
    50   13   47 1  
    51   16   48 1  
    52   17   49 1  
    53   24   50 1  
    54   27   51 1  
    55   28   52 1  
@<TRIPOS>SUBSTRUCTURE
     1 G15         1

