### 
### Created by X-TOOL on Mon Sep 10 21:12:55 2018
### 

@<TRIPOS>MOLECULE
2j95_ligand
   53    56     1     0     0
SMALL
GAST_HUCK


@<TRIPOS>ATOM
      1 CL1        14.1050    7.5320   26.9890 Cl        1 GSX        -0.0580
      2 C1         12.4180    7.7660   26.7000 C.2       1 GSX         0.0925
      3 C2         11.3760    7.3800   27.5560 C.2       1 GSX        -0.0626
      4 C3         10.1060    7.6710   27.0020 C.2       1 GSX        -0.0694
      5 C4         10.1930    8.3030   25.7530 C.2       1 GSX         0.0406
      6 C9          9.0800    8.6980   24.8590 C.2       1 GSX         0.0429
      7 C8          9.2010    9.4640   23.6880 C.2       1 GSX        -0.0681
      8 C7          7.9870    9.6230   23.0020 C.2       1 GSX        -0.0492
      9 C6          6.9270    8.9390   23.6060 C.2       1 GSX         0.1610
     10 S1          5.2290    8.8720   23.0360 S.o2      1 GSX         0.0796
     11 O2          4.5230    8.3880   24.1970 O.2       1 GSX        -0.1495
     12 O1          4.8170   10.0990   22.4130 O.2       1 GSX        -0.1495
     13 N1          5.2710    7.7680   21.8600 N.am      1 GSX        -0.2248
     14 C12         5.4710    6.3750   22.2560 C.3       1 GSX         0.1285
     15 C13         4.2940    5.4580   21.9300 C.3       1 GSX         0.0047
     16 C14         4.9270    4.1000   21.6030 C.3       1 GSX         0.0405
     17 C15         6.6060    5.7240   21.4760 C.2       1 GSX         0.2026
     18 O3          7.6600    6.2900   21.2230 O.2       1 GSX        -0.3946
     19 N2          6.2760    4.4450   21.1530 N.am      1 GSX        -0.2502
     20 C16         7.2050    3.4960   20.4630 C.3       1 GSX         0.1310
     21 C17         7.2180    2.0470   21.0200 C.3       1 GSX        -0.0242
     22 C18         6.9850    3.4530   18.9410 C.2       1 GSX         0.2042
     23 O4          5.8970    3.8310   18.5190 O.2       1 GSX        -0.3943
     24 N3          8.0100    3.0420   18.1030 N.am      1 GSX        -0.2669
     25 C19         7.7440    3.0970   16.6480 C.3       1 GSX         0.0574
     26 C20         8.6830    2.2610   15.7710 C.3       1 GSX         0.0681
     27 O5         10.0010    2.2340   16.2850 O.3       1 GSX        -0.3758
     28 C22        10.0940    1.6970   17.5790 C.3       1 GSX         0.0681
     29 C23         9.3640    2.6190   18.5570 C.3       1 GSX         0.0574
     30 S3          7.4780    8.1250   25.0250 S.3       1 GSX        -0.0129
     31 S6         11.8210    8.4880   25.2650 S.3       1 GSX        -0.0298
     32 H1         11.5257    6.9132   28.5285 H         1 GSX         0.0432
     33 H2          9.1639    7.4303   27.4924 H         1 GSX         0.0420
     34 H3         10.1425    9.8917   23.3466 H         1 GSX         0.0420
     35 H4          7.8814   10.2164   22.0950 H         1 GSX         0.0441
     36 H5          5.1646    8.0260   20.8997 H         1 GSX         0.1706
     37 H6          5.6804    6.3513   23.3356 H         1 GSX         0.0754
     38 H7          3.7333    5.8414   21.0648 H         1 GSX         0.0328
     39 H8          3.6199    5.3720   22.7949 H         1 GSX         0.0328
     40 H9          4.3670    3.5878   20.8067 H         1 GSX         0.0526
     41 H10         4.9635    3.4590   22.4962 H         1 GSX         0.0526
     42 H11         8.2154    3.8984   20.6277 H         1 GSX         0.0799
     43 H12         7.9306    1.4389   20.4434 H         1 GSX         0.0277
     44 H13         6.2113    1.6120   20.9340 H         1 GSX         0.0277
     45 H14         7.5214    2.0632   22.0772 H         1 GSX         0.0277
     46 H15         7.8270    4.1462   16.3282 H         1 GSX         0.0545
     47 H16         6.7168    2.7420   16.4781 H         1 GSX         0.0545
     48 H17         8.7045    2.6938   14.7600 H         1 GSX         0.0580
     49 H18         8.2998    1.2311   15.7209 H         1 GSX         0.0580
     50 H19        11.1520    1.6159   17.8691 H         1 GSX         0.0580
     51 H20         9.6311    0.6993   17.5980 H         1 GSX         0.0580
     52 H21         9.2567    2.0897   19.5153 H         1 GSX         0.0545
     53 H22         9.9763    3.5211   18.7029 H         1 GSX         0.0545
@<TRIPOS>BOND
     1    1    2 1  
     2    2    3 2  
     3    2   31 1  
     4    3    4 1  
     5    4    5 2  
     6    5    6 1  
     7    5   31 1  
     8    6    7 2  
     9    6   30 1  
    10    7    8 1  
    11    8    9 2  
    12    9   10 1  
    13    9   30 1  
    14   10   11 2  
    15   10   12 2  
    16   10   13 am 
    17   13   14 1  
    18   14   15 1  
    19   14   17 1  
    20   15   16 1  
    21   16   19 1  
    22   17   18 2  
    23   17   19 am 
    24   19   20 1  
    25   20   21 1  
    26   20   22 1  
    27   22   23 2  
    28   22   24 am 
    29   24   25 1  
    30   24   29 1  
    31   25   26 1  
    32   26   27 1  
    33   27   28 1  
    34   28   29 1  
    35    3   32 1  
    36    4   33 1  
    37    7   34 1  
    38    8   35 1  
    39   13   36 1  
    40   14   37 1  
    41   15   38 1  
    42   15   39 1  
    43   16   40 1  
    44   16   41 1  
    45   20   42 1  
    46   21   43 1  
    47   21   44 1  
    48   21   45 1  
    49   25   46 1  
    50   25   47 1  
    51   26   48 1  
    52   26   49 1  
    53   28   50 1  
    54   28   51 1  
    55   29   52 1  
    56   29   53 1  
@<TRIPOS>SUBSTRUCTURE
     1 GSX         1

