### 
### Created by X-TOOL on Mon Sep 10 21:12:55 2018
### 

@<TRIPOS>MOLECULE
2j9h_ligand
   54    53     1     0     0
SMALL
GAST_HUCK


@<TRIPOS>ATOM
      1 N1         15.4020   -2.9120   11.8320 N.4       1 GTX         0.2328
      2 CA1        14.0070   -3.2720   11.6950 C.3       1 GTX         0.0304
      3 C1         13.8050   -4.7360   11.9700 C.2       1 GTX         0.0846
      4 O11        14.5550   -5.5910   11.4960 O.co2     1 GTX        -0.5643
      5 O12        12.8710   -5.1470   12.6730 O.co2     1 GTX        -0.5643
      6 CB1        13.5060   -2.8510   10.3140 C.3       1 GTX         0.0193
      7 CG1        12.0560   -3.2470   10.0980 C.3       1 GTX         0.0441
      8 CD1        11.5730   -2.6320    8.8230 C.2       1 GTX         0.1785
      9 OE1        12.5020   -2.1440    7.8940 O.2       1 GTX        -0.3969
     10 N2         10.2550   -2.5590    8.6110 N.am      1 GTX        -0.2648
     11 CA2         9.7590   -1.7860    7.4850 C.3       1 GTX         0.1397
     12 C2          8.4790   -1.0540    7.7370 C.2       1 GTX         0.2040
     13 O2          7.6750   -1.4000    8.8450 O.2       1 GTX        -0.3944
     14 CB2         9.6150   -2.6610    6.2600 C.3       1 GTX         0.0341
     15 SG2         8.3810   -3.9580    6.5170 S.3       1 GTX        -0.1560
     16 C1S         8.4130   -4.0510    4.7150 C.3       1 GTX        -0.0061
     17 C2S         7.8410   -5.3370    4.1480 C.3       1 GTX        -0.0440
     18 C3S         6.3430   -5.1760    3.9750 C.3       1 GTX        -0.0523
     19 C4S         6.0050   -4.5820    2.6160 C.3       1 GTX        -0.0533
     20 C5S         4.5690   -4.9420    2.2400 C.3       1 GTX        -0.0559
     21 C6S         4.0450   -3.9610    1.2020 C.3       1 GTX        -0.0653
     22 N3          8.1900   -0.1050    6.8390 N.am      1 GTX        -0.2722
     23 CA3         7.0410    0.7780    6.9380 C.3       1 GTX         0.0833
     24 C3          7.3970    2.2350    7.2090 C.2       1 GTX         0.0570
     25 O31         6.5180    3.1020    6.9980 O.co2     1 GTX        -0.5669
     26 O32         8.5350    2.5990    7.6330 O.co2     1 GTX        -0.5669
     27 H1         15.5151   -1.9282   11.6438 H         1 GTX         0.2010
     28 H2         15.9524   -3.4449   11.1769 H         1 GTX         0.2010
     29 H3         15.7100   -3.1121   12.7707 H         1 GTX         0.2010
     30 H4         13.4317   -2.7113   12.4464 H         1 GTX         0.1026
     31 H5         14.1263   -3.3367    9.5464 H         1 GTX         0.0363
     32 H6         13.5950   -1.7586   10.2202 H         1 GTX         0.0363
     33 H7         11.4448   -2.8848   10.9378 H         1 GTX         0.0505
     34 H8         11.9776   -4.3423   10.0330 H         1 GTX         0.0505
     35 H9          9.6178   -3.0309    9.2203 H         1 GTX         0.1883
     36 H10        10.5224   -1.0254    7.2642 H         1 GTX         0.0808
     37 H11        10.5854   -3.1292    6.0385 H         1 GTX         0.0424
     38 H12         9.3061   -2.0368    5.4086 H         1 GTX         0.0424
     39 H13         9.4582   -3.9628    4.3836 H         1 GTX         0.0376
     40 H14         7.8294   -3.2084    4.3157 H         1 GTX         0.0376
     41 H15         8.0453   -6.1680    4.8392 H         1 GTX         0.0273
     42 H16         8.3043   -5.5486    3.1730 H         1 GTX         0.0273
     43 H17         5.9607   -4.5098    4.7624 H         1 GTX         0.0266
     44 H18         5.8638   -6.1621    4.0644 H         1 GTX         0.0266
     45 H19         6.6934   -4.9857    1.8590 H         1 GTX         0.0265
     46 H20         6.1083   -3.4877    2.6592 H         1 GTX         0.0265
     47 H21         3.9346   -4.8970    3.1375 H         1 GTX         0.0263
     48 H22         4.5449   -5.9602    1.8246 H         1 GTX         0.0263
     49 H23         3.0111   -4.2261    0.9361 H         1 GTX         0.0230
     50 H24         4.6776   -4.0054    0.3032 H         1 GTX         0.0230
     51 H25         4.0673   -2.9422    1.6162 H         1 GTX         0.0230
     52 H26         8.8005    0.0025    6.0543 H         1 GTX         0.1873
     53 H27         6.4005    0.4208    7.7578 H         1 GTX         0.0689
     54 H28         6.4850    0.7289    5.9902 H         1 GTX         0.0689
@<TRIPOS>BOND
     1    1    2 1  
     2    2    3 1  
     3    2    6 1  
     4    3    4 ar 
     5    3    5 ar 
     6    6    7 1  
     7    7    8 1  
     8    8    9 2  
     9    8   10 am 
    10   10   11 1  
    11   11   12 1  
    12   11   14 1  
    13   12   13 2  
    14   12   22 am 
    15   14   15 1  
    16   15   16 1  
    17   16   17 1  
    18   17   18 1  
    19   18   19 1  
    20   19   20 1  
    21   20   21 1  
    22   22   23 1  
    23   23   24 1  
    24   24   25 ar 
    25   24   26 ar 
    26    1   27 1  
    27    1   28 1  
    28    1   29 1  
    29    2   30 1  
    30    6   31 1  
    31    6   32 1  
    32    7   33 1  
    33    7   34 1  
    34   10   35 1  
    35   11   36 1  
    36   14   37 1  
    37   14   38 1  
    38   16   39 1  
    39   16   40 1  
    40   17   41 1  
    41   17   42 1  
    42   18   43 1  
    43   18   44 1  
    44   19   45 1  
    45   19   46 1  
    46   20   47 1  
    47   20   48 1  
    48   21   49 1  
    49   21   50 1  
    50   21   51 1  
    51   22   52 1  
    52   23   53 1  
    53   23   54 1  
@<TRIPOS>SUBSTRUCTURE
     1 GTX         1

