### 
### Created by X-TOOL on Mon Sep 10 21:12:55 2018
### 

@<TRIPOS>MOLECULE
2j9n_ligand
   18    18     1     0     0
SMALL
GAST_HUCK


@<TRIPOS>ATOM
      1 C1         28.6820   43.7880   16.0130 C.ar      1 BEN         0.0260
      2 C2         28.4050   44.3650   17.2430 C.ar      1 BEN        -0.0565
      3 C3         28.0380   43.6080   18.3440 C.ar      1 BEN        -0.0618
      4 C4         27.9890   42.2340   18.2400 C.ar      1 BEN        -0.0618
      5 C5         28.2580   41.6420   17.0210 C.ar      1 BEN        -0.0618
      6 C6         28.6190   42.4170   15.9170 C.ar      1 BEN        -0.0565
      7 C          29.0350   44.5610   14.9010 C.cat     1 BEN         0.2356
      8 N1         28.7290   45.8570   14.8650 N.pl3     1 BEN        -0.2721
      9 N2         29.6720   44.0550   13.8530 N.pl3     1 BEN        -0.2721
     10 H1         28.4778   45.4416   17.3465 H         1 BEN         0.0617
     11 H2         27.7909   44.0931   19.2814 H         1 BEN         0.0618
     12 H3         27.7427   41.6263   19.1032 H         1 BEN         0.0618
     13 H4         28.1881   40.5649   16.9206 H         1 BEN         0.0618
     14 H5         28.8519   41.9337   14.9751 H         1 BEN         0.0617
     15 H6         28.9892   46.4250   14.0462 H         1 BEN         0.3181
     16 H7         28.2322   46.2910   15.6560 H         1 BEN         0.3181
     17 H8         29.9282   43.0575   13.8384 H         1 BEN         0.3181
     18 H9         29.9104   44.6597   13.0540 H         1 BEN         0.3181
@<TRIPOS>BOND
     1    1    2 ar 
     2    1    6 ar 
     3    1    7 1  
     4    2    3 ar 
     5    3    4 ar 
     6    4    5 ar 
     7    5    6 ar 
     8    7    8 ar 
     9    7    9 ar 
    10    2   10 1  
    11    3   11 1  
    12    4   12 1  
    13    5   13 1  
    14    6   14 1  
    15    8   15 1  
    16    8   16 1  
    17    9   17 1  
    18    9   18 1  
@<TRIPOS>SUBSTRUCTURE
     1 BEN         1

