### 
### Created by X-TOOL on Mon Sep 10 21:12:56 2018
### 

@<TRIPOS>MOLECULE
2jaj_ligand
   37    36     1     0     0
SMALL
GAST_HUCK


@<TRIPOS>ATOM
      1 N          15.9620    4.3160   67.6130 N.4       1 D20         0.2327
      2 C1         16.2440    5.2580   66.5180 C.3       1 D20         0.0284
      3 C          15.0880    6.2120   66.1790 C.2       1 D20         0.0844
      4 O          14.0110    6.0720   66.8110 O.co2     1 D20        -0.5643
      5 C2         16.6850    4.4490   65.2760 C.3       1 D20         0.0055
      6 C3         15.6210    3.4160   64.9240 C.3       1 D20        -0.0131
      7 C4         16.0340    2.6290   63.6390 C.3       1 D20         0.0628
      8 N5         16.2270    3.4680   62.4150 N.pl3     1 D20        -0.2722
      9 C6         15.2280    3.8010   61.5820 C.cat     1 D20         0.2904
     10 N61        13.9570    3.3550   61.8710 N.pl3     1 D20        -0.2700
     11 N62        15.5390    4.5330   60.4840 N.pl3     1 D20        -0.2847
     12 C7         12.7840    3.6540   61.0540 C.3       1 D20         0.0858
     13 C8         13.5330    1.7500   58.0590 C.3       1 D20         0.0366
     14 O9         15.3170    7.0690   65.2790 O.co2     1 D20        -0.5643
     15 O10        13.5380    2.9150   58.9320 O.3       1 D20        -0.3795
     16 C10        12.5600    2.6340   59.9500 C.3       1 D20         0.0802
     17 H1         16.7680    3.7311   67.7689 H         1 D20         0.2010
     18 H2         15.1720    3.7406   67.3662 H         1 D20         0.2010
     19 H3         15.7529    4.8310   68.4539 H         1 D20         0.2010
     20 H4         17.0910    5.8844   66.8345 H         1 D20         0.1024
     21 H5         17.6335    3.9359   65.4930 H         1 D20         0.0340
     22 H6         16.8243    5.1331   64.4259 H         1 D20         0.0340
     23 H7         14.6639    3.9275   64.7444 H         1 D20         0.0302
     24 H8         15.5086    2.7110   65.7609 H         1 D20         0.0302
     25 H9         15.2481    1.8898   63.4249 H         1 D20         0.0689
     26 H10        16.9802    2.1083   63.8477 H         1 D20         0.0689
     27 H11        17.1754    3.8077   62.2004 H         1 D20         0.2642
     28 H12        13.8263    2.7765   62.7131 H         1 D20         0.2643
     29 H13        16.5105    4.8362   60.3254 H         1 D20         0.2615
     30 H14        14.8038    4.7860   59.8085 H         1 D20         0.2615
     31 H15        12.9184    4.6447   60.5952 H         1 D20         0.0712
     32 H16        11.8970    3.6684   61.7044 H         1 D20         0.0712
     33 H17        14.2636    1.8952   57.2496 H         1 D20         0.0524
     34 H18        12.5295    1.6191   57.6279 H         1 D20         0.0524
     35 H19        13.8022    0.8554   58.6397 H         1 D20         0.0524
     36 H20        11.5444    2.7344   59.5397 H         1 D20         0.0595
     37 H21        12.6989    1.6148   60.3398 H         1 D20         0.0595
@<TRIPOS>BOND
     1    2    1 1  
     2    2    3 1  
     3    5    2 1  
     4    3    4 ar 
     5    3   14 ar 
     6    6    5 1  
     7    7    6 1  
     8    8    7 1  
     9    9    8 ar 
    10   10    9 ar 
    11    9   11 ar 
    12   12   10 1  
    13   16   12 1  
    14   15   13 1  
    15   15   16 1  
    16    1   17 1  
    17    1   18 1  
    18    1   19 1  
    19    2   20 1  
    20    5   21 1  
    21    5   22 1  
    22    6   23 1  
    23    6   24 1  
    24    7   25 1  
    25    7   26 1  
    26    8   27 1  
    27   10   28 1  
    28   11   29 1  
    29   11   30 1  
    30   12   31 1  
    31   12   32 1  
    32   13   33 1  
    33   13   34 1  
    34   13   35 1  
    35   16   36 1  
    36   16   37 1  
@<TRIPOS>SUBSTRUCTURE
     1 D20         1

