### 
### Created by X-TOOL on Mon Sep 10 21:12:55 2018
### 

@<TRIPOS>MOLECULE
2jal_ligand
   26    26     1     0     0
SMALL
GAST_HUCK


@<TRIPOS>ATOM
      1 O5         -1.3520    9.2260   10.5300 O.3       1 YLL        -0.3913
      2 C7         -2.0250   10.4670   10.2590 C.3       1 YLL         0.0650
      3 C5         -2.4890   10.5100    8.7790 C.3       1 YLL         0.0367
      4 C6         -3.4260    9.3820    8.3660 C.3       1 YLL         0.0518
      5 O6         -2.8050    8.1110    8.5620 O.3       1 YLL        -0.3946
      6 C4         -1.2460   10.6240    7.8600 C.3       1 YLL         0.0907
      7 O4         -1.6070   10.7580    6.4860 O.3       1 YLL        -0.3887
      8 C3         -0.4860   11.8970    8.2990 C.3       1 YLL         0.1073
      9 O3          0.6820   12.1540    7.5180 O.3       1 YLL        -0.3867
     10 C2          0.0140   11.8530    9.7370 C.3       1 YLL         0.0858
     11 O2          0.6110   13.1090   10.0230 O.3       1 YLL        -0.3891
     12 C1         -1.1110   11.6290   10.6990 C.3       1 YLL         0.0022
     13 H1         -1.0725    9.2103   11.4379 H         1 YLL         0.2098
     14 H2         -2.9313   10.5115   10.8808 H         1 YLL         0.0598
     15 H3         -3.0651   11.4392    8.6577 H         1 YLL         0.0374
     16 H4         -3.6834    9.4977    7.3028 H         1 YLL         0.0561
     17 H5         -4.3421    9.4334    8.9728 H         1 YLL         0.0561
     18 H6         -2.0147    8.0616    8.0370 H         1 YLL         0.2094
     19 H7         -0.6096    9.7354    7.9842 H         1 YLL         0.0624
     20 H8         -2.1075    9.9972    6.2156 H         1 YLL         0.2099
     21 H9         -1.1809   12.7428    8.1911 H         1 YLL         0.0645
     22 H10         0.4344   12.2670    6.6079 H         1 YLL         0.2100
     23 H11         0.7546   11.0471    9.8461 H         1 YLL         0.0621
     24 H12         1.3339   13.2582    9.4251 H         1 YLL         0.2099
     25 H13        -0.6909   11.3953   11.6884 H         1 YLL         0.0316
     26 H14        -1.7115   12.5484   10.7634 H         1 YLL         0.0316
@<TRIPOS>BOND
     1    1    2 1  
     2    2    3 1  
     3    2   12 1  
     4    3    4 1  
     5    3    6 1  
     6    4    5 1  
     7    6    7 1  
     8    6    8 1  
     9    8    9 1  
    10    8   10 1  
    11   10   11 1  
    12   10   12 1  
    13    1   13 1  
    14    2   14 1  
    15    3   15 1  
    16    4   16 1  
    17    4   17 1  
    18    5   18 1  
    19    6   19 1  
    20    7   20 1  
    21    8   21 1  
    22    9   22 1  
    23   10   23 1  
    24   11   24 1  
    25   12   25 1  
    26   12   26 1  
@<TRIPOS>SUBSTRUCTURE
     1 YLL         1

