### 
### Created by X-TOOL on Mon Sep 10 21:12:58 2018
### 

@<TRIPOS>MOLECULE
2jb5_ligand
   55    56     1     0     0
SMALL
GAST_HUCK


@<TRIPOS>ATOM
      1 O36        20.3810   10.1310   35.3680 O.co2     1 T5C        -0.4845
      2 S35        20.6020    8.5300   35.7960 S.o2      1 T5C        -0.1891
      3 O37        19.7350    8.1740   37.2010 O.co2     1 T5C        -0.4845
      4 O38        20.0870    7.5200   34.5470 O.co2     1 T5C        -0.4845
      5 C13        22.3410    8.2720   36.1250 C.3       1 T5C         0.0567
      6 C12        23.0560    7.5130   35.0270 C.3       1 T5C         0.0669
      7 N1         24.2270    6.8060   35.5840 N.pl3     1 T5C        -0.2740
      8 C9         25.4410    7.4420   35.9490 C.ar      1 T5C         0.0504
      9 C8         25.7770    8.8320   35.8470 C.ar      1 T5C        -0.0314
     10 C7         27.0480    9.2750   36.2890 C.ar      1 T5C        -0.0439
     11 C6         27.9710    8.3270   36.8230 C.ar      1 T5C         0.0432
     12 S39        29.5050    8.8560   37.3890 S.o2      1 T5C        -0.1666
     13 O41        29.6640   10.5310   37.3280 O.co2     1 T5C        -0.4808
     14 O40        30.7370    8.1360   36.4930 O.co2     1 T5C        -0.4808
     15 O42        29.7040    8.3130   38.9740 O.co2     1 T5C        -0.4808
     16 C5         27.6380    6.9460   36.9130 C.ar      1 T5C        -0.0681
     17 C4         26.3650    6.4930   36.4710 C.ar      1 T5C        -0.1261
     18 C3         25.7730    5.0910   36.4690 C.3       1 T5C        -0.1220
     19 C11        25.7480    4.5900   37.9370 C.3       1 T5C        -0.1504
     20 C10        26.6570    4.2500   35.5070 C.3       1 T5C        -0.1504
     21 C2         24.3730    5.3930   35.8790 C.2       1 T5C        -0.0316
     22 C14        23.3190    4.4740   35.6430 C.2       1 T5C        -0.0247
     23 C15        23.3520    2.9810   35.9340 C.2       1 T5C        -0.0212
     24 C16        22.2110    2.1300   35.6630 C.2       1 T5C        -0.0169
     25 C17        22.2470    0.7020   35.9540 C.2       1 T5C         0.0007
     26 C34        23.4760    0.0110   36.5590 C.3       1 T5C        -0.0215
     27 C18        21.0350   -0.0210   35.6300 C.2       1 T5C        -0.0179
     28 C19        20.8990   -1.4480   35.8560 C.2       1 T5C        -0.0155
     29 C20        19.6690   -2.1030   35.5100 C.2       1 T5C        -0.0290
     30 C22        19.4410   -3.5110   35.6950 C.3       1 T5C        -0.0068
     31 H1         22.4378    7.7033   37.0616 H         1 T5C         0.0494
     32 H2         22.8232    9.2539   36.2407 H         1 T5C         0.0494
     33 H3         23.3909    8.2199   34.2536 H         1 T5C         0.0610
     34 H4         22.3665    6.7811   34.5811 H         1 T5C         0.0610
     35 H5         25.0647    9.5379   35.4353 H         1 T5C         0.0567
     36 H6         27.3164   10.3231   36.2222 H         1 T5C         0.0640
     37 H7         28.3543    6.2404   37.3181 H         1 T5C         0.0616
     38 H8         26.7767    4.4001   38.2771 H         1 T5C        -0.0071
     39 H9         25.1643    3.6596   37.9970 H         1 T5C        -0.0071
     40 H10        25.2854    5.3551   38.5777 H         1 T5C        -0.0071
     41 H11        26.6107    4.6806   34.4959 H         1 T5C        -0.0071
     42 H12        26.2882    3.2140   35.4815 H         1 T5C        -0.0071
     43 H13        27.6979    4.2600   35.8625 H         1 T5C        -0.0071
     44 H14        22.4014    4.8738   35.2139 H         1 T5C         0.0927
     45 H15        24.2546    2.5415   36.3560 H         1 T5C         0.0723
     46 H16        21.3097    2.5653   35.2339 H         1 T5C         0.0945
     47 H17        23.2676   -1.0614   36.6873 H         1 T5C         0.0399
     48 H18        23.7046    0.4596   37.5370 H         1 T5C         0.0399
     49 H19        24.3369    0.1392   35.8865 H         1 T5C         0.0399
     50 H20        20.1960    0.5253   35.2016 H         1 T5C         0.0967
     51 H21        21.7227   -2.0172   36.2843 H         1 T5C         0.0648
     52 H22        18.8664   -1.5020   35.0851 H         1 T5C         0.1169
     53 H23        18.4266   -3.7660   35.3544 H         1 T5C         0.0556
     54 H24        19.5438   -3.7622   36.7610 H         1 T5C         0.0556
     55 H25        20.1781   -4.0817   35.1110 H         1 T5C         0.0556
@<TRIPOS>BOND
     1    1    2 ar 
     2    2    3 ar 
     3    2    4 ar 
     4    2    5 1  
     5    5    6 1  
     6    6    7 1  
     7    7    8 1  
     8    7   21 1  
     9    8    9 ar 
    10    8   17 ar 
    11    9   10 ar 
    12   10   11 ar 
    13   11   12 1  
    14   11   16 ar 
    15   12   13 ar 
    16   12   14 ar 
    17   12   15 ar 
    18   16   17 ar 
    19   17   18 1  
    20   18   19 1  
    21   18   20 1  
    22   18   21 1  
    23   21   22 2  
    24   22   23 1  
    25   23   24 2  
    26   24   25 1  
    27   25   26 1  
    28   25   27 2  
    29   27   28 1  
    30   28   29 2  
    31   29   30 1  
    32    5   31 1  
    33    5   32 1  
    34    6   33 1  
    35    6   34 1  
    36    9   35 1  
    37   10   36 1  
    38   16   37 1  
    39   19   38 1  
    40   19   39 1  
    41   19   40 1  
    42   20   41 1  
    43   20   42 1  
    44   20   43 1  
    45   22   44 1  
    46   23   45 1  
    47   24   46 1  
    48   26   47 1  
    49   26   48 1  
    50   26   49 1  
    51   27   50 1  
    52   28   51 1  
    53   29   52 1  
    54   30   53 1  
    55   30   54 1  
    56   30   55 1  
@<TRIPOS>SUBSTRUCTURE
     1 T5C         1

