### 
### Created by X-TOOL on Mon Sep 10 21:12:59 2018
### 

@<TRIPOS>MOLECULE
2jb6_ligand
   85    88     1     0     0
SMALL
GAST_HUCK


@<TRIPOS>ATOM
      1 O36        91.9430   -8.4980  100.5740 O.co2     1 T5C        -0.4845
      2 S35        91.7510   -9.8780  100.0440 S.o2      1 T5C        -0.1899
      3 O37        90.8840  -10.6510  100.9870 O.co2     1 T5C        -0.4845
      4 O38        91.0820   -9.8290   98.7120 O.co2     1 T5C        -0.4845
      5 C13        93.3780  -10.6880   99.9030 C.3       1 T5C         0.0486
      6 C12        94.2010  -10.3980   98.6360 C.3       1 T5C         0.0424
      7 N1         95.1780  -11.4980   98.5700 N.2       1 T5C        -0.3294
      8 C9         96.3470  -11.4750   99.2280 C.ar      1 T5C         0.0627
      9 C8         96.9290  -10.4860  100.0260 C.ar      1 T5C         0.0034
     10 C7         98.1950  -10.6770  100.5740 C.ar      1 T5C         0.0071
     11 C6         98.9000  -11.8480  100.3170 C.ar      1 T5C         0.0958
     12 S39       100.4760  -12.0750  101.0180 S.o2      1 T5C        -0.1498
     13 O41       101.1560  -10.7490  101.1520 O.co2     1 T5C        -0.4776
     14 O40       100.3280  -12.6920  102.3740 O.co2     1 T5C        -0.4776
     15 O42       101.2930  -12.9890  100.1650 O.co2     1 T5C        -0.4776
     16 C5         98.3370  -12.8300   99.5090 C.ar      1 T5C        -0.0077
     17 C4         97.0680  -12.6390   98.9550 C.ar      1 T5C        -0.0286
     18 C3         96.2010  -13.5020   98.0480 C.3       1 T5C        -0.0035
     19 C11        96.9600  -13.7510   96.7380 C.3       1 T5C        -0.0864
     20 C10        95.8570  -14.8090   98.7740 C.3       1 T5C        -0.0864
     21 C2         94.9720  -12.5960   97.8390 C.2       1 T5C         0.0338
     22 C14        93.8760  -12.9180   97.0260 C.2       1 T5C         0.0266
     23 C15        93.7470  -14.0950   96.2970 C.2       1 T5C         0.0312
     24 C16        92.6190  -14.3160   95.5180 C.2       1 T5C         0.0385
     25 C17        92.4660  -15.4850   94.7800 C.2       1 T5C         0.0552
     26 C34        93.5430  -16.5880   94.7910 C.3       1 T5C         0.0061
     27 C18        91.3110  -15.6330   94.0260 C.2       1 T5C         0.0366
     28 C19        91.0990  -16.7760   93.2670 C.2       1 T5C         0.0276
     29 C20        89.9320  -16.8910   92.5260 C.2       1 T5C         0.0311
     30 C22        89.5850  -17.9820   91.7220 C.2       1 T5C         0.0428
     31 C23        90.4440  -19.2500   91.5170 C.3       1 T5C        -0.0413
     32 C31        90.6810  -19.9980   92.8390 C.3       1 T5C        -0.1150
     33 C30        91.7690  -18.9350   90.7990 C.3       1 T5C        -0.1150
     34 C24        89.5450  -20.0830   90.6130 C.ar      1 T5C        -0.0690
     35 C25        89.6750  -21.3620   90.0650 C.ar      1 T5C        -0.0456
     36 C26        88.6630  -21.8710   89.2570 C.ar      1 T5C         0.0592
     37 S47        88.7830  -23.4530   88.5540 S.o2      1 T5C        -0.1632
     38 O48        88.8740  -23.3200   87.0670 O.co2     1 T5C        -0.4805
     39 O50        90.0080  -24.1490   89.0660 O.co2     1 T5C        -0.4805
     40 O49        87.5560  -24.2330   88.9090 O.co2     1 T5C        -0.4805
     41 C27        87.5300  -21.1130   89.0010 C.ar      1 T5C        -0.0289
     42 C28        87.3990  -19.8410   89.5430 C.ar      1 T5C        -0.0149
     43 C29        88.4150  -19.3100   90.3360 C.ar      1 T5C         0.0777
     44 N21        88.4840  -18.1440   90.9870 N.pl3     1 T5C        -0.2410
     45 C32        87.4240  -17.1230   90.9160 C.3       1 T5C         0.0747
     46 C33        87.8080  -16.2570   89.7030 C.3       1 T5C         0.0577
     47 S43        86.9170  -14.6790   89.4900 S.o2      1 T5C        -0.1890
     48 O46        86.8330  -13.9640   90.7980 O.co2     1 T5C        -0.4845
     49 O44        85.5440  -14.9660   88.9780 O.co2     1 T5C        -0.4845
     50 O45        87.6470  -13.8160   88.5100 O.co2     1 T5C        -0.4845
     51 H1         93.2117  -11.7744   99.9479 H         1 T5C         0.0486
     52 H2         93.9803  -10.3732  100.7679 H         1 T5C         0.0486
     53 H3         94.7130   -9.4279   98.7187 H         1 T5C         0.0505
     54 H4         93.5558  -10.3973   97.7451 H         1 T5C         0.0505
     55 H5         96.3917   -9.5647  100.2195 H         1 T5C         0.0913
     56 H6         98.6325   -9.9102  101.2031 H         1 T5C         0.0900
     57 H7         98.8830  -13.7447   99.3086 H         1 T5C         0.0981
     58 H8         97.8262  -14.4001   96.9338 H         1 T5C         0.0109
     59 H9         97.3064  -12.7914   96.3268 H         1 T5C         0.0109
     60 H10        96.2916  -14.2402   96.0142 H         1 T5C         0.0109
     61 H11        95.3155  -14.5804   99.7038 H         1 T5C         0.0109
     62 H12        96.7841  -15.3505   99.0133 H         1 T5C         0.0109
     63 H13        95.2247  -15.4332   98.1255 H         1 T5C         0.0109
     64 H14        93.0661  -12.1929   96.9607 H         1 T5C         0.1243
     65 H15        94.5340  -14.8467   96.3372 H         1 T5C         0.1059
     66 H16        91.8377  -13.5581   95.4842 H         1 T5C         0.1151
     67 H17        93.2236  -17.4187   94.1446 H         1 T5C         0.0534
     68 H18        93.6812  -16.9553   95.8186 H         1 T5C         0.0534
     69 H19        94.4926  -16.1771   94.4176 H         1 T5C         0.0534
     70 H20        90.5615  -14.8430   94.0295 H         1 T5C         0.1080
     71 H21        91.8406  -17.5734   93.2535 H         1 T5C         0.1127
     72 H22        89.2268  -16.0625   92.5742 H         1 T5C         0.1119
     73 H23        91.3304  -19.3947   93.4903 H         1 T5C         0.0016
     74 H24        91.1649  -20.9639   92.6321 H         1 T5C         0.0016
     75 H25        89.7173  -20.1705   93.3406 H         1 T5C         0.0016
     76 H26        91.5594  -18.4013   89.8603 H         1 T5C         0.0016
     77 H27        92.2979  -19.8736   90.5769 H         1 T5C         0.0016
     78 H28        92.3963  -18.3050   91.4467 H         1 T5C         0.0016
     79 H29        90.5597  -21.9545   90.2684 H         1 T5C         0.0748
     80 H30        86.7424  -21.5156   88.3744 H         1 T5C         0.0760
     81 H31        86.5047  -19.2599   89.3489 H         1 T5C         0.0624
     82 H32        87.4034  -16.5186   91.8349 H         1 T5C         0.0622
     83 H33        86.4409  -17.5923   90.7636 H         1 T5C         0.0622
     84 H34        87.6357  -16.8590   88.7987 H         1 T5C         0.0495
     85 H35        88.8794  -16.0231   89.7892 H         1 T5C         0.0495
@<TRIPOS>BOND
     1    1    2 ar 
     2    2    3 ar 
     3    2    4 ar 
     4    2    5 1  
     5    5    6 1  
     6    6    7 1  
     7    7    8 1  
     8    7   21 2  
     9    8    9 ar 
    10    8   17 ar 
    11    9   10 ar 
    12   10   11 ar 
    13   11   12 1  
    14   11   16 ar 
    15   12   13 ar 
    16   12   14 ar 
    17   12   15 ar 
    18   16   17 ar 
    19   17   18 1  
    20   18   19 1  
    21   18   20 1  
    22   18   21 1  
    23   21   22 1  
    24   22   23 2  
    25   23   24 1  
    26   24   25 2  
    27   25   26 1  
    28   25   27 1  
    29   27   28 2  
    30   28   29 1  
    31   29   30 2  
    32   30   31 1  
    33   30   44 1  
    34   31   32 1  
    35   31   33 1  
    36   31   34 1  
    37   34   35 ar 
    38   34   43 ar 
    39   35   36 ar 
    40   36   37 1  
    41   36   41 ar 
    42   37   38 ar 
    43   37   39 ar 
    44   37   40 ar 
    45   41   42 ar 
    46   42   43 ar 
    47   43   44 1  
    48   44   45 1  
    49   45   46 1  
    50   46   47 1  
    51   47   48 ar 
    52   47   49 ar 
    53   47   50 ar 
    54    5   51 1  
    55    5   52 1  
    56    6   53 1  
    57    6   54 1  
    58    9   55 1  
    59   10   56 1  
    60   16   57 1  
    61   19   58 1  
    62   19   59 1  
    63   19   60 1  
    64   20   61 1  
    65   20   62 1  
    66   20   63 1  
    67   22   64 1  
    68   23   65 1  
    69   24   66 1  
    70   26   67 1  
    71   26   68 1  
    72   26   69 1  
    73   27   70 1  
    74   28   71 1  
    75   29   72 1  
    76   32   73 1  
    77   32   74 1  
    78   32   75 1  
    79   33   76 1  
    80   33   77 1  
    81   33   78 1  
    82   35   79 1  
    83   41   80 1  
    84   42   81 1  
    85   45   82 1  
    86   45   83 1  
    87   46   84 1  
    88   46   85 1  
@<TRIPOS>SUBSTRUCTURE
     1 T5C         1

