### 
### Created by X-TOOL on Mon Sep 10 21:12:55 2018
### 

@<TRIPOS>MOLECULE
2jbl_ligand
   79    80     1     0     0
SMALL
GAST_HUCK


@<TRIPOS>ATOM
      1 C2        131.6690   69.7090   -2.3760 C.2       1 SMA         0.1149
      2 C3        131.4370   70.4200   -1.2070 C.2       1 SMA         0.0096
      3 C3M       130.8740   69.7730    0.0140 C.3       1 SMA        -0.0457
      4 C4        131.7600   71.8900   -1.1340 C.2       1 SMA         0.0925
      5 C4A       132.3290   72.4980   -2.3900 C.ar      1 SMA         0.0681
      6 C5        132.7070   73.8980   -2.5180 C.ar      1 SMA         0.0850
      7 C5M       132.8730   76.0750   -1.4470 C.3       1 SMA         0.0583
      8 C6        133.2420   74.4020   -3.7440 C.ar      1 SMA        -0.0162
      9 C7        133.4160   73.5410   -4.8610 C.ar      1 SMA         0.1092
     10 C7M       134.3260   75.2930   -6.3270 C.3       1 SMA         0.0573
     11 C8        133.0600   72.1600   -4.7790 C.ar      1 SMA         0.1456
     12 C8A       132.5190   71.6540   -3.5400 C.ar      1 SMA         0.1575
     13 C9        131.4250   68.2370   -2.6190 C.3       1 SMA         0.0191
     14 C10       131.0770   67.9410   -4.0740 C.3       1 SMA        -0.0329
     15 C11       130.8830   66.4500   -4.3470 C.3       1 SMA        -0.0147
     16 C12       129.7320   65.7570   -3.5470 C.3       1 SMA         0.0683
     17 C13       128.3080   65.6660   -4.1860 C.3       1 SMA         0.0204
     18 C14       127.3840   64.8820   -3.2000 C.3       1 SMA         0.0937
     19 C15       126.0940   64.4880   -3.9060 C.2       1 SMA        -0.0493
     20 C16       124.8210   64.7650   -3.5510 C.2       1 SMA        -0.0775
     21 C17       123.7140   64.2990   -4.3760 C.2       1 SMA        -0.0867
     22 C18       122.3990   64.5340   -4.1010 C.2       1 SMA        -0.0816
     23 C19       121.2500   64.0940   -4.9210 C.2       1 SMA        -0.0682
     24 C20       119.9890   64.4150   -4.5090 C.2       1 SMA        -0.0889
     25 C21       118.7090   64.0600   -5.2110 C.3       1 SMA        -0.0438
     26 C22       130.7590   66.2170   -5.8610 C.3       1 SMA        -0.0599
     27 C23       130.7810   64.1210   -2.1310 C.3       1 SMA         0.0368
     28 C24       127.7070   67.0470   -4.4520 C.3       1 SMA        -0.0553
     29 C25       127.3010   64.8830   -0.8080 C.3       1 SMA         0.0402
     30 C26       121.5260   63.3150   -6.1800 C.3       1 SMA        -0.0420
     31 O1        132.2010   70.2930   -3.5420 O.3       1 SMA        -0.2495
     32 O4        131.5680   72.5460   -0.0970 O.2       1 SMA        -0.4325
     33 O5        132.5150   74.6850   -1.3900 O.3       1 SMA        -0.3278
     34 O7        133.9300   73.9190   -6.1120 O.3       1 SMA        -0.3275
     35 O8        133.2070   71.2720   -5.8310 O.3       1 SMA        -0.3472
     36 O12       130.1340   64.3790   -3.3750 O.3       1 SMA        -0.3789
     37 O14       127.1810   65.6640   -2.0010 O.3       1 SMA        -0.3648
     38 H         130.6898   68.7074   -0.1875 H         1 SMA         0.0290
     39 H         129.9278   70.2637    0.2858 H         1 SMA         0.0290
     40 H         131.5894   69.8708    0.8438 H         1 SMA         0.0290
     41 H         132.6587   76.5488   -0.4777 H         1 SMA         0.0577
     42 H         132.2887   76.5721   -2.2353 H         1 SMA         0.0577
     43 H         133.9458   76.1685   -1.6716 H         1 SMA         0.0577
     44 H         133.5167   75.4477   -3.8221 H         1 SMA         0.0375
     45 H         134.7024   75.4097   -7.3540 H         1 SMA         0.0574
     46 H         135.1185   75.5622   -5.6132 H         1 SMA         0.0574
     47 H         133.4583   75.9524   -6.1775 H         1 SMA         0.0574
     48 H         130.5916   67.9065   -1.9816 H         1 SMA         0.0496
     49 H         132.3345   67.6788   -2.3522 H         1 SMA         0.0496
     50 H         131.8925   68.3116   -4.7124 H         1 SMA         0.0297
     51 H         130.1452   68.4682   -4.3264 H         1 SMA         0.0297
     52 H         131.8104   65.9555   -4.0222 H         1 SMA         0.0325
     53 H         129.6421   66.2648   -2.5754 H         1 SMA         0.0604
     54 H         128.3770   65.1207   -5.1388 H         1 SMA         0.0377
     55 H         127.8975   63.9542   -2.9075 H         1 SMA         0.0798
     56 H         126.2138   63.9055   -4.8183 H         1 SMA         0.0713
     57 H         124.6213   65.3377   -2.6465 H         1 SMA         0.0433
     58 H         123.9522   63.7256   -5.2706 H         1 SMA         0.0499
     59 H         122.1751   65.0965   -3.1958 H         1 SMA         0.0481
     60 H         119.9025   64.9823   -3.5835 H         1 SMA         0.0512
     61 H         117.8559   64.4549   -4.6398 H         1 SMA         0.0383
     62 H         118.6240   62.9660   -5.2876 H         1 SMA         0.0383
     63 H         118.7099   64.4992   -6.2195 H         1 SMA         0.0383
     64 H         131.5879   66.7218   -6.3787 H         1 SMA         0.0233
     65 H         129.8015   66.6246   -6.2175 H         1 SMA         0.0233
     66 H         130.7989   65.1379   -6.0704 H         1 SMA         0.0233
     67 H         131.0555   63.0573   -2.0742 H         1 SMA         0.0524
     68 H         130.0985   64.3682   -1.3045 H         1 SMA         0.0524
     69 H         131.6882   64.7383   -2.0545 H         1 SMA         0.0524
     70 H         128.3556   67.6016   -5.1461 H         1 SMA         0.0236
     71 H         127.6259   67.6003   -3.5047 H         1 SMA         0.0236
     72 H         126.7074   66.9325   -4.8965 H         1 SMA         0.0236
     73 H         127.1378   65.5262    0.0693 H         1 SMA         0.0527
     74 H         128.3078   64.4428   -0.7576 H         1 SMA         0.0527
     75 H         126.5496   64.0797   -0.8185 H         1 SMA         0.0527
     76 H         122.6115   63.1820   -6.2983 H         1 SMA         0.0347
     77 H         121.1274   63.8641   -7.0458 H         1 SMA         0.0347
     78 H         121.0408   62.3299   -6.1155 H         1 SMA         0.0347
     79 H         133.5701   71.7285   -6.5809 H         1 SMA         0.2369
@<TRIPOS>BOND
     1    1    2 2  
     2    1   13 1  
     3    1   31 1  
     4    2    3 1  
     5    2    4 1  
     6    4    5 1  
     7    4   32 2  
     8    5    6 ar 
     9    5   12 ar 
    10    6    8 ar 
    11    6   33 1  
    12   33    7 1  
    13    8    9 ar 
    14    9   11 ar 
    15    9   34 1  
    16   34   10 1  
    17   11   12 ar 
    18   11   35 1  
    19   12   31 1  
    20   13   14 1  
    21   14   15 1  
    22   15   16 1  
    23   15   26 1  
    24   16   17 1  
    25   16   36 1  
    26   17   18 1  
    27   17   28 1  
    28   18   19 1  
    29   18   37 1  
    30   19   20 2  
    31   20   21 1  
    32   21   22 2  
    33   22   23 1  
    34   23   24 2  
    35   23   30 1  
    36   24   25 1  
    37   36   27 1  
    38   37   29 1  
    39    3   38 1  
    40    3   39 1  
    41    3   40 1  
    42    7   41 1  
    43    7   42 1  
    44    7   43 1  
    45    8   44 1  
    46   10   45 1  
    47   10   46 1  
    48   10   47 1  
    49   13   48 1  
    50   13   49 1  
    51   14   50 1  
    52   14   51 1  
    53   15   52 1  
    54   16   53 1  
    55   17   54 1  
    56   18   55 1  
    57   19   56 1  
    58   20   57 1  
    59   21   58 1  
    60   22   59 1  
    61   24   60 1  
    62   25   61 1  
    63   25   62 1  
    64   25   63 1  
    65   26   64 1  
    66   26   65 1  
    67   26   66 1  
    68   27   67 1  
    69   27   68 1  
    70   27   69 1  
    71   28   70 1  
    72   28   71 1  
    73   28   72 1  
    74   29   73 1  
    75   29   74 1  
    76   29   75 1  
    77   30   76 1  
    78   30   77 1  
    79   30   78 1  
    80   35   79 1  
@<TRIPOS>SUBSTRUCTURE
     1 SMA         1

