### 
### Created by X-TOOL on Mon Sep 10 21:12:56 2018
### 

@<TRIPOS>MOLECULE
2jbo_ligand
   42    46     1     0     0
SMALL
GAST_HUCK


@<TRIPOS>ATOM
      1 C19       238.7100   82.5570  184.3310 C.ar      1 P4O        -0.0238
      2 C20       240.0870   82.5030  184.4560 C.ar      1 P4O         0.0093
      3 C25       240.6770   81.6990  185.4610 C.ar      1 P4O        -0.0452
      4 C24       242.0680   81.6300  185.5780 C.ar      1 P4O        -0.0553
      5 C23       242.8590   82.3760  184.6830 C.ar      1 P4O        -0.0553
      6 C22       242.2770   83.1840  183.6910 C.ar      1 P4O        -0.0386
      7 C21       240.8790   83.2520  183.5760 C.ar      1 P4O         0.0478
      8 N16       240.3050   84.0120  182.6250 N.ar      1 P4O        -0.2933
      9 C17       238.9860   84.0740  182.5080 C.ar      1 P4O         0.0211
     10 C18       238.1380   83.3530  183.3540 C.ar      1 P4O         0.0268
     11 C14       236.7370   83.4480  183.2370 C.ar      1 P4O         0.0492
     12 C13       235.9010   82.4200  183.6750 C.ar      1 P4O        -0.0266
     13 N15       236.2050   84.5760  182.7390 N.ar      1 P4O        -0.3026
     14 C10       234.9080   84.7320  182.6130 C.ar      1 P4O         0.0006
     15 C11       234.0300   83.7360  183.0090 C.ar      1 P4O        -0.0350
     16 C12       234.5300   82.5580  183.5370 C.ar      1 P4O         0.0079
     17 C2        233.6580   81.5490  183.9320 C.2       1 P4O         0.0641
     18 C3        232.3460   81.5060  183.6830 C.2       1 P4O        -0.0565
     19 C4        231.8450   80.4050  184.2380 C.2       1 P4O         0.0410
     20 C6        230.5730   79.8520  184.3170 C.2       1 P4O         0.1752
     21 O26       229.5960   80.5450  184.0770 O.2       1 P4O        -0.4040
     22 N7        230.4150   78.5170  184.7020 N.am      1 P4O        -0.2898
     23 C8        231.6120   77.6180  185.0130 C.3       1 P4O         0.0436
     24 C9        232.7830   78.4170  185.5990 C.3       1 P4O         0.0315
     25 C5        232.8980   79.7480  184.8610 C.2       1 P4O         0.0718
     26 N1        233.9970   80.4660  184.6400 N.pl3     1 P4O        -0.2706
     27 H1        238.0808   81.9773  184.9967 H         1 P4O         0.0795
     28 H2        240.0485   81.1357  186.1412 H         1 P4O         0.0659
     29 H3        242.5287   81.0146  186.3423 H         1 P4O         0.0643
     30 H4        243.9391   82.3261  184.7607 H         1 P4O         0.0656
     31 H5        242.9059   83.7534  183.0162 H         1 P4O         0.0646
     32 H6        238.5535   84.7002  181.7361 H         1 P4O         0.0884
     33 H7        236.3200   81.5238  184.1181 H         1 P4O         0.0667
     34 H8        234.5184   85.6525  182.1935 H         1 P4O         0.0796
     35 H9        232.9603   83.8780  182.9062 H         1 P4O         0.0653
     36 H10       231.7812   82.2477  183.1202 H         1 P4O         0.0380
     37 H11       229.4921   78.1392  184.7761 H         1 P4O         0.1835
     38 H12       231.9425   77.1301  184.0842 H         1 P4O         0.0546
     39 H13       231.3036   76.8522  185.7399 H         1 P4O         0.0546
     40 H14       233.7157   77.8466  185.4774 H         1 P4O         0.0506
     41 H15       232.6037   78.6030  186.6682 H         1 P4O         0.0506
     42 H16       234.9467   80.2281  184.9598 H         1 P4O         0.2347
@<TRIPOS>BOND
     1    1    2 ar 
     2    1   10 ar 
     3    2    3 ar 
     4    2    7 ar 
     5    3    4 ar 
     6    4    5 ar 
     7    5    6 ar 
     8    6    7 ar 
     9    7    8 ar 
    10    8    9 ar 
    11    9   10 ar 
    12   10   11 1  
    13   11   12 ar 
    14   11   13 ar 
    15   12   16 ar 
    16   13   14 ar 
    17   14   15 ar 
    18   15   16 ar 
    19   16   17 1  
    20   17   18 2  
    21   17   26 1  
    22   18   19 1  
    23   19   20 1  
    24   19   25 2  
    25   20   21 2  
    26   20   22 am 
    27   22   23 1  
    28   23   24 1  
    29   24   25 1  
    30   25   26 1  
    31    1   27 1  
    32    3   28 1  
    33    4   29 1  
    34    5   30 1  
    35    6   31 1  
    36    9   32 1  
    37   12   33 1  
    38   14   34 1  
    39   15   35 1  
    40   18   36 1  
    41   22   37 1  
    42   23   38 1  
    43   23   39 1  
    44   24   40 1  
    45   24   41 1  
    46   26   42 1  
@<TRIPOS>SUBSTRUCTURE
     1 P4O         1

