### 
### Created by X-TOOL on Mon Sep 10 21:12:56 2018
### 

@<TRIPOS>MOLECULE
2jbp_ligand
   42    46     1     0     0
SMALL
GAST_HUCK


@<TRIPOS>ATOM
      1 C19        28.9470   62.5480  193.9480 C.ar      1 P4O        -0.0238
      2 C20        28.7840   61.6320  194.9830 C.ar      1 P4O         0.0093
      3 C25        27.5760   60.9630  195.1600 C.ar      1 P4O        -0.0452
      4 C24        27.4440   60.0330  196.1860 C.ar      1 P4O        -0.0553
      5 C23        28.5200   59.7770  197.0330 C.ar      1 P4O        -0.0553
      6 C22        29.7230   60.4510  196.8600 C.ar      1 P4O        -0.0386
      7 C21        29.8570   61.3790  195.8320 C.ar      1 P4O         0.0478
      8 N16        31.0220   62.0140  195.6420 N.ar      1 P4O        -0.2933
      9 C17        31.1930   62.8890  194.6650 C.ar      1 P4O         0.0211
     10 C18        30.1660   63.2000  193.7770 C.ar      1 P4O         0.0268
     11 C14        30.3550   64.1790  192.8010 C.ar      1 P4O         0.0492
     12 C13        29.5760   64.2370  191.6460 C.ar      1 P4O        -0.0266
     13 N15        31.3160   65.1000  192.9870 N.ar      1 P4O        -0.3026
     14 C10        31.5540   66.0640  192.1140 C.ar      1 P4O         0.0006
     15 C11        30.8030   66.1600  190.9470 C.ar      1 P4O        -0.0350
     16 C12        29.7910   65.2390  190.7030 C.ar      1 P4O         0.0079
     17 C2         28.9580   65.3700  189.5940 C.2       1 P4O         0.0641
     18 C3         29.1460   66.1820  188.5540 C.2       1 P4O        -0.0565
     19 C4         28.1390   66.0410  187.6940 C.2       1 P4O         0.0410
     20 C6         27.8180   66.6050  186.4630 C.2       1 P4O         0.1752
     21 O26        28.4900   67.5190  185.9870 O.2       1 P4O        -0.4040
     22 N7         26.7470   66.1020  185.7140 N.am      1 P4O        -0.2898
     23 C8         25.9140   64.9530  186.1420 C.3       1 P4O         0.0436
     24 C9         25.9170   64.7510  187.6580 C.3       1 P4O         0.0315
     25 C5         27.2840   65.1010  188.2450 C.2       1 P4O         0.0718
     26 N1         27.8200   64.7060  189.3970 N.pl3     1 P4O        -0.2706
     27 H1         28.1238   62.7545  193.2736 H         1 P4O         0.0795
     28 H2         26.7404   61.1663  194.5000 H         1 P4O         0.0659
     29 H3         26.5057   59.5085  196.3262 H         1 P4O         0.0643
     30 H4         28.4185   59.0493  197.8300 H         1 P4O         0.0656
     31 H5         30.5559   60.2540  197.5252 H         1 P4O         0.0646
     32 H6         32.1551   63.3756  194.5527 H         1 P4O         0.0884
     33 H7         28.7995   63.4988  191.4813 H         1 P4O         0.0667
     34 H8         32.3399   66.7847  192.3090 H         1 P4O         0.0796
     35 H9         31.0059   66.9489  190.2317 H         1 P4O         0.0653
     36 H10        29.9918   66.8561  188.4272 H         1 P4O         0.0380
     37 H11        26.5323   66.5423  184.8422 H         1 P4O         0.1835
     38 H12        26.3018   64.0408  185.6652 H         1 P4O         0.0546
     39 H13        24.8790   65.1273  185.8128 H         1 P4O         0.0546
     40 H14        25.6856   63.6994  187.8830 H         1 P4O         0.0506
     41 H15        25.1525   65.3996  188.1106 H         1 P4O         0.0506
     42 H16        27.4201   64.0014  190.0330 H         1 P4O         0.2347
@<TRIPOS>BOND
     1    1    2 ar 
     2    1   10 ar 
     3    2    3 ar 
     4    2    7 ar 
     5    3    4 ar 
     6    4    5 ar 
     7    5    6 ar 
     8    6    7 ar 
     9    7    8 ar 
    10    8    9 ar 
    11    9   10 ar 
    12   10   11 1  
    13   11   12 ar 
    14   11   13 ar 
    15   12   16 ar 
    16   13   14 ar 
    17   14   15 ar 
    18   15   16 ar 
    19   16   17 1  
    20   17   18 2  
    21   17   26 1  
    22   18   19 1  
    23   19   20 1  
    24   19   25 2  
    25   20   21 2  
    26   20   22 am 
    27   22   23 1  
    28   23   24 1  
    29   24   25 1  
    30   25   26 1  
    31    1   27 1  
    32    3   28 1  
    33    4   29 1  
    34    5   30 1  
    35    6   31 1  
    36    9   32 1  
    37   12   33 1  
    38   14   34 1  
    39   15   35 1  
    40   18   36 1  
    41   22   37 1  
    42   23   38 1  
    43   23   39 1  
    44   24   40 1  
    45   24   41 1  
    46   26   42 1  
@<TRIPOS>SUBSTRUCTURE
     1 P4O         1

