### 
### Created by X-TOOL on Mon Sep 10 21:12:55 2018
### 

@<TRIPOS>MOLECULE
2jbu_ligand
   74    73     1     0     0
SMALL
GAST_HUCK


@<TRIPOS>ATOM
      1 N        -108.0050   43.9870    5.7020 N.4       1 ALA         0.2377
      2 CA       -106.7880   43.4470    5.0830 C.3       1 ALA         0.0621
      3 C        -107.0530   41.9860    4.6640 C.2       1 ALA         0.2264
      4 O        -106.9760   41.0580    5.4790 O.2       1 ALA        -0.3907
      5 CB       -105.5720   43.5520    6.0820 C.3       1 ALA        -0.0040
      6 N        -107.3740   41.7960    3.3830 N.am      1 ALA        -0.2613
      7 CA       -107.6980   40.4720    2.8400 C.3       1 ALA         0.1283
      8 C        -106.5910   39.8360    2.0010 C.2       1 ALA         0.2036
      9 O        -106.0390   40.4710    1.1030 O.2       1 ALA        -0.3944
     10 CB       -108.9830   40.5620    2.0100 C.3       1 ALA        -0.0244
     11 N        -106.2860   38.5740    2.2950 N.am      1 ALA        -0.2640
     12 CA       -105.2550   37.8240    1.5800 C.3       1 ALA         0.1282
     13 C        -105.7770   37.4170    0.1690 C.2       1 ALA         0.2036
     14 O        -106.8180   36.7610    0.0580 O.2       1 ALA        -0.3944
     15 CB       -104.8410   36.5810    2.4360 C.3       1 ALA        -0.0244
     16 N        -105.0630   37.8240   -0.8950 N.am      1 ALA        -0.2640
     17 CA       -105.4590   37.5350   -2.2940 C.3       1 ALA         0.1282
     18 C        -104.7300   36.3490   -2.9670 C.2       1 ALA         0.2036
     19 O        -103.8670   35.7060   -2.3540 O.2       1 ALA        -0.3944
     20 CB       -105.3090   38.8220   -3.1730 C.3       1 ALA        -0.0244
     21 N        -105.0880   36.0650   -4.2270 N.am      1 ALA        -0.2640
     22 CA       -104.4990   34.9500   -4.9960 C.3       1 ALA         0.1282
     23 C        -103.2200   35.3170   -5.7470 C.2       1 ALA         0.2036
     24 O        -102.1570   34.7530   -5.4900 O.2       1 ALA        -0.3944
     25 CB       -105.5290   34.3710   -5.9960 C.3       1 ALA        -0.0244
     26 N        -103.3340   36.2430   -6.6940 N.am      1 ALA        -0.2640
     27 CA       -102.1870   36.6850   -7.4820 C.3       1 ALA         0.1282
     28 C        -101.7750   38.0880   -7.0340 C.2       1 ALA         0.2037
     29 O        -102.6250   38.9480   -6.7690 O.2       1 ALA        -0.3944
     30 CB       -102.5340   36.6820   -8.9940 C.3       1 ALA        -0.0244
     31 N        -100.4640   38.2980   -6.9370 N.am      1 ALA        -0.2626
     32 CA        -99.8940   39.5850   -6.5460 C.3       1 ALA         0.1392
     33 C        -100.6400   40.7220   -7.2410 C.2       1 ALA         0.2568
     34 O        -100.2530   41.0530   -8.3810 O.2       1 ALA        -0.3680
     35 CB        -98.4130   39.6250   -6.9160 C.3       1 ALA        -0.0230
     36 OXT      -101.6120   41.2450   -6.6550 O.3       1 ALA        -0.2910
     37 H1       -107.8447   44.9424    5.9806 H         1 ALA         0.2015
     38 H2       -108.2428   43.4362    6.5120 H         1 ALA         0.2015
     39 H3       -108.7629   43.9532    5.0384 H         1 ALA         0.2015
     40 H4       -106.5517   44.0355    4.1842 H         1 ALA         0.1095
     41 H5       -104.6689   43.1440    5.6045 H         1 ALA         0.0310
     42 H6       -105.7957   42.9784    6.9935 H         1 ALA         0.0310
     43 H7       -105.4032   44.6068    6.3446 H         1 ALA         0.0310
     44 H8       -107.3945   42.5857    2.7699 H         1 ALA         0.1884
     45 H9       -107.8841   39.8048    3.6945 H         1 ALA         0.0797
     46 H10      -109.2265   39.5697    1.6026 H         1 ALA         0.0277
     47 H11      -108.8363   41.2720    1.1828 H         1 ALA         0.0277
     48 H12      -109.8086   40.9088    2.6488 H         1 ALA         0.0277
     49 H13      -106.7825   38.1206    3.0352 H         1 ALA         0.1883
     50 H14      -104.3721   38.4670    1.4495 H         1 ALA         0.0797
     51 H15      -104.0649   36.0114    1.9038 H         1 ALA         0.0277
     52 H16      -105.7194   35.9394    2.5995 H         1 ALA         0.0277
     53 H17      -104.4477   36.9185    3.4062 H         1 ALA         0.0277
     54 H18      -104.2253   38.3463   -0.7351 H         1 ALA         0.1883
     55 H19      -106.5267   37.2717   -2.2681 H         1 ALA         0.0797
     56 H20      -105.6053   38.5958   -4.2079 H         1 ALA         0.0277
     57 H21      -104.2615   39.1573   -3.1565 H         1 ALA         0.0277
     58 H22      -105.9549   39.6171   -2.7722 H         1 ALA         0.0277
     59 H23      -105.7844   36.6329   -4.6657 H         1 ALA         0.1883
     60 H24      -104.2418   34.1600   -4.2751 H         1 ALA         0.0797
     61 H25      -105.0702   33.5435   -6.5570 H         1 ALA         0.0277
     62 H26      -105.8431   35.1589   -6.6963 H         1 ALA         0.0277
     63 H27      -106.4056   33.9990   -5.4454 H         1 ALA         0.0277
     64 H28      -104.2307   36.6483   -6.8717 H         1 ALA         0.1883
     65 H29      -101.3483   35.9942   -7.3104 H         1 ALA         0.0797
     66 H30      -101.6598   37.0171   -9.5715 H         1 ALA         0.0277
     67 H31      -103.3779   37.3631   -9.1779 H         1 ALA         0.0277
     68 H32      -102.8102   35.6636   -9.3048 H         1 ALA         0.0277
     69 H33       -99.8422   37.5417   -7.1407 H         1 ALA         0.1884
     70 H34       -99.9946   39.7055   -5.4573 H         1 ALA         0.0813
     71 H35       -97.9873   40.5952   -6.6202 H         1 ALA         0.0278
     72 H36       -98.3027   39.4921   -8.0024 H         1 ALA         0.0278
     73 H37       -97.8821   38.8166   -6.3919 H         1 ALA         0.0278
     74 H38      -102.3982   41.1181   -7.1729 H         1 ALA         0.2540
@<TRIPOS>BOND
     1    2    1 1  
     2    2    5 1  
     3    3    2 1  
     4    3    4 2  
     5    7    6 1  
     6    7   10 1  
     7    8    7 1  
     8    8    9 2  
     9    6    3 am 
    10   12   11 1  
    11   12   15 1  
    12   13   12 1  
    13   13   14 2  
    14   11    8 am 
    15   17   16 1  
    16   17   20 1  
    17   18   17 1  
    18   18   19 2  
    19   16   13 am 
    20   22   21 1  
    21   22   25 1  
    22   23   22 1  
    23   23   24 2  
    24   21   18 am 
    25   27   26 1  
    26   27   30 1  
    27   28   27 1  
    28   28   29 2  
    29   26   23 am 
    30   31   32 1  
    31   32   35 1  
    32   32   33 1  
    33   33   34 2  
    34   33   36 1  
    35   28   31 am 
    36    1   37 1  
    37    1   38 1  
    38    1   39 1  
    39    2   40 1  
    40    5   41 1  
    41    5   42 1  
    42    5   43 1  
    43    6   44 1  
    44    7   45 1  
    45   10   46 1  
    46   10   47 1  
    47   10   48 1  
    48   11   49 1  
    49   12   50 1  
    50   15   51 1  
    51   15   52 1  
    52   15   53 1  
    53   16   54 1  
    54   17   55 1  
    55   20   56 1  
    56   20   57 1  
    57   20   58 1  
    58   21   59 1  
    59   22   60 1  
    60   25   61 1  
    61   25   62 1  
    62   25   63 1  
    63   26   64 1  
    64   27   65 1  
    65   30   66 1  
    66   30   67 1  
    67   30   68 1  
    68   31   69 1  
    69   32   70 1  
    70   35   71 1  
    71   35   72 1  
    72   35   73 1  
    73   36   74 1  
@<TRIPOS>SUBSTRUCTURE
     1 ALA         1

