### 
### Created by X-TOOL on Mon Sep 10 21:12:55 2018
### 

@<TRIPOS>MOLECULE
2jc0_ligand
   52    54     1     0     0
SMALL
GAST_HUCK


@<TRIPOS>ATOM
      1 F54         5.4410   41.3790   51.9340 F         1 699        -0.2193
      2 C51         5.2640   42.6940   51.6080 C.3       1 699         0.3785
      3 F52         4.6250   43.3570   52.5940 F         1 699        -0.2193
      4 F53         4.6610   42.9470   50.4290 F         1 699        -0.2193
      5 C2          6.5990   43.4150   51.5370 C.ar      1 699         0.0507
      6 C1          7.3670   43.6370   52.7200 C.ar      1 699        -0.0277
      7 C6          8.5800   44.3530   52.6760 C.ar      1 699        -0.0140
      8 C3          7.0420   43.9470   50.2940 C.ar      1 699        -0.0277
      9 C4          8.2380   44.6590   50.2560 C.ar      1 699        -0.0140
     10 C5          9.0280   44.8450   51.4290 C.ar      1 699         0.0774
     11 C11        10.2970   45.6700   51.3370 C.2       1 699         0.2291
     12 O13        10.2210   46.9170   51.5540 O.2       1 699        -0.3721
     13 N12        11.4900   45.1010   50.9700 N.am      1 699        -0.2409
     14 C17        12.8050   45.8570   50.9670 C.3       1 699         0.1056
     15 C34        12.7410   46.9920   49.9010 C.2       1 699         0.0737
     16 O36        11.8250   46.7660   49.0050 O.co2     1 699        -0.5454
     17 O35        13.5590   47.8660   49.7470 O.co2     1 699        -0.5454
     18 C33        13.0380   46.4530   52.4050 C.3       1 699        -0.0193
     19 C37        13.2470   45.4710   53.5850 C.3       1 699        -0.0448
     20 C44        13.8440   46.2240   54.7440 C.3       1 699        -0.0627
     21 C40        11.9260   44.8470   54.0630 C.3       1 699        -0.0627
     22 C16        13.7660   44.7240   50.4660 C.3       1 699        -0.0031
     23 C15        13.1010   43.4210   50.8420 C.3       1 699         0.0483
     24 C22        13.6050   42.1550   50.1660 C.2       1 699         0.0423
     25 O25        12.8820   41.0770   50.5300 O.co2     1 699        -0.5685
     26 O24        14.6870   42.1320   49.6220 O.co2     1 699        -0.5685
     27 C14        11.6360   43.6760   50.5750 C.3       1 699         0.1038
     28 C20        11.2190   43.3480   49.1640 C.2       1 699         0.0394
     29 S29        10.2300   41.9930   48.8400 S.3       1 699        -0.0419
     30 C26        11.6100   44.0430   47.9950 C.2       1 699        -0.0794
     31 C27        11.0150   43.3860   46.8770 C.2       1 699        -0.0931
     32 C28        10.2630   42.2990   47.1640 C.2       1 699        -0.0195
     33 H1          7.0112   43.2485   53.6674 H         1 699         0.0857
     34 H2          9.1565   44.5226   53.5782 H         1 699         0.0741
     35 H3          6.4586   43.8006   49.3922 H         1 699         0.0857
     36 H4          8.5755   45.0804   49.3160 H         1 699         0.0741
     37 H5         12.1603   47.0702   52.6473 H         1 699         0.0285
     38 H6         13.9320   47.0917   52.3513 H         1 699         0.0285
     39 H7         13.9309   44.6703   53.2671 H         1 699         0.0295
     40 H8         13.9969   45.5359   55.5885 H         1 699         0.0232
     41 H9         13.1611   47.0311   55.0477 H         1 699         0.0232
     42 H10        14.8101   46.6550   54.4427 H         1 699         0.0232
     43 H11        11.4640   44.2882   53.2358 H         1 699         0.0232
     44 H12        11.2430   45.6432   54.3941 H         1 699         0.0232
     45 H13        12.1256   44.1631   54.9011 H         1 699         0.0232
     46 H14        14.7465   44.8089   50.9573 H         1 699         0.0306
     47 H15        13.8956   44.7866   49.3755 H         1 699         0.0306
     48 H16        13.2442   43.2692   51.9220 H         1 699         0.0514
     49 H17        11.0252   43.0519   51.2439 H         1 699         0.0769
     50 H18        12.2509   44.9226   47.9557 H         1 699         0.0277
     51 H19        11.1574   43.7378   45.8563 H         1 699         0.0371
     52 H20         9.7449   41.6965   46.4193 H         1 699         0.0598
@<TRIPOS>BOND
     1    1    2 1  
     2    2    3 1  
     3    2    4 1  
     4    2    5 1  
     5    5    6 ar 
     6    5    8 ar 
     7    6    7 ar 
     8    7   10 ar 
     9    8    9 ar 
    10    9   10 ar 
    11   10   11 1  
    12   11   12 2  
    13   11   13 am 
    14   13   14 1  
    15   13   27 1  
    16   14   15 1  
    17   14   18 1  
    18   14   22 1  
    19   15   16 ar 
    20   15   17 ar 
    21   18   19 1  
    22   19   20 1  
    23   19   21 1  
    24   22   23 1  
    25   23   24 1  
    26   23   27 1  
    27   24   25 ar 
    28   24   26 ar 
    29   27   28 1  
    30   28   29 1  
    31   28   30 2  
    32   29   32 1  
    33   30   31 1  
    34   31   32 2  
    35    6   33 1  
    36    7   34 1  
    37    8   35 1  
    38    9   36 1  
    39   18   37 1  
    40   18   38 1  
    41   19   39 1  
    42   20   40 1  
    43   20   41 1  
    44   20   42 1  
    45   21   43 1  
    46   21   44 1  
    47   21   45 1  
    48   22   46 1  
    49   22   47 1  
    50   23   48 1  
    51   27   49 1  
    52   30   50 1  
    53   31   51 1  
    54   32   52 1  
@<TRIPOS>SUBSTRUCTURE
     1 699         1

