### 
### Created by X-TOOL on Fri Sep 26 17:34:35 2014
### 

@<TRIPOS>MOLECULE
2jdh_ligand
   59    61     1     0     0
SMALL
GAST_HUCK


@<TRIPOS>ATOM
      1 C1         38.7450    4.4860   -3.5560 C.3       1 FUC         0.1883
      2 C2         37.4100    4.2790   -2.8990 C.3       1 FUC         0.1341
      3 C3         36.6280    3.2760   -3.6900 C.3       1 FUC         0.1140
      4 C4         37.3660    1.9660   -3.8950 C.3       1 FUC         0.1095
      5 C5         38.7360    2.2880   -4.4980 C.3       1 FUC         0.0873
      6 C6         39.6110    1.0420   -4.6510 C.3       1 FUC        -0.0361
      7 O2         36.6290    5.4880   -2.7860 O.3       1 FUC        -0.3841
      8 O3         35.3910    2.9920   -2.9610 O.3       1 FUC        -0.3864
      9 O4         37.4950    1.3610   -2.5840 O.3       1 FUC        -0.3866
     10 O5         39.4710    3.2300   -3.6940 O.3       1 FUC        -0.3431
     11 C1         40.8670    7.4180   -7.3530 C.3       1 FUC         0.2121
     12 C2         41.2910    5.9730   -7.2430 C.3       1 FUC         0.1281
     13 C3         40.1520    5.1360   -6.6460 C.3       1 FUC         0.1121
     14 C4         39.7520    5.7730   -5.3130 C.3       1 FUC         0.1182
     15 C5         39.3440    7.2250   -5.5270 C.3       1 FUC         0.1140
     16 C6         38.9250    7.9460   -4.2860 C.3       1 FUC         0.0730
     17 C7         42.8850    5.1840   -8.9210 C.2       1 FUC         0.1734
     18 C8         43.0890    4.7770  -10.3640 C.3       1 FUC         0.0257
     19 N2         41.6190    5.4620   -8.5700 N.am      1 FUC        -0.2759
     20 O3         40.7160    3.8300   -6.4180 O.3       1 FUC        -0.3866
     21 O4         38.5680    5.1130   -4.8330 O.3       1 FUC        -0.3401
     22 O5         40.4790    7.9520   -6.0890 O.3       1 FUC        -0.3348
     23 O6         39.8340    7.7690   -3.3160 O.3       1 FUC        -0.3924
     24 O7         43.8530    5.2200   -8.1280 O.2       1 FUC        -0.3974
     25 N          43.0380    9.6960   -8.9590 N.2       1 FUC        -0.2241
     26 CA         43.7440    9.4090   -7.8490 C.2       1 FUC         0.0623
     27 CB         45.0890    9.9600   -7.3990 C.3       1 FUC         0.0790
     28 OG         45.8110   10.3060   -8.5820 O.3       1 FUC        -0.3862
     29 NT         41.8470    8.2050   -7.8050 N.pl3     1 FUC        -0.1509
     30 C          42.9890    8.4760   -7.1280 C.2       1 FUC         0.0744
     31 N2         41.8270    8.9620   -8.9830 N.2       1 FUC        -0.0996
     32 H1         39.3414    5.1567   -2.9201 H         1 FUC         0.0938
     33 H2         37.5831    3.8850   -1.8867 H         1 FUC         0.0671
     34 H3         36.3913    3.7069   -4.6740 H         1 FUC         0.0648
     35 H4         36.8065    1.3000   -4.5684 H         1 FUC         0.0646
     36 H5         38.5699    2.7264   -5.4931 H         1 FUC         0.0621
     37 H6         40.5803    1.3259   -5.0866 H         1 FUC         0.0255
     38 H7         39.1091    0.3204   -5.3124 H         1 FUC         0.0255
     39 H8         39.7727    0.5840   -3.6641 H         1 FUC         0.0255
     40 H9         35.8104    5.2947   -2.3444 H         1 FUC         0.2101
     41 H10        35.6022    2.6000   -2.1218 H         1 FUC         0.2100
     42 H11        36.6309    1.1732   -2.2367 H         1 FUC         0.2100
     43 H12        40.0145    7.4707   -8.0462 H         1 FUC         0.1028
     44 H13        42.1757    5.9014   -6.5932 H         1 FUC         0.0641
     45 H14        39.2889    5.0827   -7.3258 H         1 FUC         0.0645
     46 H15        40.5760    5.6969   -4.5883 H         1 FUC         0.0650
     47 H16        38.5053    7.2432   -6.2385 H         1 FUC         0.0647
     48 H17        37.9538    7.5545   -3.9491 H         1 FUC         0.0584
     49 H18        38.8316    9.0201   -4.5042 H         1 FUC         0.0584
     50 H19        44.1556    4.5740  -10.5404 H         1 FUC         0.0467
     51 H20        42.7565    5.5909  -11.0251 H         1 FUC         0.0467
     52 H21        42.5033    3.8703  -10.5756 H         1 FUC         0.0467
     53 H22        40.8846    5.3156   -9.2327 H         1 FUC         0.1857
     54 H23        40.0724    3.2790   -5.9882 H         1 FUC         0.2100
     55 H24        40.6732    8.1083   -3.6042 H         1 FUC         0.2095
     56 H25        45.6393    9.1967   -6.8294 H         1 FUC         0.0674
     57 H26        44.9421   10.8511   -6.7711 H         1 FUC         0.0674
     58 H27        46.6610   10.6558   -8.3419 H         1 FUC         0.2118
     59 H28        43.2747    8.0371   -6.1732 H         1 FUC         0.0900
@<TRIPOS>BOND
     1    1    2 1  
     2    1   10 1  
     3   21    1 1  
     4    2    3 1  
     5    2    7 1  
     6    3    4 1  
     7    3    8 1  
     8    5    4 1  
     9    4    9 1  
    10    5    6 1  
    11   10    5 1  
    12   11   12 1  
    13   11   22 1  
    14   29   11 1  
    15   12   13 1  
    16   12   19 1  
    17   13   14 1  
    18   13   20 1  
    19   15   14 1  
    20   14   21 1  
    21   15   16 1  
    22   22   15 1  
    23   16   23 1  
    24   17   18 1  
    25   19   17 am 
    26   17   24 2  
    27   26   25 1  
    28   25   31 2  
    29   26   27 1  
    30   30   26 2  
    31   27   28 1  
    32   29   30 1  
    33   29   31 1  
    34    1   32 1  
    35    2   33 1  
    36    3   34 1  
    37    4   35 1  
    38    5   36 1  
    39    6   37 1  
    40    6   38 1  
    41    6   39 1  
    42    7   40 1  
    43    8   41 1  
    44    9   42 1  
    45   11   43 1  
    46   12   44 1  
    47   13   45 1  
    48   14   46 1  
    49   15   47 1  
    50   16   48 1  
    51   16   49 1  
    52   18   50 1  
    53   18   51 1  
    54   18   52 1  
    55   19   53 1  
    56   20   54 1  
    57   23   55 1  
    58   27   56 1  
    59   27   57 1  
    60   28   58 1  
    61   30   59 1  
@<TRIPOS>SUBSTRUCTURE
     1 FUC         1

