### 
### Created by X-TOOL on Fri Sep 26 17:34:35 2014
### 

@<TRIPOS>MOLECULE
2jdk_ligand
   61    63     1     0     0
SMALL
GAST_HUCK


@<TRIPOS>ATOM
      1 C1         38.8400    4.5800   -3.5280 C.3       1 FUC         0.1883
      2 C2         37.4890    4.3580   -2.8660 C.3       1 FUC         0.1341
      3 C3         36.6660    3.3830   -3.6420 C.3       1 FUC         0.1140
      4 C4         37.4240    2.0860   -3.8690 C.3       1 FUC         0.1095
      5 C5         38.8010    2.3680   -4.4740 C.3       1 FUC         0.0873
      6 C6         39.6740    1.1260   -4.5860 C.3       1 FUC        -0.0361
      7 O2         36.6750    5.5510   -2.7300 O.3       1 FUC        -0.3841
      8 O3         35.4580    3.0890   -2.9250 O.3       1 FUC        -0.3864
      9 O4         37.5550    1.4640   -2.5450 O.3       1 FUC        -0.3866
     10 O5         39.5200    3.3320   -3.6640 O.3       1 FUC        -0.3431
     11 C1         40.9810    7.5790   -7.2470 C.3       1 FUC         0.2173
     12 C2         41.4030    6.1310   -7.1670 C.3       1 FUC         0.1289
     13 C3         40.2760    5.2640   -6.6000 C.3       1 FUC         0.1122
     14 C4         39.8090    5.8700   -5.2860 C.3       1 FUC         0.1182
     15 C5         39.4150    7.3430   -5.4790 C.3       1 FUC         0.1140
     16 C6         38.9790    8.0390   -4.2510 C.3       1 FUC         0.0730
     17 C7         43.0160    5.4540   -8.8610 C.2       1 FUC         0.1734
     18 C8         43.2760    5.0810  -10.2950 C.3       1 FUC         0.0257
     19 N2         41.7400    5.6490   -8.4950 N.am      1 FUC        -0.2758
     20 O3         40.8010    3.9530   -6.3550 O.3       1 FUC        -0.3866
     21 O4         38.6370    5.2040   -4.7840 O.3       1 FUC        -0.3401
     22 O5         40.5530    8.0630   -6.0070 O.3       1 FUC        -0.3342
     23 O6         39.8450    7.9140   -3.2270 O.3       1 FUC        -0.3924
     24 O7         43.9830    5.5600   -8.0690 O.2       1 FUC        -0.3974
     25 O1         46.1150    9.4730   -7.0350 O.2       1 FUC        -0.3691
     26 C3         45.2450   10.0550   -7.6840 C.2       1 FUC         0.2583
     27 O          45.5710   11.3210   -8.3270 O.3       1 FUC        -0.2839
     28 C4         46.1470   11.4240   -9.6360 C.3       1 FUC         0.0642
     29 C2         43.8700    9.4780   -7.8690 C.2       1 FUC         0.1468
     30 N3         43.1590    9.6660   -8.9920 N.2       1 FUC        -0.2049
     31 N2         41.9420    8.9930   -8.8790 N.2       1 FUC        -0.0854
     32 N1         41.9590    8.3610   -7.6440 N.pl3     1 FUC        -0.1323
     33 C1         43.1090    8.6620   -7.0150 C.2       1 FUC         0.1038
     34 H1         39.4476    5.2444   -2.8961 H         1 FUC         0.0938
     35 H2         37.6778    3.9512   -1.8616 H         1 FUC         0.0671
     36 H3         36.4129    3.8270   -4.6161 H         1 FUC         0.0648
     37 H4         36.8585    1.4272   -4.5444 H         1 FUC         0.0646
     38 H5         38.6512    2.7832   -5.4816 H         1 FUC         0.0621
     39 H6         40.6444    1.3985   -5.0265 H         1 FUC         0.0255
     40 H7         39.1757    0.3841   -5.2273 H         1 FUC         0.0255
     41 H8         39.8328    0.6980   -3.5852 H         1 FUC         0.0255
     42 H9         35.8731    5.3350   -2.2688 H         1 FUC         0.2101
     43 H10        35.6754    2.6909   -2.0903 H         1 FUC         0.2100
     44 H11        36.6906    1.2975   -2.1876 H         1 FUC         0.2100
     45 H12        40.1518    7.6516   -7.9661 H         1 FUC         0.1037
     46 H13        42.2843    6.0502   -6.5137 H         1 FUC         0.0642
     47 H14        39.4388    5.2117   -7.3115 H         1 FUC         0.0645
     48 H15        40.6231    5.7934   -4.5502 H         1 FUC         0.0650
     49 H16        38.5897    7.3802   -6.2053 H         1 FUC         0.0647
     50 H17        38.0096    7.6224   -3.9401 H         1 FUC         0.0584
     51 H18        38.8622    9.1086   -4.4797 H         1 FUC         0.0584
     52 H19        44.3575    4.9537  -10.4504 H         1 FUC         0.0467
     53 H20        42.9021    5.8778  -10.9547 H         1 FUC         0.0467
     54 H21        42.7586    4.1388  -10.5284 H         1 FUC         0.0467
     55 H22        41.0074    5.4590   -9.1486 H         1 FUC         0.1857
     56 H23        40.1225    3.4073   -5.9752 H         1 FUC         0.2100
     57 H24        40.6855    8.2785   -3.4783 H         1 FUC         0.2095
     58 H25        46.2952   12.4842   -9.8890 H         1 FUC         0.0574
     59 H26        45.4714   10.9626  -10.3713 H         1 FUC         0.0574
     60 H27        47.1164   10.9043   -9.6520 H         1 FUC         0.0574
     61 H28        43.3994    8.3314   -6.0188 H         1 FUC         0.1139
@<TRIPOS>BOND
     1    1    2 1  
     2    1   10 1  
     3   21    1 1  
     4    2    3 1  
     5    2    7 1  
     6    3    4 1  
     7    3    8 1  
     8    5    4 1  
     9    4    9 1  
    10    5    6 1  
    11   10    5 1  
    12   11   12 1  
    13   11   22 1  
    14   32   11 1  
    15   12   13 1  
    16   12   19 1  
    17   13   14 1  
    18   13   20 1  
    19   15   14 1  
    20   14   21 1  
    21   15   16 1  
    22   22   15 1  
    23   16   23 1  
    24   17   18 1  
    25   19   17 am 
    26   17   24 2  
    27   26   25 2  
    28   26   27 1  
    29   29   26 1  
    30   27   28 1  
    31   30   29 1  
    32   29   33 2  
    33   31   30 2  
    34   31   32 1  
    35   32   33 1  
    36    1   34 1  
    37    2   35 1  
    38    3   36 1  
    39    4   37 1  
    40    5   38 1  
    41    6   39 1  
    42    6   40 1  
    43    6   41 1  
    44    7   42 1  
    45    8   43 1  
    46    9   44 1  
    47   11   45 1  
    48   12   46 1  
    49   13   47 1  
    50   14   48 1  
    51   15   49 1  
    52   16   50 1  
    53   16   51 1  
    54   18   52 1  
    55   18   53 1  
    56   18   54 1  
    57   19   55 1  
    58   20   56 1  
    59   23   57 1  
    60   28   58 1  
    61   28   59 1  
    62   28   60 1  
    63   33   61 1  
@<TRIPOS>SUBSTRUCTURE
     1 FUC         1

