### 
### Created by X-TOOL on Mon Sep 10 21:12:55 2018
### 

@<TRIPOS>MOLECULE
2jdm_ligand
   26    26     1     0     0
SMALL
GAST_HUCK


@<TRIPOS>ATOM
      1 C1         12.4240    4.7100   -3.4780 C.3       1 MFU         0.1875
      2 C2         11.0780    4.5200   -2.7480 C.3       1 MFU         0.1341
      3 C3         10.2290    3.4820   -3.4760 C.3       1 MFU         0.1140
      4 C4         11.0290    2.2050   -3.7330 C.3       1 MFU         0.1095
      5 C5         12.3950    2.4740   -4.3780 C.3       1 MFU         0.0873
      6 C6         13.2140    1.1910   -4.5480 C.3       1 MFU        -0.0361
      7 O1         12.1740    5.2640   -4.7830 O.3       1 MFU        -0.3520
      8 O2         10.2970    5.7350   -2.5790 O.3       1 MFU        -0.3841
      9 O3          9.1090    3.1190   -2.6570 O.3       1 MFU        -0.3864
     10 O4         11.2250    1.5360   -2.4730 O.3       1 MFU        -0.3866
     11 O5         13.1140    3.4460   -3.6050 O.3       1 MFU        -0.3431
     12 CM         13.3290    5.8010   -5.4460 C.3       1 MFU         0.0395
     13 H1         13.0527    5.4050   -2.9020 H         1 MFU         0.0937
     14 H2         11.3065    4.1354   -1.7431 H         1 MFU         0.0671
     15 H3          9.8793    3.9019   -4.4307 H         1 MFU         0.0648
     16 H4         10.4485    1.5558   -4.4050 H         1 MFU         0.0646
     17 H5         12.2201    2.8941   -5.3794 H         1 MFU         0.0621
     18 H6         14.1815    1.4324   -5.0125 H         1 MFU         0.0255
     19 H7         12.6643    0.4875   -5.1905 H         1 MFU         0.0255
     20 H8         13.3846    0.7317   -3.5632 H         1 MFU         0.0255
     21 H9         10.8201    6.3859   -2.1260 H         1 MFU         0.2101
     22 H10         8.5788    2.4769   -3.1141 H         1 MFU         0.2100
     23 H11        11.6770    0.7133   -2.6195 H         1 MFU         0.2100
     24 H12        13.0360    6.1976   -6.4293 H         1 MFU         0.0525
     25 H13        14.0778    5.0063   -5.5795 H         1 MFU         0.0525
     26 H14        13.7580    6.6105   -4.8372 H         1 MFU         0.0525
@<TRIPOS>BOND
     1    1    2 1  
     2    1    7 1  
     3    1   11 1  
     4    2    3 1  
     5    2    8 1  
     6    3    4 1  
     7    3    9 1  
     8    4    5 1  
     9    4   10 1  
    10    5    6 1  
    11    5   11 1  
    12    7   12 1  
    13    1   13 1  
    14    2   14 1  
    15    3   15 1  
    16    4   16 1  
    17    5   17 1  
    18    6   18 1  
    19    6   19 1  
    20    6   20 1  
    21    8   21 1  
    22    9   22 1  
    23   10   23 1  
    24   12   24 1  
    25   12   25 1  
    26   12   26 1  
@<TRIPOS>SUBSTRUCTURE
     1 MFU         1

