### 
### Created by X-TOOL on Sun Sep  9 21:50:32 2018
### 

@<TRIPOS>MOLECULE
2jdn_ligand
   27    27     1     0     0
SMALL
GAST_HUCK


@<TRIPOS>ATOM
      1 C1         38.7390    2.4480   -4.3800 C.3       1 NON         0.1876
      2 C2         37.3660    2.1590   -3.7650 C.3       1 NON         0.1341
      3 C3         36.5960    3.4540   -3.5520 C.3       1 NON         0.1141
      4 C4         37.4020    4.4970   -2.8290 C.3       1 NON         0.1119
      5 C5         38.6660    4.7360   -3.6600 C.3       1 NON         0.1130
      6 C6         39.5880    5.7890   -3.0810 C.3       1 NON         0.0730
      7 C7         39.6690    2.8300   -6.5130 C.3       1 NON         0.0395
      8 O1         38.4490    2.7680   -5.7330 O.3       1 NON        -0.3520
      9 O2         37.5340    1.5910   -2.4580 O.3       1 NON        -0.3841
     10 O3         35.3930    3.1860   -2.7920 O.3       1 NON        -0.3864
     11 O4         36.5900    5.6920   -2.7090 O.3       1 NON        -0.3865
     12 O5         39.4020    3.5040   -3.7220 O.3       1 NON        -0.3405
     13 O6         40.1340    5.3900   -1.8090 O.3       1 NON        -0.3924
     14 H1         39.3729    1.5504   -4.3298 H         1 NON         0.0937
     15 H2         36.8018    1.4762   -4.4173 H         1 NON         0.0671
     16 H3         36.3156    3.8536   -4.5377 H         1 NON         0.0648
     17 H4         37.6802    4.1419   -1.8258 H         1 NON         0.0647
     18 H5         38.3676    5.0451   -4.6726 H         1 NON         0.0647
     19 H6         39.0211    6.7220   -2.9468 H         1 NON         0.0584
     20 H7         40.4161    5.9610   -3.7843 H         1 NON         0.0584
     21 H8         39.4249    3.0786   -7.5564 H         1 NON         0.0525
     22 H9         40.1768    1.8549   -6.4776 H         1 NON         0.0525
     23 H10        40.3312    3.6036   -6.0971 H         1 NON         0.0525
     24 H11        38.0124    0.7733   -2.5284 H         1 NON         0.2101
     25 H12        34.8762    2.5274   -3.2411 H         1 NON         0.2100
     26 H13        37.0960    6.3762   -2.2867 H         1 NON         0.2100
     27 H14        39.4255    5.2449   -1.1930 H         1 NON         0.2095
@<TRIPOS>BOND
     1    1    2 1  
     2    1    8 1  
     3    1   12 1  
     4    2    3 1  
     5    2    9 1  
     6    3    4 1  
     7    3   10 1  
     8    4    5 1  
     9    4   11 1  
    10    5    6 1  
    11    5   12 1  
    12    6   13 1  
    13    8    7 1  
    14    1   14 1  
    15    2   15 1  
    16    3   16 1  
    17    4   17 1  
    18    5   18 1  
    19    6   19 1  
    20    6   20 1  
    21    7   21 1  
    22    7   22 1  
    23    7   23 1  
    24    9   24 1  
    25   10   25 1  
    26   11   26 1  
    27   13   27 1  
@<TRIPOS>SUBSTRUCTURE
     1 NON         1

