### 
### Created by X-TOOL on Mon Sep 10 21:12:55 2018
### 

@<TRIPOS>MOLECULE
2jdo_ligand
   51    53     1     0     0
SMALL
GAST_HUCK


@<TRIPOS>ATOM
      1 CL1        41.5950   30.3140  106.2120 Cl        1 I5S        -0.0771
      2 C2         42.0400   29.2260  107.4840 C.ar      1 I5S         0.0330
      3 C3         41.2280   28.1470  107.7880 C.ar      1 I5S        -0.0545
      4 C4         41.5800   27.2790  108.7980 C.ar      1 I5S        -0.0575
      5 C5         42.7590   27.4690  109.5090 C.ar      1 I5S        -0.0172
      6 C6         43.1460   26.5180  110.6110 C.3       1 I5S         0.0820
      7 O7         43.1770   27.2270  111.8590 O.3       1 I5S        -0.3620
      8 C8         41.8740   27.6430  112.3000 C.3       1 I5S         0.0901
      9 C9         41.9990   28.1640  113.7160 C.3       1 I5S        -0.0094
     10 N10        42.1930   29.6180  113.7030 N.4       1 I5S         0.2297
     11 C13        43.5890   29.9970  113.4950 C.3       1 I5S        -0.0164
     12 C14        43.7130   31.5080  113.5590 C.3       1 I5S         0.0665
     13 N15        44.7960   31.9930  112.7090 N.am      1 I5S        -0.2421
     14 S16        44.4990   32.5910  111.2090 S.o2      1 I5S         0.0706
     15 O17        45.7660   32.6550  110.5420 O.2       1 I5S        -0.1500
     16 O18        43.4520   31.8000  110.6290 O.2       1 I5S        -0.1500
     17 C19        43.8860   34.2280  111.4430 C.ar      1 I5S         0.1234
     18 C20        42.5150   34.4410  111.3690 C.ar      1 I5S        -0.0287
     19 C21        41.9840   35.6980  111.5610 C.ar      1 I5S        -0.0534
     20 C22        42.8060   36.7700  111.8340 C.ar      1 I5S        -0.0451
     21 C23        44.1770   36.6000  111.9330 C.ar      1 I5S         0.0110
     22 C24        45.0270   37.6620  112.2180 C.ar      1 I5S         0.0199
     23 N25        46.3540   37.5470  112.3190 N.ar      1 I5S        -0.2974
     24 C26        46.8740   36.3320  112.1230 C.ar      1 I5S         0.0077
     25 C27        46.1160   35.2170  111.8420 C.ar      1 I5S        -0.0294
     26 C28        44.7360   35.3260  111.7370 C.ar      1 I5S         0.0243
     27 C29        43.5700   28.5560  109.2010 C.ar      1 I5S        -0.0575
     28 C30        43.2160   29.4260  108.1910 C.ar      1 I5S        -0.0545
     29 H1         40.3130   27.9847  107.2299 H         1 I5S         0.0606
     30 H2         40.9337   26.4429  109.0397 H         1 I5S         0.0558
     31 H3         44.1410   26.0983  110.4019 H         1 I5S         0.0725
     32 H4         42.4092   25.7033  110.6692 H         1 I5S         0.0725
     33 H5         41.1824   26.7879  112.2774 H         1 I5S         0.0615
     34 H6         41.4946   28.4390  111.6424 H         1 I5S         0.0615
     35 H7         42.8610   27.6864  114.2046 H         1 I5S         0.0837
     36 H8         41.0819   27.9244  114.2741 H         1 I5S         0.0837
     37 H9         41.8850   29.9927  114.5866 H         1 I5S         0.2015
     38 H10        41.6376   30.0112  112.9594 H         1 I5S         0.2015
     39 H11        43.9231   29.6423  112.5088 H         1 I5S         0.0830
     40 H12        44.2136   29.5435  114.2787 H         1 I5S         0.0830
     41 H13        43.9138   31.8063  114.5985 H         1 I5S         0.0528
     42 H14        42.7670   31.9587  113.2243 H         1 I5S         0.0528
     43 H15        45.7367   31.9604  113.0467 H         1 I5S         0.1675
     44 H16        41.8547   33.6077  111.1575 H         1 I5S         0.0675
     45 H17        40.9119   35.8447  111.4968 H         1 I5S         0.0645
     46 H18        42.3756   37.7552  111.9725 H         1 I5S         0.0659
     47 H19        44.5871   38.6415  112.3671 H         1 I5S         0.0870
     48 H20        47.9500   36.2177  112.1887 H         1 I5S         0.0775
     49 H21        46.5964   34.2553  111.7030 H         1 I5S         0.0716
     50 H22        44.4854   28.7204  109.7578 H         1 I5S         0.0558
     51 H23        43.8571   30.2662  107.9499 H         1 I5S         0.0606
@<TRIPOS>BOND
     1    1    2 1  
     2    2    3 ar 
     3    2   28 ar 
     4    3    4 ar 
     5    4    5 ar 
     6    5    6 1  
     7    5   27 ar 
     8    6    7 1  
     9    7    8 1  
    10    8    9 1  
    11    9   10 1  
    12   10   11 1  
    13   11   12 1  
    14   12   13 1  
    15   13   14 am 
    16   14   15 2  
    17   14   16 2  
    18   14   17 1  
    19   17   18 ar 
    20   17   26 ar 
    21   18   19 ar 
    22   19   20 ar 
    23   20   21 ar 
    24   21   22 ar 
    25   21   26 ar 
    26   22   23 ar 
    27   23   24 ar 
    28   24   25 ar 
    29   25   26 ar 
    30   27   28 ar 
    31    3   29 1  
    32    4   30 1  
    33    6   31 1  
    34    6   32 1  
    35    8   33 1  
    36    8   34 1  
    37    9   35 1  
    38    9   36 1  
    39   10   37 1  
    40   10   38 1  
    41   11   39 1  
    42   11   40 1  
    43   12   41 1  
    44   12   42 1  
    45   13   43 1  
    46   18   44 1  
    47   19   45 1  
    48   20   46 1  
    49   22   47 1  
    50   24   48 1  
    51   25   49 1  
    52   27   50 1  
    53   28   51 1  
@<TRIPOS>SUBSTRUCTURE
     1 I5S         1

