### 
### Created by X-TOOL on Mon Sep 10 21:12:55 2018
### 

@<TRIPOS>MOLECULE
2jdp_ligand
   26    26     1     0     0
SMALL
GAST_HUCK


@<TRIPOS>ATOM
      1 C1        -34.8140    9.0870  -42.3930 C.3       1 MFU         0.1875
      2 C2        -33.7980    8.8930  -41.2920 C.3       1 MFU         0.1341
      3 C3        -33.8980   10.0480  -40.3070 C.3       1 MFU         0.1140
      4 C4        -35.3050   10.2150  -39.7320 C.3       1 MFU         0.1095
      5 C5        -36.3340   10.2570  -40.8700 C.3       1 MFU         0.0873
      6 C6        -37.7870   10.2780  -40.3860 C.3       1 MFU        -0.0361
      7 O1        -34.4750   10.2670  -43.1470 O.3       1 MFU        -0.3520
      8 O2        -32.4840    8.8950  -41.8400 O.3       1 MFU        -0.3841
      9 O3        -32.9580    9.8190  -39.2430 O.3       1 MFU        -0.3864
     10 O4        -35.5300    9.1180  -38.8320 O.3       1 MFU        -0.3866
     11 O5        -36.1080    9.1790  -41.7770 O.3       1 MFU        -0.3431
     12 CM        -35.1970   10.3070  -44.3820 C.3       1 MFU         0.0395
     13 H1        -34.7993    8.2195  -43.0691 H         1 MFU         0.0937
     14 H2        -33.9878    7.9400  -40.7765 H         1 MFU         0.0671
     15 H3        -33.6286   10.9772  -40.8305 H         1 MFU         0.0648
     16 H4        -35.3645   11.1591  -39.1707 H         1 MFU         0.0646
     17 H5        -36.1678   11.1945  -41.4209 H         1 MFU         0.0621
     18 H6        -38.4622   10.3078  -41.2539 H         1 MFU         0.0255
     19 H7        -37.9528   11.1685  -39.7618 H         1 MFU         0.0255
     20 H8        -37.9897    9.3728  -39.7947 H         1 MFU         0.0255
     21 H9        -32.3286    9.7202  -42.2842 H         1 MFU         0.2101
     22 H10       -32.9680   10.5597  -38.6483 H         1 MFU         0.2100
     23 H11       -36.3937    9.1994  -38.4449 H         1 MFU         0.2100
     24 H12       -34.9217   11.2151  -44.9384 H         1 MFU         0.0525
     25 H13       -36.2773   10.3173  -44.1750 H         1 MFU         0.0525
     26 H14       -34.9470    9.4195  -44.9819 H         1 MFU         0.0525
@<TRIPOS>BOND
     1    1    2 1  
     2    1    7 1  
     3    1   11 1  
     4    2    3 1  
     5    2    8 1  
     6    3    4 1  
     7    3    9 1  
     8    4    5 1  
     9    4   10 1  
    10    5    6 1  
    11    5   11 1  
    12    7   12 1  
    13    1   13 1  
    14    2   14 1  
    15    3   15 1  
    16    4   16 1  
    17    5   17 1  
    18    6   18 1  
    19    6   19 1  
    20    6   20 1  
    21    8   21 1  
    22    9   22 1  
    23   10   23 1  
    24   12   24 1  
    25   12   25 1  
    26   12   26 1  
@<TRIPOS>SUBSTRUCTURE
     1 MFU         1

