### 
### Created by X-TOOL on Mon Sep 10 21:12:56 2018
### 

@<TRIPOS>MOLECULE
2jds_ligand
   54    58     1     0     0
SMALL
GAST_HUCK


@<TRIPOS>ATOM
      1 C1          5.2660   10.4400    5.5250 C.3       1 L20        -0.0224
      2 C2          4.6210   10.2650    4.1860 C.2       1 L20         0.0324
      3 N3          3.2910   10.2130    3.9520 N.2       1 L20        -0.2183
      4 N4          3.0470   10.0550    2.6330 N.pl3     1 L20        -0.2231
      5 C6          4.2510   10.0170    1.9210 C.ar      1 L20         0.0855
      6 C7          4.5590    9.8680    0.5620 C.ar      1 L20        -0.0342
      7 C8          5.8810    9.8780    0.1840 C.ar      1 L20        -0.0608
      8 C9          6.9390    9.9970    1.1450 C.ar      1 L20        -0.0232
      9 C10         6.6500   10.1370    2.5050 C.ar      1 L20        -0.0530
     10 C11         5.3130   10.1620    2.9070 C.ar      1 L20         0.0170
     11 C12         8.3300    9.9810    0.6680 C.ar      1 L20        -0.0062
     12 C13         8.5930   10.4500   -0.6350 C.ar      1 L20         0.0047
     13 N14         9.7940   10.4900   -1.2240 N.ar      1 L20        -0.3083
     14 C15        10.8200   10.0540   -0.4890 C.ar      1 L20         0.0376
     15 C16        10.6840    9.5480    0.8020 C.ar      1 L20         0.1174
     16 O17        11.8460    9.1220    1.4320 O.3       1 L20        -0.3052
     17 C18        11.9780    8.1240    2.4350 C.3       1 L20         0.1156
     18 C19        13.4770    7.7060    2.3250 C.3       1 L20         0.0083
     19 N21        13.6780    6.9530    1.0090 N.4       1 L20         0.2236
     20 C25        14.4850    8.9090    2.5360 C.3       1 L20         0.0094
     21 C26        14.6420    9.8410    1.3870 C.2       1 L20        -0.0409
     22 C27        15.3690    9.5750    0.2160 C.2       1 L20         0.0166
     23 N28        15.2870   10.6400   -0.6800 N.pl3     1 L20        -0.2891
     24 C30        14.4790   11.6510   -0.1260 C.ar      1 L20         0.0603
     25 C31        14.0800   12.9000   -0.6610 C.ar      1 L20        -0.0443
     26 C32        13.2600   13.7160    0.1230 C.ar      1 L20        -0.0768
     27 C33        12.8400   13.2790    1.4070 C.ar      1 L20        -0.0792
     28 C34        13.2220   12.0460    1.9290 C.ar      1 L20        -0.0747
     29 C35        14.0590   11.1890    1.1860 C.ar      1 L20        -0.0214
     30 C36         9.4230    9.4970    1.4340 C.ar      1 L20        -0.0093
     31 H1          6.3597   10.4449    5.4073 H         1 L20         0.0387
     32 H2          4.9720    9.6105    6.1849 H         1 L20         0.0387
     33 H3          4.9406   11.3933    5.9670 H         1 L20         0.0387
     34 H4          2.1104    9.9742    2.2122 H         1 L20         0.2398
     35 H5          3.7728    9.7476   -0.1745 H         1 L20         0.0561
     36 H6          6.1300    9.7938   -0.8676 H         1 L20         0.0595
     37 H7          7.4479   10.2245    3.2335 H         1 L20         0.0620
     38 H8          7.7480   10.8100   -1.2107 H         1 L20         0.0723
     39 H9         11.8135   10.0960   -0.9205 H         1 L20         0.0735
     40 H10        11.3144    7.2705    2.2322 H         1 L20         0.0675
     41 H11        11.7546    8.5336    3.4311 H         1 L20         0.0675
     42 H12        13.6763    6.9935    3.1391 H         1 L20         0.0892
     43 H13        14.6436    6.6763    0.9243 H         1 L20         0.1999
     44 H14        13.4315    7.5531    0.2375 H         1 L20         0.1999
     45 H15        13.0914    6.1333    0.9979 H         1 L20         0.1999
     46 H16        15.4740    8.4832    2.7608 H         1 L20         0.0405
     47 H17        14.1334    9.4948    3.3981 H         1 L20         0.0405
     48 H18        15.9245    8.6567    0.0315 H         1 L20         0.0795
     49 H19        15.7452   10.6807   -1.6016 H         1 L20         0.2216
     50 H20        14.4007   13.2133   -1.6479 H         1 L20         0.0541
     51 H21        12.9442   14.6837   -0.2496 H         1 L20         0.0530
     52 H22        12.2022   13.9253    1.9992 H         1 L20         0.0510
     53 H23        12.8745   11.7440    2.9104 H         1 L20         0.0540
     54 H24         9.2971    9.1129    2.4398 H         1 L20         0.0646
@<TRIPOS>BOND
     1    1    2 1  
     2    2    3 2  
     3    2   10 1  
     4    3    4 1  
     5    4    5 1  
     6    5    6 ar 
     7    5   10 ar 
     8    6    7 ar 
     9    7    8 ar 
    10    8    9 ar 
    11    8   11 1  
    12    9   10 ar 
    13   11   12 ar 
    14   11   30 ar 
    15   12   13 ar 
    16   13   14 ar 
    17   14   15 ar 
    18   15   16 1  
    19   15   30 ar 
    20   16   17 1  
    21   17   18 1  
    22   18   19 1  
    23   18   20 1  
    24   20   21 1  
    25   21   22 2  
    26   21   29 1  
    27   22   23 1  
    28   23   24 1  
    29   24   25 ar 
    30   24   29 ar 
    31   25   26 ar 
    32   26   27 ar 
    33   27   28 ar 
    34   28   29 ar 
    35    1   31 1  
    36    1   32 1  
    37    1   33 1  
    38    4   34 1  
    39    6   35 1  
    40    7   36 1  
    41    9   37 1  
    42   12   38 1  
    43   14   39 1  
    44   17   40 1  
    45   17   41 1  
    46   18   42 1  
    47   19   43 1  
    48   19   44 1  
    49   19   45 1  
    50   20   46 1  
    51   20   47 1  
    52   22   48 1  
    53   23   49 1  
    54   25   50 1  
    55   26   51 1  
    56   27   52 1  
    57   28   53 1  
    58   30   54 1  
@<TRIPOS>SUBSTRUCTURE
     1 L20         1

