### 
### Created by X-TOOL on Mon Sep 10 21:12:56 2018
### 

@<TRIPOS>MOLECULE
2jdt_ligand
   51    53     1     0     0
SMALL
GAST_HUCK


@<TRIPOS>ATOM
      1 CL1        13.2310   14.5970   -0.2260 Cl        1 I5S        -0.0771
      2 C2         13.6970   13.3090    0.7800 C.ar      1 I5S         0.0330
      3 C3         13.0560   13.1470    1.9910 C.ar      1 I5S        -0.0545
      4 C4         13.4400   12.1090    2.8110 C.ar      1 I5S        -0.0575
      5 C5         14.4570   11.2710    2.4130 C.ar      1 I5S        -0.0172
      6 C6         14.8320   10.1160    3.3140 C.3       1 I5S         0.0820
      7 O7         13.9830    9.0340    2.7510 O.3       1 I5S        -0.3620
      8 C8         14.2990    7.6970    3.1980 C.3       1 I5S         0.0901
      9 C9         13.0100    6.7910    3.3550 C.3       1 I5S        -0.0094
     10 N10        11.6830    7.3230    2.8470 N.4       1 I5S         0.2297
     11 C13        11.0070    7.9290    3.8850 C.3       1 I5S        -0.0164
     12 C14         9.5550    8.0250    3.5140 C.3       1 I5S         0.0665
     13 N15         9.0510    9.0620    4.3610 N.am      1 I5S        -0.2421
     14 S16         8.8330   10.5260    3.6980 S.o2      1 I5S         0.0706
     15 O17         8.6970   11.3800    4.8170 O.2       1 I5S        -0.1500
     16 O18         9.8540   10.7370    2.7460 O.2       1 I5S        -0.1500
     17 C19         7.3160   10.3780    2.8450 C.ar      1 I5S         0.1234
     18 C20         7.3180   10.2840    1.4770 C.ar      1 I5S        -0.0287
     19 C21         6.1460   10.1500    0.7510 C.ar      1 I5S        -0.0534
     20 C22         4.9440   10.0720    1.3880 C.ar      1 I5S        -0.0451
     21 C23         4.8970   10.1480    2.7960 C.ar      1 I5S         0.0110
     22 C24         3.6650   10.0830    3.4860 C.ar      1 I5S         0.0199
     23 N25         3.6290   10.1700    4.8120 N.ar      1 I5S        -0.2974
     24 C26         4.7420   10.3040    5.5250 C.ar      1 I5S         0.0077
     25 C27         5.9800   10.3920    4.9460 C.ar      1 I5S        -0.0294
     26 C28         6.0960   10.3200    3.5370 C.ar      1 I5S         0.0243
     27 C29        15.0880   11.4220    1.1800 C.ar      1 I5S        -0.0575
     28 C30        14.7010   12.4640    0.3530 C.ar      1 I5S        -0.0545
     29 H1         12.2647   13.8242    2.2916 H         1 I5S         0.0606
     30 H2         12.9450   11.9532    3.7627 H         1 I5S         0.0558
     31 H3         14.5790   10.3235    4.3642 H         1 I5S         0.0725
     32 H4         15.9019    9.8727    3.2357 H         1 I5S         0.0725
     33 H5         14.8061    7.7610    4.1720 H         1 I5S         0.0615
     34 H6         14.9719    7.2293    2.4642 H         1 I5S         0.0615
     35 H7         12.8872    6.5848    4.4285 H         1 I5S         0.0837
     36 H8         13.2079    5.8499    2.8211 H         1 I5S         0.0837
     37 H9         11.1311    6.5610    2.4852 H         1 I5S         0.2015
     38 H10        11.8481    7.9956    2.1147 H         1 I5S         0.2015
     39 H11        11.4141    8.9366    4.0553 H         1 I5S         0.0830
     40 H12        11.1175    7.3293    4.8005 H         1 I5S         0.0830
     41 H13         9.0375    7.0742    3.7093 H         1 I5S         0.0528
     42 H14         9.4390    8.2947    2.4539 H         1 I5S         0.0528
     43 H15         8.8414    8.8909    5.3237 H         1 I5S         0.1675
     44 H16         8.2639   10.3155    0.9485 H         1 I5S         0.0675
     45 H17         6.1853   10.1069   -0.3314 H         1 I5S         0.0645
     46 H18         4.0304    9.9524    0.8170 H         1 I5S         0.0659
     47 H19         2.7426    9.9613    2.9297 H         1 I5S         0.0870
     48 H20         4.6674   10.3452    6.6056 H         1 I5S         0.0775
     49 H21         6.8637   10.5158    5.5615 H         1 I5S         0.0716
     50 H22        15.8688   10.7356    0.8729 H         1 I5S         0.0558
     51 H23        15.1770   12.6124   -0.6095 H         1 I5S         0.0606
@<TRIPOS>BOND
     1    1    2 1  
     2    2    3 ar 
     3    2   28 ar 
     4    3    4 ar 
     5    4    5 ar 
     6    5    6 1  
     7    5   27 ar 
     8    6    7 1  
     9    7    8 1  
    10    8    9 1  
    11    9   10 1  
    12   10   11 1  
    13   11   12 1  
    14   12   13 1  
    15   13   14 am 
    16   14   15 2  
    17   14   16 2  
    18   14   17 1  
    19   17   18 ar 
    20   17   26 ar 
    21   18   19 ar 
    22   19   20 ar 
    23   20   21 ar 
    24   21   22 ar 
    25   21   26 ar 
    26   22   23 ar 
    27   23   24 ar 
    28   24   25 ar 
    29   25   26 ar 
    30   27   28 ar 
    31    3   29 1  
    32    4   30 1  
    33    6   31 1  
    34    6   32 1  
    35    8   33 1  
    36    8   34 1  
    37    9   35 1  
    38    9   36 1  
    39   10   37 1  
    40   10   38 1  
    41   11   39 1  
    42   11   40 1  
    43   12   41 1  
    44   12   42 1  
    45   13   43 1  
    46   18   44 1  
    47   19   45 1  
    48   20   46 1  
    49   22   47 1  
    50   24   48 1  
    51   25   49 1  
    52   27   50 1  
    53   28   51 1  
@<TRIPOS>SUBSTRUCTURE
     1 I5S         1

