### 
### Created by X-TOOL on Mon Sep 10 21:12:55 2018
### 

@<TRIPOS>MOLECULE
2jdu_ligand
   26    26     1     0     0
SMALL
GAST_HUCK


@<TRIPOS>ATOM
      1 C1        -40.0780   20.3600   11.1970 C.3       1 MFU         0.1875
      2 C2        -38.6790   19.8620   11.4050 C.3       1 MFU         0.1341
      3 C3        -38.1330   20.3660   12.7550 C.3       1 MFU         0.1140
      4 C4        -39.0380   20.0820   13.9480 C.3       1 MFU         0.1095
      5 C5        -40.4120   20.6450   13.6230 C.3       1 MFU         0.0873
      6 C6        -41.4090   20.5160   14.7940 C.3       1 MFU        -0.0361
      7 O1        -40.0430   21.7910   11.0070 O.3       1 MFU        -0.3520
      8 O2        -37.7690   20.2470   10.3390 O.3       1 MFU        -0.3841
      9 O3        -36.8690   19.7030   12.9710 O.3       1 MFU        -0.3864
     10 O4        -39.0420   18.6540   14.1730 O.3       1 MFU        -0.3866
     11 O5        -40.8770   20.0520   12.3800 O.3       1 MFU        -0.3431
     12 CM        -41.3320   22.2360   10.4930 C.3       1 MFU         0.0395
     13 H1        -40.5192   19.8765   10.3130 H         1 MFU         0.0937
     14 H2        -38.7166   18.7630   11.4339 H         1 MFU         0.0671
     15 H3        -37.9785   21.4530   12.6884 H         1 MFU         0.0648
     16 H4        -38.6486   20.5835   14.8462 H         1 MFU         0.0646
     17 H5        -40.2891   21.7228   13.4406 H         1 MFU         0.0621
     18 H6        -42.3799   20.9395   14.4972 H         1 MFU         0.0255
     19 H7        -41.0221   21.0623   15.6669 H         1 MFU         0.0255
     20 H8        -41.5357   19.4543   15.0525 H         1 MFU         0.0255
     21 H9        -38.1071   19.9355    9.5076 H         1 MFU         0.2101
     22 H10       -36.4707   20.0347   13.7671 H         1 MFU         0.2100
     23 H11       -39.6144   18.4513   14.9036 H         1 MFU         0.2100
     24 H12       -41.3116   23.3260   10.3461 H         1 MFU         0.0525
     25 H13       -42.1227   21.9778   11.2128 H         1 MFU         0.0525
     26 H14       -41.5346   21.7403    9.5322 H         1 MFU         0.0525
@<TRIPOS>BOND
     1    1    2 1  
     2    1    7 1  
     3    1   11 1  
     4    2    3 1  
     5    2    8 1  
     6    3    4 1  
     7    3    9 1  
     8    4    5 1  
     9    4   10 1  
    10    5    6 1  
    11    5   11 1  
    12    7   12 1  
    13    1   13 1  
    14    2   14 1  
    15    3   15 1  
    16    4   16 1  
    17    5   17 1  
    18    6   18 1  
    19    6   19 1  
    20    6   20 1  
    21    8   21 1  
    22    9   22 1  
    23   10   23 1  
    24   12   24 1  
    25   12   25 1  
    26   12   26 1  
@<TRIPOS>SUBSTRUCTURE
     1 MFU         1

