### 
### Created by X-TOOL on Mon Sep 10 21:12:56 2018
### 

@<TRIPOS>MOLECULE
2jdv_ligand
   54    58     1     0     0
SMALL
GAST_HUCK


@<TRIPOS>ATOM
      1 C1          4.6300    9.6460    5.4830 C.3       1 L20         0.0342
      2 C2          3.9820    9.6170    4.1620 C.2       1 L20         0.1388
      3 N3          2.6600    9.5430    3.9270 N.pl3     1 L20        -0.2570
      4 N4          2.4940    9.5320    2.5900 N.2       1 L20        -0.3955
      5 C6          3.6740    9.6100    1.9010 C.ar      1 L20        -0.0369
      6 C7          3.9820    9.6390    0.5150 C.ar      1 L20        -0.0618
      7 C8          5.3300    9.7180    0.2000 C.ar      1 L20        -0.0528
      8 C9          6.3620    9.7830    1.1680 C.ar      1 L20        -0.0121
      9 C10         6.0380    9.7610    2.5410 C.ar      1 L20        -0.0331
     10 C11         4.6930    9.6820    2.9080 C.ar      1 L20         0.0502
     11 C12         7.7610    9.8900    0.7360 C.ar      1 L20         0.0004
     12 C13         8.1180   10.6090   -0.4380 C.ar      1 L20         0.0072
     13 N14         9.3890   10.7540   -0.8510 N.ar      1 L20        -0.3066
     14 C15        10.3620   10.1750   -0.1680 C.ar      1 L20         0.0391
     15 C16        10.1120    9.4190    0.9860 C.ar      1 L20         0.1190
     16 O17        11.1580    8.8460    1.6870 O.3       1 L20        -0.3048
     17 C18        11.0350    7.5980    2.3610 C.3       1 L20         0.1156
     18 C19        12.4580    7.3990    2.9270 C.3       1 L20         0.0083
     19 N21        13.3660    7.2540    1.7530 N.4       1 L20         0.2236
     20 C25        12.9710    8.5600    3.8470 C.3       1 L20         0.0094
     21 C26        12.1550    8.6550    5.0680 C.2       1 L20        -0.0409
     22 C27        12.4130    7.9870    6.2650 C.2       1 L20         0.0166
     23 N28        11.4120    8.2470    7.1860 N.pl3     1 L20        -0.2891
     24 C30        10.4700    9.0920    6.6090 C.ar      1 L20         0.0603
     25 C31         9.2970    9.6280    7.1460 C.ar      1 L20        -0.0443
     26 C32         8.5450   10.4530    6.3380 C.ar      1 L20        -0.0768
     27 C33         8.9440   10.7100    5.0060 C.ar      1 L20        -0.0792
     28 C34        10.1130   10.2060    4.4590 C.ar      1 L20        -0.0747
     29 C35        10.9140    9.3830    5.2540 C.ar      1 L20        -0.0214
     30 C36         8.7980    9.2870    1.4520 C.ar      1 L20        -0.0068
     31 H1          5.7207    9.7090    5.3550 H         1 L20         0.0591
     32 H2          4.3780    8.7287    6.0353 H         1 L20         0.0591
     33 H3          4.2757   10.5220    6.0461 H         1 L20         0.0591
     34 H4          1.9141    9.5023    4.6362 H         1 L20         0.2720
     35 H5          3.2126    9.6018   -0.2477 H         1 L20         0.0617
     36 H6          5.6101    9.7307   -0.8471 H         1 L20         0.0632
     37 H7          6.8161    9.8045    3.2945 H         1 L20         0.0647
     38 H8          7.3284   11.0611   -1.0272 H         1 L20         0.0736
     39 H9         11.3841   10.2883   -0.5108 H         1 L20         0.0746
     40 H10        10.7658    6.7914    1.6632 H         1 L20         0.0675
     41 H11        10.2879    7.6505    3.1667 H         1 L20         0.0675
     42 H12        12.4703    6.4710    3.5175 H         1 L20         0.0892
     43 H13        14.3121    7.1210    2.0744 H         1 L20         0.1999
     44 H14        13.3176    8.0860    1.1860 H         1 L20         0.1999
     45 H15        13.0822    6.4569    1.2051 H         1 L20         0.1999
     46 H16        12.9098    9.5106    3.2969 H         1 L20         0.0405
     47 H17        14.0169    8.3644    4.1260 H         1 L20         0.0405
     48 H18        13.2781    7.3517    6.4490 H         1 L20         0.0795
     49 H19        11.3716    7.8741    8.1453 H         1 L20         0.2216
     50 H20         8.9897    9.4032    8.1609 H         1 L20         0.0541
     51 H21         7.6411   10.9082    6.7263 H         1 L20         0.0530
     52 H22         8.3067   11.3291    4.3850 H         1 L20         0.0510
     53 H23        10.3985   10.4442    3.4407 H         1 L20         0.0540
     54 H24         8.5886    8.7251    2.3551 H         1 L20         0.0660
@<TRIPOS>BOND
     1    1    2 1  
     2    2    3 1  
     3    2   10 2  
     4    3    4 1  
     5    4    5 2  
     6    5    6 ar 
     7    5   10 ar 
     8    6    7 ar 
     9    7    8 ar 
    10    8    9 ar 
    11    8   11 1  
    12    9   10 ar 
    13   11   12 ar 
    14   11   30 ar 
    15   12   13 ar 
    16   13   14 ar 
    17   14   15 ar 
    18   15   16 1  
    19   15   30 ar 
    20   16   17 1  
    21   17   18 1  
    22   18   19 1  
    23   18   20 1  
    24   20   21 1  
    25   21   22 2  
    26   21   29 1  
    27   22   23 1  
    28   23   24 1  
    29   24   25 ar 
    30   24   29 ar 
    31   25   26 ar 
    32   26   27 ar 
    33   27   28 ar 
    34   28   29 ar 
    35    1   31 1  
    36    1   32 1  
    37    1   33 1  
    38    3   34 1  
    39    6   35 1  
    40    7   36 1  
    41    9   37 1  
    42   12   38 1  
    43   14   39 1  
    44   17   40 1  
    45   17   41 1  
    46   18   42 1  
    47   19   43 1  
    48   19   44 1  
    49   19   45 1  
    50   20   46 1  
    51   20   47 1  
    52   22   48 1  
    53   23   49 1  
    54   25   50 1  
    55   26   51 1  
    56   27   52 1  
    57   28   53 1  
    58   30   54 1  
@<TRIPOS>SUBSTRUCTURE
     1 L20         1

