### 
### Created by X-TOOL on Mon Sep 10 21:12:55 2018
### 

@<TRIPOS>MOLECULE
2jew_ligand
   38    38     1     0     0
SMALL
GAST_HUCK


@<TRIPOS>ATOM
      1 N          79.4660   16.3410   -0.6950 N.4       1 720         0.2185
      2 CA         80.3290   17.2560   -1.4440 C.3       1 720        -0.0353
      3 CG         80.1640   24.3510    3.2950 C.2       1 720         0.0931
      4 CE1        82.9680   27.6400    2.1870 C.3       1 720        -0.0627
      5 CE2        82.2210   25.2580    2.5410 C.3       1 720         0.0553
      6 CZ         82.0740   26.4970    1.6750 C.3       1 720        -0.0278
      7 CH         80.9250   18.3120   -0.4950 C.3       1 720        -0.0108
      8 CM         79.8310   19.3380   -0.0960 C.3       1 720        -0.0325
      9 CA2        80.3960   20.3740    0.8910 C.3       1 720         0.0180
     10 CB2        79.2870   21.4050    1.2370 C.3       1 720        -0.0117
     11 CG2        79.9220   22.5910    1.9040 C.2       1 720        -0.0051
     12 CD3        81.0240   23.2840    1.6310 C.2       1 720         0.0318
     13 N2         79.4760   23.3650    2.9890 N.2       1 720        -0.3252
     14 C          80.9750   19.8280    2.1520 C.2       1 720         0.0393
     15 N1         81.1310   24.3080    2.4560 N.pl3     1 720        -0.2610
     16 O          82.2020   19.9810    2.3710 O.co2     1 720        -0.5686
     17 OXT        80.2260   19.2290    2.9540 O.co2     1 720        -0.5686
     18 H1         79.0801   15.6534   -1.3230 H         1 720         0.1994
     19 H2         78.7172   16.8613   -0.2654 H         1 720         0.1994
     20 H3         80.0064   15.8782    0.0190 H         1 720         0.1994
     21 H4         79.7376   17.7589   -2.2233 H         1 720         0.0813
     22 H5         81.1445   16.6860   -1.9130 H         1 720         0.0813
     23 H6         79.9881   25.0781    4.0864 H         1 720         0.1201
     24 H7         82.8409   28.5219    1.5420 H         1 720         0.0231
     25 H8         84.0201   27.3197    2.1670 H         1 720         0.0231
     26 H9         82.6820   27.8955    3.2180 H         1 720         0.0231
     27 H10        82.3062   25.5839    3.5881 H         1 720         0.0619
     28 H11        83.1450   24.7420    2.2412 H         1 720         0.0619
     29 H12        82.3626   26.2500    0.6427 H         1 720         0.0290
     30 H13        81.0245   26.8258    1.6937 H         1 720         0.0290
     31 H14        81.7488   18.8354   -1.0024 H         1 720         0.0318
     32 H15        81.3075   17.8159    0.4092 H         1 720         0.0318
     33 H16        78.9925   18.8068    0.3779 H         1 720         0.0289
     34 H17        79.4740   19.8556   -0.9986 H         1 720         0.0289
     35 H18        81.2076   20.9030    0.3700 H         1 720         0.0482
     36 H19        78.5545   20.9462    1.9174 H         1 720         0.0393
     37 H20        78.7801   21.7265    0.3152 H         1 720         0.0393
     38 H21        81.7342   23.0416    0.8418 H         1 720         0.0731
@<TRIPOS>BOND
     1    2    1 1  
     2    7    2 1  
     3   13    3 2  
     4    3   15 1  
     5    6    4 1  
     6    5    6 1  
     7   15    5 1  
     8    8    7 1  
     9    9    8 1  
    10   10    9 1  
    11    9   14 1  
    12   11   10 1  
    13   11   12 2  
    14   11   13 1  
    15   12   15 1  
    16   14   16 ar 
    17   14   17 ar 
    18    1   18 1  
    19    1   19 1  
    20    1   20 1  
    21    2   21 1  
    22    2   22 1  
    23    3   23 1  
    24    4   24 1  
    25    4   25 1  
    26    4   26 1  
    27    5   27 1  
    28    5   28 1  
    29    6   29 1  
    30    6   30 1  
    31    7   31 1  
    32    7   32 1  
    33    8   33 1  
    34    8   34 1  
    35    9   35 1  
    36   10   36 1  
    37   10   37 1  
    38   12   38 1  
@<TRIPOS>SUBSTRUCTURE
     1 720         1

