### 
### Created by X-TOOL on Mon Sep 10 21:12:55 2018
### 

@<TRIPOS>MOLECULE
2jf4_ligand
   49    50     1     0     0
SMALL
GAST_HUCK


@<TRIPOS>ATOM
      1 O7         29.3480   51.1170   15.0070 O.3       1 VDM        -0.3839
      2 C7         30.4530   51.0700   14.1080 C.3       1 VDM         0.0719
      3 C5         30.1730   52.1660   13.1190 C.2       1 VDM        -0.0200
      4 C6         29.6470   51.8400   11.9170 C.2       1 VDM        -0.0543
      5 C4         30.4060   53.5980   13.5600 C.3       1 VDM         0.1112
      6 O4         31.6810   53.8010   14.1500 O.3       1 VDM        -0.3780
      7 C3         30.2820   54.5860   12.4220 C.3       1 VDM         0.1215
      8 O3         30.2030   55.8860   13.0200 O.3       1 VDM        -0.3843
      9 C2         29.0530   54.2270   11.5790 C.3       1 VDM         0.1303
     10 O2         28.7160   55.3020   10.6960 O.3       1 VDM        -0.3821
     11 C1         29.3270   52.8890   10.8540 C.3       1 VDM         0.0140
     12 N1'        30.4380   52.9570    9.8930 N.4       1 VDM         0.2414
     13 C1'        31.1980   51.7480    9.5260 C.3       1 VDM         0.0079
     14 C2'        32.6950   51.9990    9.3400 C.3       1 VDM         0.1257
     15 O2'        33.2030   52.8780   10.3480 O.3       1 VDM        -0.3835
     16 C6'        30.5730   50.9450    8.3630 C.3       1 VDM         0.0001
     17 C5'        31.0630   51.3040    6.9550 C.3       1 VDM         0.0159
     18 C7'        30.5460   50.3000    5.9240 C.3       1 VDM         0.0496
     19 O7'        29.1050   50.2800    5.9320 O.3       1 VDM        -0.3946
     20 C4'        32.5910   51.4640    6.9100 C.3       1 VDM         0.0888
     21 O4'        33.0270   51.8160    5.5890 O.3       1 VDM        -0.3888
     22 C3'        33.0170   52.5180    7.9340 C.3       1 VDM         0.1124
     23 O3'        34.4160   52.7770    7.7980 O.3       1 VDM        -0.3864
     24 H1         29.3146   51.9712   15.4216 H         1 VDM         0.2125
     25 H2         30.5040   50.0937   13.6038 H         1 VDM         0.0706
     26 H3         31.3970   51.2574   14.6406 H         1 VDM         0.0706
     27 H4         29.4443   50.7925   11.6990 H         1 VDM         0.0299
     28 H5         29.6375   53.8356   14.3102 H         1 VDM         0.0769
     29 H6         31.7657   53.2466   14.9169 H         1 VDM         0.2130
     30 H7         31.1746   54.5371   11.7811 H         1 VDM         0.0671
     31 H8         30.1236   56.5427   12.3381 H         1 VDM         0.2102
     32 H9         28.1987   54.0753   12.2551 H         1 VDM         0.0694
     33 H10        29.4480   55.4750   10.1157 H         1 VDM         0.2103
     34 H11        28.4179   52.5934   10.3098 H         1 VDM         0.0950
     35 H12        31.1050   53.6112   10.2715 H         1 VDM         0.2028
     36 H13        30.0545   53.3256    9.0368 H         1 VDM         0.2028
     37 H14        31.1235   51.0880   10.4028 H         1 VDM         0.0877
     38 H15        33.2065   51.0322    9.4573 H         1 VDM         0.0677
     39 H16        32.7478   53.7105   10.2994 H         1 VDM         0.2102
     40 H17        29.4850   51.1046    8.3910 H         1 VDM         0.0325
     41 H18        30.7920   49.8806    8.5337 H         1 VDM         0.0325
     42 H19        30.6307   52.2823    6.6983 H         1 VDM         0.0351
     43 H20        30.9252   49.2973    6.1706 H         1 VDM         0.0561
     44 H21        30.9003   50.5903    4.9239 H         1 VDM         0.0561
     45 H22        28.7762   51.1452    5.7177 H         1 VDM         0.2094
     46 H23        33.0540   50.5039    7.1818 H         1 VDM         0.0623
     47 H24        33.9723   51.9098    5.5832 H         1 VDM         0.2099
     48 H25        32.4598   53.4494    7.7552 H         1 VDM         0.0647
     49 H26        34.5940   53.0966    6.9213 H         1 VDM         0.2100
@<TRIPOS>BOND
     1    1    2 1  
     2    2    3 1  
     3    3    4 2  
     4    3    5 1  
     5    4   11 1  
     6    5    6 1  
     7    5    7 1  
     8    7    8 1  
     9    7    9 1  
    10    9   10 1  
    11    9   11 1  
    12   11   12 1  
    13   12   13 1  
    14   13   14 1  
    15   13   16 1  
    16   14   15 1  
    17   14   22 1  
    18   16   17 1  
    19   17   18 1  
    20   17   20 1  
    21   18   19 1  
    22   20   21 1  
    23   20   22 1  
    24   22   23 1  
    25    1   24 1  
    26    2   25 1  
    27    2   26 1  
    28    4   27 1  
    29    5   28 1  
    30    6   29 1  
    31    7   30 1  
    32    8   31 1  
    33    9   32 1  
    34   10   33 1  
    35   11   34 1  
    36   12   35 1  
    37   12   36 1  
    38   13   37 1  
    39   14   38 1  
    40   15   39 1  
    41   16   40 1  
    42   16   41 1  
    43   17   42 1  
    44   18   43 1  
    45   18   44 1  
    46   19   45 1  
    47   20   46 1  
    48   21   47 1  
    49   22   48 1  
    50   23   49 1  
@<TRIPOS>SUBSTRUCTURE
     1 VDM         1

