### 
### Created by X-TOOL on Fri Sep 26 17:34:38 2014
### 

@<TRIPOS>MOLECULE
2jfh_ligand
   49    50     1     0     0
SMALL
GAST_HUCK


@<TRIPOS>ATOM
      1 O28        21.9100   -4.5900   18.4290 O.2       1 LK1        -0.1507
      2 S11        21.8960   -4.2890   19.8140 S.o2      1 LK1         0.0683
      3 O27        21.6840   -5.4490   20.5860 O.2       1 LK1        -0.1507
      4 N          23.2680   -3.6380   20.3080 N.am      1 LK1        -0.2317
      5 CA         24.6290   -3.8380   19.8440 C.3       1 LK1         0.0913
      6 C          25.3050   -5.1450   20.2270 C.2       1 LK1         0.0565
      7 OXT        25.6270   -5.3590   21.3890 O.co2     1 LK1        -0.5670
      8 O          25.3980   -5.9360   19.2930 O.co2     1 LK1        -0.5670
      9 CB         25.4110   -2.6580   20.4150 C.3       1 LK1        -0.0098
     10 CG         26.7770   -2.5710   19.7860 C.3       1 LK1         0.0034
     11 CD         27.4540   -1.3150   20.2360 C.2       1 LK1         0.0350
     12 OE2        27.9500   -1.3150   21.3630 O.co2     1 LK1        -0.5690
     13 OE1        27.4870   -0.3600   19.4490 O.co2     1 LK1        -0.5690
     14 C12        20.8230   -3.1900   20.1820 C.ar      1 LK1         0.1052
     15 C17        20.5440   -3.0640   21.5230 C.ar      1 LK1        -0.0386
     16 C16        19.6630   -2.1230   22.0020 C.ar      1 LK1        -0.0582
     17 C15        19.0480   -1.2710   21.1090 C.ar      1 LK1        -0.0286
     18 C21        18.1580   -0.3560   21.6070 C.ar      1 LK1        -0.0292
     19 C20        17.5430    0.5350   20.7710 C.ar      1 LK1         0.0922
     20 C19        17.7780    0.4820   19.4000 C.ar      1 LK1        -0.0274
     21 C18        18.6650   -0.4600   18.8950 C.ar      1 LK1        -0.0562
     22 C14        19.3190   -1.3500   19.7510 C.ar      1 LK1        -0.0229
     23 C13        20.2190   -2.3190   19.2720 C.ar      1 LK1        -0.0318
     24 O22        16.6610    1.4250   21.3000 O.3       1 LK1        -0.3174
     25 C23        15.4310    1.5780   20.6070 C.3       1 LK1         0.0707
     26 C24        14.3090    0.8080   21.2630 C.3       1 LK1        -0.0253
     27 C25        13.0040    1.1700   20.5780 C.3       1 LK1        -0.0535
     28 C26        11.8530    1.2940   21.5410 C.3       1 LK1        -0.0652
     29 H1         23.1743   -2.9857   21.0602 H         1 LK1         0.1697
     30 H2         24.6281   -3.7831   18.7454 H         1 LK1         0.0681
     31 H3         25.5214   -2.7896   21.5015 H         1 LK1         0.0319
     32 H4         24.8602   -1.7277   20.2124 H         1 LK1         0.0319
     33 H5         26.6764   -2.5611   18.6907 H         1 LK1         0.0432
     34 H6         27.3774   -3.4407   20.0912 H         1 LK1         0.0432
     35 H7         21.0347   -3.7282   22.2252 H         1 LK1         0.0627
     36 H8         19.4555   -2.0522   23.0636 H         1 LK1         0.0591
     37 H9         17.9402   -0.3381   22.6687 H         1 LK1         0.0497
     38 H10        17.2729    1.1702   18.7320 H         1 LK1         0.0590
     39 H11        18.8514   -0.5051   17.8281 H         1 LK1         0.0618
     40 H12        20.4405   -2.3888   18.2132 H         1 LK1         0.0636
     41 H13        15.5565    1.2131   19.5769 H         1 LK1         0.0614
     42 H14        15.1650    2.6452   20.5881 H         1 LK1         0.0614
     43 H15        14.2529    1.0722   22.3293 H         1 LK1         0.0291
     44 H16        14.4928   -0.2718   21.1620 H         1 LK1         0.0291
     45 H17        12.7642    0.3875   19.8430 H         1 LK1         0.0263
     46 H18        13.1340    2.1318   20.0604 H         1 LK1         0.0263
     47 H19        10.9390    1.5566   20.9881 H         1 LK1         0.0230
     48 H20        12.0744    2.0802   22.2778 H         1 LK1         0.0230
     49 H21        11.7046    0.3358   22.0605 H         1 LK1         0.0230
@<TRIPOS>BOND
     1    1    2 2  
     2    2    3 2  
     3    2    4 am 
     4    2   14 1  
     5    4    5 1  
     6    5    6 1  
     7    5    9 1  
     8    6    7 ar 
     9    6    8 ar 
    10    9   10 1  
    11   10   11 1  
    12   11   12 ar 
    13   11   13 ar 
    14   14   15 ar 
    15   14   23 ar 
    16   15   16 ar 
    17   16   17 ar 
    18   17   18 ar 
    19   17   22 ar 
    20   18   19 ar 
    21   19   20 ar 
    22   19   24 1  
    23   20   21 ar 
    24   21   22 ar 
    25   22   23 ar 
    26   24   25 1  
    27   25   26 1  
    28   26   27 1  
    29   27   28 1  
    30    4   29 1  
    31    5   30 1  
    32    9   31 1  
    33    9   32 1  
    34   10   33 1  
    35   10   34 1  
    36   15   35 1  
    37   16   36 1  
    38   18   37 1  
    39   20   38 1  
    40   21   39 1  
    41   23   40 1  
    42   25   41 1  
    43   25   42 1  
    44   26   43 1  
    45   26   44 1  
    46   27   45 1  
    47   27   46 1  
    48   28   47 1  
    49   28   48 1  
    50   28   49 1  
@<TRIPOS>SUBSTRUCTURE
     1 LK1         1

