### 
### Created by X-TOOL on Mon Sep 10 21:12:56 2018
### 

@<TRIPOS>MOLECULE
2jfz_ligand
   58    62     1     0     0
SMALL
GAST_HUCK


@<TRIPOS>ATOM
      1 C2         15.2290   56.5040   36.3360 C.2       1 003         0.3185
      2 O11        15.8720   55.5530   35.8830 O.2       1 003        -0.3849
      3 N3         15.3470   56.8320   37.6800 N.am      1 003        -0.1955
      4 C7         16.2440   56.0660   38.5740 C.3       1 003         0.0580
      5 C8         17.6320   56.7140   38.8440 C.3       1 003        -0.0217
      6 C10        18.5760   56.4430   37.6570 C.3       1 003        -0.0604
      7 C9         18.2830   56.1350   40.1160 C.3       1 003        -0.0604
      8 C4         14.6360   57.8910   38.1810 C.2       1 003         0.1436
      9 N16        14.6280   58.3440   39.3610 N.2       1 003        -0.2040
     10 N15        13.7870   59.4040   39.4180 N.pl3     1 003        -0.1958
     11 C23        13.5740   60.2010   40.6520 C.3       1 003         0.1024
     12 C24        14.1770   61.6150   40.3650 C.ar      1 003        -0.0012
     13 C29        15.5740   61.7870   40.0200 C.ar      1 003        -0.0094
     14 C30        16.4910   60.6780   39.9500 C.ar      1 003        -0.0547
     15 C31        17.8540   60.8790   39.6030 C.ar      1 003        -0.0625
     16 C32        18.3240   62.1920   39.3150 C.ar      1 003        -0.0629
     17 C33        17.4370   63.3040   39.3770 C.ar      1 003        -0.0569
     18 C28        16.0710   63.1120   39.7270 C.ar      1 003        -0.0242
     19 C27        15.1980   64.2320   39.7830 C.ar      1 003        -0.0631
     20 C26        13.8290   64.0560   40.1290 C.ar      1 003        -0.0706
     21 C25        13.3220   62.7610   40.4170 C.ar      1 003        -0.0580
     22 C14        13.2240   59.6150   38.2190 C.2       1 003         0.1194
     23 C17        12.2140   60.7220   37.8800 C.ar      1 003         0.0331
     24 C22        10.9020   60.6830   38.4430 C.ar      1 003        -0.0234
     25 C21         9.9810   61.7180   38.1390 C.ar      1 003         0.0108
     26 N20        10.3560   62.7480   37.3100 N.ar      1 003        -0.2985
     27 C19        11.6090   62.8120   36.7530 C.ar      1 003         0.0108
     28 C18        12.5640   61.8050   37.0240 C.ar      1 003        -0.0234
     29 C5         13.7220   58.6990   37.3720 C.2       1 003         0.1075
     30 C6         13.6200   58.3110   35.9470 C.2       1 003         0.2158
     31 O13        12.8810   58.9410   35.2110 O.2       1 003        -0.3935
     32 N1         14.3710   57.2390   35.5210 N.am      1 003        -0.1739
     33 C12        14.2670   56.8690   34.1040 C.3       1 003         0.0477
     34 H1         16.4135   55.0788   38.1194 H         1 003         0.0582
     35 H2         15.7340   55.9419   39.5407 H         1 003         0.0582
     36 H3         17.4997   57.7990   38.9674 H         1 003         0.0319
     37 H4         19.5551   56.9038   37.8546 H         1 003         0.0233
     38 H5         18.1461   56.8740   36.7408 H         1 003         0.0233
     39 H6         18.7009   55.3577   37.5281 H         1 003         0.0233
     40 H7         17.6260   56.3166   40.9793 H         1 003         0.0233
     41 H8         19.2543   56.6228   40.2854 H         1 003         0.0233
     42 H9         18.4331   55.0525   39.9909 H         1 003         0.0233
     43 H10        14.0894   59.7319   41.5031 H         1 003         0.0805
     44 H11        12.4996   60.2821   40.8733 H         1 003         0.0805
     45 H12        16.1362   59.6765   40.1650 H         1 003         0.0628
     46 H13        18.5338   60.0358   39.5576 H         1 003         0.0601
     47 H14        19.3630   62.3458   39.0470 H         1 003         0.0616
     48 H15        17.8034   64.3002   39.1569 H         1 003         0.0609
     49 H16        15.5762   65.2234   39.5614 H         1 003         0.0542
     50 H17        13.1694   64.9151   40.1730 H         1 003         0.0595
     51 H18        12.2771   62.6397   40.6788 H         1 003         0.0530
     52 H19        10.6124   59.8688   39.0975 H         1 003         0.0722
     53 H20         8.9824   61.6966   38.5601 H         1 003         0.0820
     54 H21        11.8678   63.6391   36.1018 H         1 003         0.0820
     55 H22        13.5534   61.8569   36.5842 H         1 003         0.0722
     56 H23        14.9146   56.0029   33.9027 H         1 003         0.0539
     57 H24        14.5842   57.7170   33.4793 H         1 003         0.0539
     58 H25        13.2243   56.6098   33.8683 H         1 003         0.0539
@<TRIPOS>BOND
     1    1    2 2  
     2    1    3 am 
     3    1   32 am 
     4    3    4 1  
     5    3    8 1  
     6    4    5 1  
     7    5    6 1  
     8    5    7 1  
     9    8    9 2  
    10    8   29 1  
    11    9   10 1  
    12   10   11 1  
    13   10   22 1  
    14   11   12 1  
    15   12   13 ar 
    16   12   21 ar 
    17   13   14 ar 
    18   13   18 ar 
    19   14   15 ar 
    20   15   16 ar 
    21   16   17 ar 
    22   17   18 ar 
    23   18   19 ar 
    24   19   20 ar 
    25   20   21 ar 
    26   22   23 1  
    27   22   29 2  
    28   23   24 ar 
    29   23   28 ar 
    30   24   25 ar 
    31   25   26 ar 
    32   26   27 ar 
    33   27   28 ar 
    34   29   30 1  
    35   30   31 2  
    36   30   32 am 
    37   32   33 1  
    38    4   34 1  
    39    4   35 1  
    40    5   36 1  
    41    6   37 1  
    42    6   38 1  
    43    6   39 1  
    44    7   40 1  
    45    7   41 1  
    46    7   42 1  
    47   11   43 1  
    48   11   44 1  
    49   14   45 1  
    50   15   46 1  
    51   16   47 1  
    52   17   48 1  
    53   19   49 1  
    54   20   50 1  
    55   21   51 1  
    56   24   52 1  
    57   25   53 1  
    58   27   54 1  
    59   28   55 1  
    60   33   56 1  
    61   33   57 1  
    62   33   58 1  
@<TRIPOS>SUBSTRUCTURE
     1 003         1

