### 
### Created by X-TOOL on Mon Sep 10 21:12:55 2018
### 

@<TRIPOS>MOLECULE
2jg0_ligand
   47    49     1     0     0
SMALL
GAST_HUCK


@<TRIPOS>ATOM
      1 O7         18.2810   51.2980   13.3990 O.3       1 TTZ        -0.3921
      2 C7         19.2280   51.0070   14.3830 C.3       1 TTZ         0.0760
      3 C5         19.8100   49.6160   14.2360 C.3       1 TTZ         0.1242
      4 O5         20.7330   49.5590   15.2990 O.3       1 TTZ        -0.3831
      5 C4         18.8280   48.4500   14.4000 C.3       1 TTZ         0.1135
      6 O4         17.4540   48.8410   14.3800 O.3       1 TTZ        -0.3862
      7 C3         19.1000   47.4780   13.2400 C.3       1 TTZ         0.0993
      8 O3         18.9300   46.0980   13.5740 O.3       1 TTZ        -0.3878
      9 C2         20.4990   47.8260   12.7000 C.3       1 TTZ         0.0672
     10 S1         20.6080   47.6470   10.9290 S.3       1 TTZ        -0.0249
     11 C6         20.5830   49.3300   12.9420 C.3       1 TTZ         0.0384
     12 N1         19.9540   49.9060   11.7260 N.2       1 TTZ        -0.3574
     13 C1         19.8170   49.1480   10.7310 C.2       1 TTZ         0.1593
     14 N1'        19.0360   49.5190    9.6890 N.pl3     1 TTZ        -0.2511
     15 C1'        18.2200   50.7120    9.6220 C.3       1 TTZ         0.1764
     16 C2'        16.7190   50.3610    9.5390 C.3       1 TTZ         0.1319
     17 O2'        16.3560   49.4790   10.6000 O.3       1 TTZ        -0.3843
     18 O5'        18.5970   51.5120    8.4720 O.3       1 TTZ        -0.3426
     19 C5'        18.2480   51.0000    7.1790 C.3       1 TTZ         0.1128
     20 C6'        18.6170   52.0520    6.1390 C.3       1 TTZ         0.0730
     21 O6'        20.0460   52.1800    6.0660 O.3       1 TTZ        -0.3924
     22 C4'        16.7520   50.7220    7.1120 C.3       1 TTZ         0.1119
     23 O4'        16.3740   50.2980    5.8060 O.3       1 TTZ        -0.3865
     24 C3'        16.3440   49.7330    8.2020 C.3       1 TTZ         0.1139
     25 O3'        14.9610   49.5050    8.1330 O.3       1 TTZ        -0.3864
     26 H1         18.6878   51.2399   12.5425 H         1 TTZ         0.2095
     27 H2         18.7473   51.0856   15.3693 H         1 TTZ         0.0587
     28 H3         20.0451   51.7402   14.3138 H         1 TTZ         0.0587
     29 H4         20.2747   49.6827   16.1219 H         1 TTZ         0.2104
     30 H5         19.0297   47.9493   15.3584 H         1 TTZ         0.0649
     31 H6         17.2888   49.4498   15.0904 H         1 TTZ         0.2100
     32 H7         18.3707   47.6936   12.4453 H         1 TTZ         0.0634
     33 H8         19.1148   45.5635   12.8107 H         1 TTZ         0.2099
     34 H9         21.2884   47.2553   13.2109 H         1 TTZ         0.0483
     35 H10        21.6224   49.6759   13.0416 H         1 TTZ         0.0379
     36 H11        19.0214   48.8952    8.8695 H         1 TTZ         0.1967
     37 H12        18.3911   51.3018   10.5346 H         1 TTZ         0.0910
     38 H13        16.1467   51.2938    9.6502 H         1 TTZ         0.0669
     39 H14        16.8656   48.6799   10.5344 H         1 TTZ         0.2101
     40 H15        18.8030   50.0704    6.9846 H         1 TTZ         0.0647
     41 H16        18.1774   53.0189    6.4250 H         1 TTZ         0.0584
     42 H17        18.2265   51.7479    5.1567 H         1 TTZ         0.0584
     43 H18        20.4254   51.3449    5.8185 H         1 TTZ         0.2095
     44 H19        16.2258   51.6668    7.3133 H         1 TTZ         0.0647
     45 H20        15.4391   50.1305    5.7869 H         1 TTZ         0.2100
     46 H21        16.8796   48.7812    8.0709 H         1 TTZ         0.0648
     47 H22        14.7425   49.1460    7.2810 H         1 TTZ         0.2100
@<TRIPOS>BOND
     1    1    2 1  
     2    2    3 1  
     3    3    4 1  
     4    3    5 1  
     5    3   11 1  
     6    5    6 1  
     7    5    7 1  
     8    7    8 1  
     9    7    9 1  
    10    9   10 1  
    11    9   11 1  
    12   10   13 1  
    13   11   12 1  
    14   12   13 2  
    15   13   14 1  
    16   14   15 1  
    17   15   16 1  
    18   15   18 1  
    19   16   17 1  
    20   16   24 1  
    21   18   19 1  
    22   19   20 1  
    23   19   22 1  
    24   20   21 1  
    25   22   23 1  
    26   22   24 1  
    27   24   25 1  
    28    1   26 1  
    29    2   27 1  
    30    2   28 1  
    31    4   29 1  
    32    5   30 1  
    33    6   31 1  
    34    7   32 1  
    35    8   33 1  
    36    9   34 1  
    37   11   35 1  
    38   14   36 1  
    39   15   37 1  
    40   16   38 1  
    41   17   39 1  
    42   19   40 1  
    43   20   41 1  
    44   20   42 1  
    45   21   43 1  
    46   22   44 1  
    47   23   45 1  
    48   24   46 1  
    49   25   47 1  
@<TRIPOS>SUBSTRUCTURE
     1 TTZ         1

