### 
### Created by X-TOOL on Mon Sep 10 21:12:58 2018
### 

@<TRIPOS>MOLECULE
2jgs_ligand
   31    32     1     0     0
SMALL
GAST_HUCK


@<TRIPOS>ATOM
      1 C11        40.9760    9.8220   50.3020 C.2       1 BTN         0.0348
      2 O11        41.4350    8.9490   49.5410 O.co2     1 BTN        -0.5690
      3 O12        41.3020    9.7760   51.5150 O.co2     1 BTN        -0.5690
      4 C10        40.0800   10.9260   49.7680 C.3       1 BTN         0.0002
      5 C9         39.4860   11.7220   50.9350 C.3       1 BTN        -0.0414
      6 C8         38.2060   11.0440   51.4210 C.3       1 BTN        -0.0505
      7 C7         37.3790   12.0510   52.1780 C.3       1 BTN        -0.0389
      8 C2         36.1640   11.3440   52.7510 C.3       1 BTN         0.0302
      9 S1         34.9530   11.1700   51.5790 S.3       1 BTN        -0.1527
     10 C6         33.7920   10.8470   52.9300 C.3       1 BTN         0.0190
     11 C5         34.1860   11.6800   54.1370 C.3       1 BTN         0.0750
     12 N1         33.5500   12.9830   54.1100 N.am      1 BTN        -0.2671
     13 C3         34.4400   13.9700   53.9950 C.2       1 BTN         0.2580
     14 O3         34.1050   15.3200   53.9810 O.2       1 BTN        -0.4008
     15 N2         35.6780   13.5110   53.9260 N.am      1 BTN        -0.2668
     16 C4         35.6590   12.0600   54.0010 C.3       1 BTN         0.0775
     17 H1         39.2656   10.4817   49.1770 H         1 BTN         0.0430
     18 H2         40.6709   11.5995   49.1299 H         1 BTN         0.0430
     19 H3         39.2542   12.7439   50.6004 H         1 BTN         0.0283
     20 H4         40.2140   11.7621   51.7586 H         1 BTN         0.0283
     21 H5         38.4615   10.2034   52.0829 H         1 BTN         0.0267
     22 H6         37.6350   10.6708   50.5581 H         1 BTN         0.0267
     23 H7         37.0552   12.8521   51.4972 H         1 BTN         0.0277
     24 H8         37.9762   12.4828   52.9946 H         1 BTN         0.0277
     25 H9         36.4769   10.3337   53.0534 H         1 BTN         0.0435
     26 H10        33.8224    9.7796   53.1940 H         1 BTN         0.0399
     27 H11        32.7740   11.1175   52.6129 H         1 BTN         0.0399
     28 H12        33.9732   11.1365   55.0694 H         1 BTN         0.0584
     29 H13        32.5619   13.1247   54.1704 H         1 BTN         0.1849
     30 H14        36.4992   14.0745   53.8362 H         1 BTN         0.1849
     31 H15        36.2414   11.7287   54.8734 H         1 BTN         0.0587
@<TRIPOS>BOND
     1    1    2 ar 
     2    1    3 ar 
     3    1    4 1  
     4    4    5 1  
     5    5    6 1  
     6    6    7 1  
     7    7    8 1  
     8    8    9 1  
     9    8   16 1  
    10    9   10 1  
    11   10   11 1  
    12   11   12 1  
    13   11   16 1  
    14   12   13 am 
    15   13   14 2  
    16   13   15 am 
    17   15   16 1  
    18    4   17 1  
    19    4   18 1  
    20    5   19 1  
    21    5   20 1  
    22    6   21 1  
    23    6   22 1  
    24    7   23 1  
    25    7   24 1  
    26    8   25 1  
    27   10   26 1  
    28   10   27 1  
    29   11   28 1  
    30   12   29 1  
    31   15   30 1  
    32   16   31 1  
@<TRIPOS>SUBSTRUCTURE
     1 BTN         1

