### 
### Created by X-TOOL on Mon Sep 10 21:12:55 2018
### 

@<TRIPOS>MOLECULE
2jh0_ligand
   53    55     1     0     0
SMALL
GAST_HUCK


@<TRIPOS>ATOM
      1 CL1        10.2540   25.4630   46.1290 Cl        1 701        -0.0535
      2 C1         10.5490   23.8690   46.9260 C.2       1 701         0.0975
      3 C2         11.4820   22.9090   46.5700 C.2       1 701        -0.0573
      4 C3         11.3850   21.8010   47.4370 C.2       1 701        -0.0649
      5 C4         10.4160   21.9300   48.4430 C.2       1 701         0.0353
      6 C9          9.9940   20.9760   49.5190 C.2       1 701        -0.0198
      7 C8          9.3690   21.5090   50.7740 C.3       1 701        -0.0309
      8 S1          9.8380   18.4170   50.2030 S.o2      1 701         0.0509
      9 O2         10.5700   18.4440   51.4290 O.2       1 701        -0.1548
     10 O1         10.2150   17.2610   49.4240 O.2       1 701        -0.1548
     11 N1          8.2880   18.3710   50.5490 N.am      1 701        -0.2293
     12 C12         7.3440   17.9470   49.5250 C.3       1 701         0.1281
     13 C13         6.3840   16.8320   49.9840 C.3       1 701         0.0047
     14 C14         4.9980   17.1390   49.3800 C.3       1 701         0.0405
     15 C15         6.4270   19.0410   49.0630 C.2       1 701         0.2026
     16 O3          6.7690   20.2030   48.8590 O.2       1 701        -0.3946
     17 N2          5.2180   18.5160   48.9150 N.am      1 701        -0.2502
     18 C16         4.1070   19.2320   48.3000 C.3       1 701         0.1310
     19 C17         3.9620   18.8090   46.8350 C.3       1 701        -0.0242
     20 C18         2.8260   19.0720   49.0630 C.2       1 701         0.2042
     21 O4          1.8930   18.4910   48.5290 O.2       1 701        -0.3943
     22 N3          2.7710   19.5210   50.3220 N.am      1 701        -0.2669
     23 C19         3.9190   20.0720   51.0600 C.3       1 701         0.0574
     24 C20         3.4790   21.4240   51.5780 C.3       1 701         0.0681
     25 O5          2.2790   21.2540   52.3390 O.3       1 701        -0.3758
     26 C22         1.2070   20.8470   51.4970 C.3       1 701         0.0681
     27 C23         1.5270   19.4270   51.0740 C.3       1 701         0.0574
     28 S6          9.5570   23.4980   48.3110 S.3       1 701        -0.0253
     29 C6         10.2070   19.6580   49.2690 C.2       1 701         0.0565
     30 H1         12.1857   22.9968   45.7436 H         1 701         0.0443
     31 H2         12.0119   20.9165   47.3338 H         1 701         0.0466
     32 H3          9.1250   20.6728   51.4458 H         1 701         0.0390
     33 H4          8.4492   22.0569   50.5215 H         1 701         0.0390
     34 H5         10.0745   22.1881   51.2752 H         1 701         0.0390
     35 H6          7.9648   18.6302   51.4591 H         1 701         0.1702
     36 H7          7.9332   17.5849   48.6696 H         1 701         0.0754
     37 H8          6.3209   16.8186   51.0821 H         1 701         0.0328
     38 H9          6.7425   15.8559   49.6253 H         1 701         0.0328
     39 H10         4.2024   17.0869   50.1378 H         1 701         0.0526
     40 H11         4.7567   16.4614   48.5478 H         1 701         0.0526
     41 H12         4.3574   20.3030   48.3126 H         1 701         0.0799
     42 H13         3.1223   19.3529   46.3777 H         1 701         0.0277
     43 H14         3.7698   17.7272   46.7830 H         1 701         0.0277
     44 H15         4.8896   19.0432   46.2922 H         1 701         0.0277
     45 H16         4.7846   20.1836   50.3905 H         1 701         0.0545
     46 H17         4.1862   19.4113   51.8979 H         1 701         0.0545
     47 H18         3.2883   22.1007   50.7320 H         1 701         0.0580
     48 H19         4.2661   21.8496   52.2178 H         1 701         0.0580
     49 H20         1.1418   21.5030   50.6164 H         1 701         0.0580
     50 H21         0.2553   20.8768   52.0478 H         1 701         0.0580
     51 H22         1.6576   18.7825   51.9558 H         1 701         0.0545
     52 H23         0.7234   19.0234   50.4405 H         1 701         0.0545
     53 H24        10.6856   19.4199   48.3202 H         1 701         0.0576
@<TRIPOS>BOND
     1    2    1 1  
     2    2    3 2  
     3   28    2 1  
     4    4    3 1  
     5    5    4 2  
     6    6    5 1  
     7    5   28 1  
     8    6    7 1  
     9   29    6 2  
    10    8    9 2  
    11    8   10 2  
    12    8   11 am 
    13    8   29 1  
    14   11   12 1  
    15   12   13 1  
    16   12   15 1  
    17   13   14 1  
    18   14   17 1  
    19   15   16 2  
    20   15   17 am 
    21   17   18 1  
    22   18   19 1  
    23   18   20 1  
    24   20   21 2  
    25   20   22 am 
    26   22   23 1  
    27   22   27 1  
    28   23   24 1  
    29   24   25 1  
    30   25   26 1  
    31   26   27 1  
    32    3   30 1  
    33    4   31 1  
    34    7   32 1  
    35    7   33 1  
    36    7   34 1  
    37   11   35 1  
    38   12   36 1  
    39   13   37 1  
    40   13   38 1  
    41   14   39 1  
    42   14   40 1  
    43   18   41 1  
    44   19   42 1  
    45   19   43 1  
    46   19   44 1  
    47   23   45 1  
    48   23   46 1  
    49   24   47 1  
    50   24   48 1  
    51   26   49 1  
    52   26   50 1  
    53   27   51 1  
    54   27   52 1  
    55   29   53 1  
@<TRIPOS>SUBSTRUCTURE
     1 701         1

