### 
### Created by X-TOOL on Mon Sep 10 21:12:55 2018
### 

@<TRIPOS>MOLECULE
2jh5_ligand
   50    52     1     0     0
SMALL
GAST_HUCK


@<TRIPOS>ATOM
      1 CL1         9.8460   25.2660   46.2660 Cl        1 895        -0.0541
      2 C1         10.0930   23.7440   47.0190 C.2       1 895         0.0969
      3 C2         11.0130   22.7720   46.6030 C.2       1 895        -0.0580
      4 C3         10.9590   21.6550   47.4570 C.2       1 895        -0.0663
      5 C4         10.0190   21.7880   48.4920 C.2       1 895         0.0287
      6 C9          9.7120   20.7810   49.5520 C.2       1 895        -0.0314
      7 S1          9.4770   18.1510   50.2600 S.o2      1 895         0.0601
      8 O2         10.1710   18.2570   51.5080 O.2       1 895        -0.1518
      9 O1          9.6200   16.9960   49.4270 O.2       1 895        -0.1518
     10 N1          7.9130   18.4340   50.6100 N.am      1 895        -0.2268
     11 C12         6.9070   17.9340   49.7000 C.3       1 895         0.1283
     12 C13         5.9600   16.9300   50.3840 C.3       1 895         0.0047
     13 C14         4.5590   17.2850   49.8640 C.3       1 895         0.0405
     14 C15         6.0270   18.9850   49.0710 C.2       1 895         0.2026
     15 O3          6.4080   20.0860   48.6950 O.2       1 895        -0.3946
     16 N2          4.7790   18.4540   49.0060 N.am      1 895        -0.2502
     17 C16         3.7220   18.9920   48.1480 C.3       1 895         0.1310
     18 C17         3.6730   18.1820   46.8430 C.3       1 895        -0.0242
     19 C18         2.3500   19.0290   48.8330 C.2       1 895         0.2042
     20 O4          1.4240   18.3890   48.3260 O.2       1 895        -0.3943
     21 N3          2.2400   19.7860   49.9960 N.am      1 895        -0.2669
     22 C19         0.9810   19.7960   50.7500 C.3       1 895         0.0574
     23 C20         1.1690   19.7670   52.2710 C.3       1 895         0.0681
     24 O5          2.1840   20.6690   52.7120 O.3       1 895        -0.3758
     25 C22         3.4420   20.4180   52.0890 C.3       1 895         0.0681
     26 C23         3.2850   20.6600   50.5780 C.3       1 895         0.0574
     27 S6          9.2340   23.2760   48.4210 S.3       1 895        -0.0265
     28 C6          9.9270   19.4860   49.2390 C.2       1 895         0.0664
     29 H1         11.6742   22.8674   45.7430 H         1 895         0.0442
     30 H2         11.5850   20.7733   47.3280 H         1 895         0.0457
     31 H3          9.3334   21.0774   50.5291 H         1 895         0.0624
     32 H4          7.6547   18.9403   51.4327 H         1 895         0.1704
     33 H5          7.4416   17.4145   48.8911 H         1 895         0.0754
     34 H6          6.0054   17.0395   51.4776 H         1 895         0.0328
     35 H7          6.2249   15.8989   50.1074 H         1 895         0.0328
     36 H8          3.8852   17.5339   50.6971 H         1 895         0.0526
     37 H9          4.1346   16.4511   49.2857 H         1 895         0.0526
     38 H10         3.9899   20.0288   47.8966 H         1 895         0.0799
     39 H11         2.8803   18.5813   46.1932 H         1 895         0.0277
     40 H12         3.4615   17.1275   47.0737 H         1 895         0.0277
     41 H13         4.6420   18.2575   46.3279 H         1 895         0.0277
     42 H14         0.3942   18.9131   50.4565 H         1 895         0.0545
     43 H15         0.4266   20.7089   50.4867 H         1 895         0.0545
     44 H16         1.4479   18.7467   52.5729 H         1 895         0.0580
     45 H17         0.2182   20.0441   52.7497 H         1 895         0.0580
     46 H18         3.7463   19.3765   52.2699 H         1 895         0.0580
     47 H19         4.2030   21.0987   52.4983 H         1 895         0.0580
     48 H20         3.0063   21.7109   50.4110 H         1 895         0.0545
     49 H21         4.2437   20.4514   50.0807 H         1 895         0.0545
     50 H22        10.4116   19.2630   48.2896 H         1 895         0.0767
@<TRIPOS>BOND
     1    2    1 1  
     2    2    3 2  
     3   27    2 1  
     4    4    3 1  
     5    5    4 2  
     6    6    5 1  
     7    5   27 1  
     8   28    6 2  
     9    7    8 2  
    10    7    9 2  
    11    7   10 am 
    12    7   28 1  
    13   10   11 1  
    14   11   12 1  
    15   11   14 1  
    16   12   13 1  
    17   13   16 1  
    18   14   15 2  
    19   14   16 am 
    20   16   17 1  
    21   17   18 1  
    22   17   19 1  
    23   19   20 2  
    24   19   21 am 
    25   21   22 1  
    26   21   26 1  
    27   22   23 1  
    28   23   24 1  
    29   24   25 1  
    30   25   26 1  
    31    3   29 1  
    32    4   30 1  
    33    6   31 1  
    34   10   32 1  
    35   11   33 1  
    36   12   34 1  
    37   12   35 1  
    38   13   36 1  
    39   13   37 1  
    40   17   38 1  
    41   18   39 1  
    42   18   40 1  
    43   18   41 1  
    44   22   42 1  
    45   22   43 1  
    46   23   44 1  
    47   23   45 1  
    48   25   46 1  
    49   25   47 1  
    50   26   48 1  
    51   26   49 1  
    52   28   50 1  
@<TRIPOS>SUBSTRUCTURE
     1 895         1

