### 
### Created by X-TOOL on Mon Sep 10 21:12:55 2018
### 

@<TRIPOS>MOLECULE
2jh6_ligand
   52    54     1     0     0
SMALL
GAST_HUCK


@<TRIPOS>ATOM
      1 CL1        10.1820   25.4840   46.0270 Cl        1 894        -0.0722
      2 C1         10.3440   23.9520   46.8200 C.2       1 894         0.0801
      3 C2         11.3340   22.9690   46.4370 C.2       1 894        -0.0788
      4 C3         11.2600   21.8240   47.3090 C.2       1 894        -0.0801
      5 C4         10.2240   21.9710   48.3000 C.2       1 894         0.0144
      6 C9          9.8880   20.9240   49.3310 C.3       1 894         0.0141
      7 S1          9.6460   18.2320   49.8450 S.o2      1 894         0.0433
      8 O2          9.7820   17.0120   49.1100 O.2       1 894        -0.1552
      9 O1         10.4020   18.4090   51.0490 O.2       1 894        -0.1552
     10 N1          8.1290   18.3930   50.3470 N.am      1 894        -0.2296
     11 C12         7.0220   17.9620   49.4970 C.3       1 894         0.1281
     12 C13         6.0160   17.0240   50.2100 C.3       1 894         0.0047
     13 C14         4.6750   17.3830   49.5330 C.3       1 894         0.0405
     14 C15         6.1860   19.1020   48.9300 C.2       1 894         0.2026
     15 O3          6.6360   20.2010   48.6120 O.2       1 894        -0.3946
     16 N2          4.9020   18.6790   48.8700 N.am      1 894        -0.2502
     17 C16         3.8220   19.4540   48.2360 C.3       1 894         0.1310
     18 C17         3.4530   18.9040   46.8410 C.3       1 894        -0.0242
     19 C18         2.5720   19.5120   49.1110 C.2       1 894         0.2042
     20 O4          1.5710   18.9070   48.7750 O.2       1 894        -0.3943
     21 N3          2.6100   20.2310   50.2580 N.am      1 894        -0.2669
     22 C19         1.4200   20.2970   51.1100 C.3       1 894         0.0574
     23 C20         1.7920   19.9460   52.5430 C.3       1 894         0.0681
     24 O5          2.9090   20.7370   52.9860 O.3       1 894        -0.3758
     25 C22         4.0810   20.5440   52.1800 C.3       1 894         0.0681
     26 C23         3.7670   21.0000   50.7480 C.3       1 894         0.0574
     27 S6          9.4150   23.4750   48.1860 S.3       1 894        -0.0316
     28 C6         10.0430   19.5390   48.6910 C.3       1 894         0.0960
     29 H1         12.0337   23.0784   45.6097 H         1 894         0.0385
     30 H2         11.9086   20.9529   47.2288 H         1 894         0.0282
     31 H3          8.8515   21.0601   49.6731 H         1 894         0.0471
     32 H4         10.5719   21.0148   50.1878 H         1 894         0.0471
     33 H5          7.9414   18.7901   51.2454 H         1 894         0.1702
     34 H6          7.4684   17.4127   48.6550 H         1 894         0.0754
     35 H7          5.9815   17.2277   51.2904 H         1 894         0.0328
     36 H8          6.2733   15.9675   50.0441 H         1 894         0.0328
     37 H9          3.8765   17.4705   50.2845 H         1 894         0.0526
     38 H10         4.4004   16.6162   48.7937 H         1 894         0.0526
     39 H11         4.1897   20.4825   48.1054 H         1 894         0.0799
     40 H12         2.6452   19.5128   46.4088 H         1 894         0.0277
     41 H13         3.1159   17.8612   46.9354 H         1 894         0.0277
     42 H14         4.3350   18.9463   46.1851 H         1 894         0.0277
     43 H15         0.6679   19.5833   50.7427 H         1 894         0.0545
     44 H16         1.0050   21.3152   51.0795 H         1 894         0.0545
     45 H17         2.0603   18.8806   52.5959 H         1 894         0.0580
     46 H18         0.9298   20.1400   53.1979 H         1 894         0.0580
     47 H19         4.3590   19.4797   52.1780 H         1 894         0.0580
     48 H20         4.9124   21.1395   52.5852 H         1 894         0.0580
     49 H21         3.5280   22.0737   50.7441 H         1 894         0.0545
     50 H22         4.6368   20.8156   50.1004 H         1 894         0.0545
     51 H23        11.0833   19.4152   48.3557 H         1 894         0.0544
     52 H24         9.3678   19.4682   47.8255 H         1 894         0.0544
@<TRIPOS>BOND
     1    2    1 1  
     2    2    3 2  
     3   27    2 1  
     4    4    3 1  
     5    5    4 2  
     6    6    5 1  
     7    5   27 1  
     8   28    6 1  
     9    7    8 2  
    10    7    9 2  
    11    7   10 am 
    12    7   28 1  
    13   10   11 1  
    14   11   12 1  
    15   11   14 1  
    16   12   13 1  
    17   13   16 1  
    18   14   15 2  
    19   14   16 am 
    20   16   17 1  
    21   17   18 1  
    22   17   19 1  
    23   19   20 2  
    24   19   21 am 
    25   21   22 1  
    26   21   26 1  
    27   22   23 1  
    28   23   24 1  
    29   24   25 1  
    30   25   26 1  
    31    3   29 1  
    32    4   30 1  
    33    6   31 1  
    34    6   32 1  
    35   10   33 1  
    36   11   34 1  
    37   12   35 1  
    38   12   36 1  
    39   13   37 1  
    40   13   38 1  
    41   17   39 1  
    42   18   40 1  
    43   18   41 1  
    44   18   42 1  
    45   22   43 1  
    46   22   44 1  
    47   23   45 1  
    48   23   46 1  
    49   25   47 1  
    50   25   48 1  
    51   26   49 1  
    52   26   50 1  
    53   28   51 1  
    54   28   52 1  
@<TRIPOS>SUBSTRUCTURE
     1 894         1

