### 
### Created by X-TOOL on Mon Sep 10 21:12:58 2018
### 

@<TRIPOS>MOLECULE
2jiu_ligand
   67    71     1     0     0
SMALL
GAST_HUCK


@<TRIPOS>ATOM
      1 CAQ       -10.6900   10.5920   36.2440 C.3       1 AEE         0.0109
      2 CAO       -11.8340    9.6390   35.8930 C.3       1 AEE         0.0095
      3 NBF       -13.0640   10.0790   36.5690 N.4       1 AEE         0.2425
      4 CAN       -12.8520   10.0760   38.0230 C.3       1 AEE        -0.0344
      5 CAA       -13.5550    8.8650   38.6400 C.3       1 AEE        -0.0245
      6 CAP       -13.4060   11.4380   36.1260 C.3       1 AEE         0.0095
      7 CAR       -12.2630   12.3920   36.4780 C.3       1 AEE         0.0109
      8 NBG       -11.0320   11.9530   35.8060 N.4       1 AEE         0.2548
      9 CAS       -11.2360   11.9630   34.3500 C.3       1 AEE         0.0025
     10 CAX       -10.5150   13.1680   33.7420 C.ar      1 AEE         0.0018
     11 CAI        -9.1290   13.1700   33.6420 C.ar      1 AEE        -0.0546
     12 CAK        -8.4730   14.2650   33.0900 C.ar      1 AEE        -0.0586
     13 CAJ       -11.2460   14.2610   33.2910 C.ar      1 AEE        -0.0546
     14 CAL       -10.5910   15.3560   32.7400 C.ar      1 AEE        -0.0586
     15 CAY        -9.2040   15.3580   32.6390 C.ar      1 AEE        -0.0019
     16 CBA        -8.5490   16.4520   32.0870 C.2       1 AEE         0.0634
     17 NAW        -7.2350   16.6770   32.1440 N.pl3     1 AEE        -0.2618
     18 CAM        -9.1330   17.4460   31.4160 C.2       1 AEE        -0.0457
     19 C5         -8.1880   18.3040   31.0460 C.ar      1 AEE         0.0466
     20 C4         -6.9810   17.8160   31.5090 C.ar      1 AEE         0.1356
     21 N3         -5.8570   18.5030   31.2660 N.ar      1 AEE        -0.2767
     22 C2         -5.8990   19.6400   30.5890 C.ar      1 AEE         0.0500
     23 N1         -7.0390   20.1360   30.1320 N.ar      1 AEE        -0.2729
     24 C6         -8.1980   19.4970   30.3410 C.ar      1 AEE         0.1220
     25 NAV        -9.3400   19.9990   29.8800 N.pl3     1 AEE        -0.2876
     26 CBE        -9.4520   21.4390   29.6060 C.3       1 AEE         0.0722
     27 CAB       -10.9280   21.8220   29.4840 C.3       1 AEE        -0.0314
     28 CAZ        -8.7290   21.7690   28.2990 C.ar      1 AEE        -0.0177
     29 CAG        -8.1820   23.0320   28.1070 C.ar      1 AEE        -0.0581
     30 CAD        -7.5250   23.3320   26.9190 C.ar      1 AEE        -0.0685
     31 CAC        -7.4140   22.3680   25.9240 C.ar      1 AEE        -0.0687
     32 CAE        -7.9610   21.1050   26.1160 C.ar      1 AEE        -0.0685
     33 CAH        -8.6180   20.8050   27.3040 C.ar      1 AEE        -0.0581
     34 H1         -9.7710   10.2639   35.7363 H         1 AEE         0.0868
     35 H2        -10.5296   10.5868   37.3322 H         1 AEE         0.0868
     36 H3        -11.5780    8.6215   36.2234 H         1 AEE         0.0868
     37 H4        -11.9928    9.6420   34.8045 H         1 AEE         0.0868
     38 H5        -13.8176    9.4507   36.3381 H         1 AEE         0.2037
     39 H6        -13.2653   10.9991   38.4554 H         1 AEE         0.0812
     40 H7        -11.7742   10.0218   38.2360 H         1 AEE         0.0812
     41 H8        -13.3956    8.8638   39.7284 H         1 AEE         0.0281
     42 H9        -13.1418    7.9417   38.2079 H         1 AEE         0.0281
     43 H10       -14.6329    8.9190   38.4273 H         1 AEE         0.0281
     44 H11       -14.3266   11.7672   36.6300 H         1 AEE         0.0868
     45 H12       -13.5632   11.4401   35.0373 H         1 AEE         0.0868
     46 H13       -12.1065   12.3904   37.5668 H         1 AEE         0.0868
     47 H14       -12.5190   13.4089   36.1458 H         1 AEE         0.0868
     48 H15       -10.2793   12.5802   36.0431 H         1 AEE         0.2053
     49 H16       -12.3118   12.0307   34.1310 H         1 AEE         0.0983
     50 H17       -10.8311   11.0366   33.9167 H         1 AEE         0.0983
     51 H18        -8.5590   12.3179   33.9943 H         1 AEE         0.0561
     52 H19        -7.3918   14.2662   33.0114 H         1 AEE         0.0602
     53 H20       -12.3272   14.2593   33.3691 H         1 AEE         0.0561
     54 H21       -11.1612   16.2085   32.3890 H         1 AEE         0.0602
     55 H22        -6.5380   16.0721   32.6013 H         1 AEE         0.2284
     56 H23       -10.1979   17.5383   31.2078 H         1 AEE         0.0342
     57 H24        -4.9768   20.1788   30.4040 H         1 AEE         0.0975
     58 H25       -10.1458   19.3790   29.7150 H         1 AEE         0.1894
     59 H26        -8.9939   22.0051   30.4304 H         1 AEE         0.0724
     60 H27       -11.0114   22.8995   29.2790 H         1 AEE         0.0275
     61 H28       -11.4469   21.5866   30.4249 H         1 AEE         0.0275
     62 H29       -11.3870   21.2555   28.6604 H         1 AEE         0.0275
     63 H30        -8.2676   23.7834   28.8836 H         1 AEE         0.0557
     64 H31        -7.0994   24.3176   26.7688 H         1 AEE         0.0599
     65 H32        -6.9007   22.6013   24.9982 H         1 AEE         0.0559
     66 H33        -7.8754   20.3536   25.3394 H         1 AEE         0.0599
     67 H34        -9.0436   19.8194   27.4542 H         1 AEE         0.0557
@<TRIPOS>BOND
     1    1    2 1  
     2    1    8 1  
     3    2    3 1  
     4    3    4 1  
     5    3    6 1  
     6    4    5 1  
     7    6    7 1  
     8    7    8 1  
     9    8    9 1  
    10    9   10 1  
    11   10   11 ar 
    12   10   13 ar 
    13   11   12 ar 
    14   12   15 ar 
    15   13   14 ar 
    16   14   15 ar 
    17   15   16 1  
    18   16   17 1  
    19   16   18 2  
    20   17   20 1  
    21   18   19 1  
    22   19   20 ar 
    23   19   24 ar 
    24   20   21 ar 
    25   21   22 ar 
    26   22   23 ar 
    27   23   24 ar 
    28   24   25 1  
    29   25   26 1  
    30   26   27 1  
    31   26   28 1  
    32   28   29 ar 
    33   28   33 ar 
    34   29   30 ar 
    35   30   31 ar 
    36   31   32 ar 
    37   32   33 ar 
    38    1   34 1  
    39    1   35 1  
    40    2   36 1  
    41    2   37 1  
    42    3   38 1  
    43    4   39 1  
    44    4   40 1  
    45    5   41 1  
    46    5   42 1  
    47    5   43 1  
    48    6   44 1  
    49    6   45 1  
    50    7   46 1  
    51    7   47 1  
    52    8   48 1  
    53    9   49 1  
    54    9   50 1  
    55   11   51 1  
    56   12   52 1  
    57   13   53 1  
    58   14   54 1  
    59   17   55 1  
    60   18   56 1  
    61   22   57 1  
    62   25   58 1  
    63   26   59 1  
    64   27   60 1  
    65   27   61 1  
    66   27   62 1  
    67   29   63 1  
    68   30   64 1  
    69   31   65 1  
    70   32   66 1  
    71   33   67 1  
@<TRIPOS>SUBSTRUCTURE
     1 AEE         1

