### 
### Created by X-TOOL on Mon Sep 10 21:12:56 2018
### 

@<TRIPOS>MOLECULE
2jiw_ligand
   32    32     1     0     0
SMALL
GAST_HUCK


@<TRIPOS>ATOM
      1 C'          3.8560  -11.6010    1.6320 C.3       1 BEU         0.0719
      2 O1'         3.6780  -12.4890    0.5360 O.3       1 BEU        -0.3839
      3 C1          5.2040  -11.8560    2.2780 C.2       1 BEU        -0.0200
      4 C2          5.2360  -12.5560    3.4270 C.2       1 BEU        -0.0546
      5 C3          6.5420  -12.9220    4.0860 C.3       1 BEU         0.0088
      6 N3          6.9880  -14.2130    3.5420 N.4       1 BEU         0.2289
      7 C4          7.6230  -11.8170    3.9440 C.3       1 BEU         0.1171
      8 N4          7.9530  -11.1880    5.2270 N.am      1 BEU        -0.2747
      9 C4'         7.0510  -10.5950    6.0190 C.2       1 BEU         0.1735
     10 O4'         5.8820  -10.5340    5.7280 O.2       1 BEU        -0.3974
     11 CM4         7.5410  -10.0140    7.3020 C.3       1 BEU         0.0257
     12 C5          7.3210  -10.7480    2.8830 C.3       1 BEU         0.1185
     13 O5          8.5530  -10.1950    2.4070 O.3       1 BEU        -0.3846
     14 C6          6.5060  -11.3340    1.7140 C.3       1 BEU         0.1109
     15 O4          6.2800  -10.3080    0.7430 O.3       1 BEU        -0.3781
     16 H1          3.0584  -11.7669    2.3711 H         1 BEU         0.0706
     17 H2          3.8127  -10.5623    1.2726 H         1 BEU         0.0706
     18 H3          4.3671  -12.3450   -0.1019 H         1 BEU         0.2125
     19 H4          4.2999  -12.8643    3.8902 H         1 BEU         0.0299
     20 H5          6.3527  -13.0531    5.1616 H         1 BEU         0.0947
     21 H6          6.2560  -14.8966    3.6561 H         1 BEU         0.2004
     22 H7          7.8127  -14.5184    4.0347 H         1 BEU         0.2004
     23 H8          7.2010  -14.1092    2.5623 H         1 BEU         0.2004
     24 H9          8.5331  -12.3334    3.6050 H         1 BEU         0.0656
     25 H10         8.9066  -11.2029    5.5276 H         1 BEU         0.1859
     26 H11         6.6979   -9.5632    7.8460 H         1 BEU         0.0467
     27 H12         8.2956   -9.2421    7.0905 H         1 BEU         0.0467
     28 H13         7.9909  -10.8081    7.9160 H         1 BEU         0.0467
     29 H14         6.7300   -9.9465    3.3502 H         1 BEU         0.0668
     30 H15         8.3691   -9.5334    1.7505 H         1 BEU         0.2102
     31 H16         7.0609  -12.1603    1.2457 H         1 BEU         0.0769
     32 H17         5.7776  -10.6636    0.0193 H         1 BEU         0.2130
@<TRIPOS>BOND
     1    1    2 1  
     2    1    3 1  
     3    3    4 2  
     4    3   14 1  
     5    4    5 1  
     6    5    6 1  
     7    5    7 1  
     8    7    8 1  
     9    7   12 1  
    10    8    9 am 
    11    9   10 2  
    12    9   11 1  
    13   12   13 1  
    14   12   14 1  
    15   14   15 1  
    16    1   16 1  
    17    1   17 1  
    18    2   18 1  
    19    4   19 1  
    20    5   20 1  
    21    6   21 1  
    22    6   22 1  
    23    6   23 1  
    24    7   24 1  
    25    8   25 1  
    26   11   26 1  
    27   11   27 1  
    28   11   28 1  
    29   12   29 1  
    30   13   30 1  
    31   14   31 1  
    32   15   32 1  
@<TRIPOS>SUBSTRUCTURE
     1 BEU         1

