### 
### Created by X-TOOL on Mon Sep 10 21:12:56 2018
### 

@<TRIPOS>MOLECULE
2jj3_ligand
   46    49     1     0     0
SMALL
GAST_HUCK


@<TRIPOS>ATOM
      1 C1         79.9690   42.6170   68.0430 C.ar      1 JJ3         0.0636
      2 C2         80.0090   42.6960   69.4310 C.ar      1 JJ3        -0.0449
      3 C3         79.1100   41.9430   70.1820 C.ar      1 JJ3        -0.0028
      4 C4         78.1650   41.1120   69.5730 C.ar      1 JJ3         0.0879
      5 O5         77.3310   40.4200   70.4030 O.3       1 JJ3        -0.3185
      6 C6         76.9060   39.1920   69.8100 C.3       1 JJ3         0.1090
      7 C8         76.1480   39.4660   68.4900 C.3       1 JJ3         0.0079
      8 C10        75.0360   40.5320   68.7030 C.3       1 JJ3        -0.0440
      9 C11        74.8590   41.1840   67.3090 C.3       1 JJ3        -0.0506
     10 C12        76.1980   41.0060   66.5620 C.3       1 JJ3        -0.0418
     11 C13        77.1220   40.1290   67.4700 C.3       1 JJ3        -0.0060
     12 C15        78.1260   41.0270   68.1880 C.ar      1 JJ3        -0.0246
     13 C16        79.0280   41.7850   67.4170 C.ar      1 JJ3        -0.0468
     14 C17        76.0200   38.4410   70.7970 C.ar      1 JJ3        -0.0211
     15 C18        75.9830   38.8250   72.1370 C.ar      1 JJ3        -0.0660
     16 C19        75.1690   38.1400   73.0420 C.ar      1 JJ3        -0.0397
     17 C20        74.3910   37.0640   72.5980 C.ar      1 JJ3         0.0805
     18 O21        73.5840   36.3860   73.4700 O.3       1 JJ3        -0.3376
     19 C22        74.4280   36.6770   71.2590 C.ar      1 JJ3        -0.0397
     20 C23        75.2410   37.3630   70.3600 C.ar      1 JJ3        -0.0660
     21 C24        79.1470   42.0170   71.6670 C.3       1 JJ3         0.0757
     22 O25        79.6730   40.7730   72.1350 O.3       1 JJ3        -0.3728
     23 C26        80.4590   41.0690   73.2630 C.3       1 JJ3         0.0387
     24 O27        80.8480   43.3580   67.3100 O.3       1 JJ3        -0.3436
     25 H1         80.7320   43.3367   69.9228 H         1 JJ3         0.0399
     26 H2         77.7906   38.5775   69.5866 H         1 JJ3         0.0787
     27 H3         75.7278   38.5297   68.0940 H         1 JJ3         0.0371
     28 H4         75.3503   41.2799   69.4459 H         1 JJ3         0.0272
     29 H5         74.0999   40.0580   69.0332 H         1 JJ3         0.0272
     30 H6         74.6250   42.2533   67.4177 H         1 JJ3         0.0267
     31 H7         74.0483   40.6854   66.7576 H         1 JJ3         0.0267
     32 H8         76.6643   41.9865   66.3855 H         1 JJ3         0.0287
     33 H9         76.0282   40.5021   65.5991 H         1 JJ3         0.0287
     34 H10        77.6532   39.3672   66.8805 H         1 JJ3         0.0440
     35 H11        78.9954   41.7257   66.3351 H         1 JJ3         0.0398
     36 H12        76.5878   39.6577   72.4774 H         1 JJ3         0.0531
     37 H13        75.1398   38.4401   74.0832 H         1 JJ3         0.0525
     38 H14        74.1137   36.0113   74.1639 H         1 JJ3         0.2458
     39 H15        73.8248   35.8433   70.9181 H         1 JJ3         0.0525
     40 H16        75.2707   37.0614   69.3192 H         1 JJ3         0.0531
     41 H17        78.1323   42.1708   72.0629 H         1 JJ3         0.0697
     42 H18        79.7953   42.8457   71.9878 H         1 JJ3         0.0697
     43 H19        80.8897   40.1396   73.6639 H         1 JJ3         0.0525
     44 H20        79.8324   41.5443   74.0321 H         1 JJ3         0.0525
     45 H21        81.2697   41.7545   72.9754 H         1 JJ3         0.0525
     46 H22        80.3666   43.9524   66.7466 H         1 JJ3         0.2442
@<TRIPOS>BOND
     1    1    2 ar 
     2    1   13 ar 
     3    1   24 1  
     4    2    3 ar 
     5    3    4 ar 
     6    3   21 1  
     7    4    5 1  
     8    4   12 ar 
     9    5    6 1  
    10    6    7 1  
    11    6   14 1  
    12    7    8 1  
    13    7   11 1  
    14    8    9 1  
    15    9   10 1  
    16   10   11 1  
    17   11   12 1  
    18   12   13 ar 
    19   14   15 ar 
    20   14   20 ar 
    21   15   16 ar 
    22   16   17 ar 
    23   17   18 1  
    24   17   19 ar 
    25   19   20 ar 
    26   21   22 1  
    27   22   23 1  
    28    2   25 1  
    29    6   26 1  
    30    7   27 1  
    31    8   28 1  
    32    8   29 1  
    33    9   30 1  
    34    9   31 1  
    35   10   32 1  
    36   10   33 1  
    37   11   34 1  
    38   13   35 1  
    39   15   36 1  
    40   16   37 1  
    41   18   38 1  
    42   19   39 1  
    43   20   40 1  
    44   21   41 1  
    45   21   42 1  
    46   23   43 1  
    47   23   44 1  
    48   23   45 1  
    49   24   46 1  
@<TRIPOS>SUBSTRUCTURE
     1 JJ3         1

