### 
### Created by X-TOOL on Mon Sep 10 21:13:00 2018
### 

@<TRIPOS>MOLECULE
2jjb_ligand
   51    53     1     0     0
SMALL
GAST_HUCK


@<TRIPOS>ATOM
      1 O7         -6.2250  -33.8360   45.0860 O.3       1 3CU        -0.3833
      2 C7         -5.7560  -34.4580   43.8760 C.3       1 3CU         0.1312
      3 C7A        -6.8140  -34.2240   42.7990 C.3       1 3CU         0.0380
      4 C1         -6.9550  -35.3600   41.7760 C.3       1 3CU         0.1312
      5 O1         -8.0630  -36.2200   42.0480 O.3       1 3CU        -0.3833
      6 C2         -7.1090  -34.6490   40.4240 C.3       1 3CU         0.1308
      7 O2         -6.8160  -35.5040   39.2950 O.3       1 3CU        -0.3833
      8 C3         -6.0060  -33.5830   40.4870 C.3       1 3CU         0.0324
      9 C8         -6.1400  -32.4130   39.4900 C.3       1 3CU         0.0894
     10 O8         -7.3970  -31.8030   39.5920 O.3       1 3CU        -0.3894
     11 N4         -6.0530  -33.3090   41.9380 N.4       1 3CU         0.2488
     12 C5         -5.0810  -32.5080   42.6640 C.3       1 3CU        -0.0013
     13 C6         -4.4790  -33.7090   43.4300 C.3       1 3CU         0.1324
     14 C1         -2.7670  -34.4590   41.7860 C.3       1 GLC         0.1886
     15 C2         -2.1980  -35.6990   41.0850 C.3       1 GLC         0.1341
     16 C3         -1.3770  -36.5670   42.0620 C.3       1 GLC         0.1141
     17 C4         -0.2710  -35.6850   42.6720 C.3       1 GLC         0.1119
     18 C5         -0.8820  -34.4710   43.3710 C.3       1 GLC         0.1130
     19 C6          0.1820  -33.4920   43.9130 C.3       1 GLC         0.0730
     20 O1         -3.8180  -34.7830   42.6870 O.3       1 GLC        -0.3374
     21 O2         -3.2600  -36.3910   40.4530 O.3       1 GLC        -0.3841
     22 O3         -0.7910  -37.6460   41.3750 O.3       1 GLC        -0.3864
     23 O4          0.5340  -36.4300   43.5730 O.3       1 GLC        -0.3865
     24 O5         -1.7390  -33.7660   42.4800 O.3       1 GLC        -0.3405
     25 O6         -0.4270  -32.3290   44.4920 O.3       1 GLC        -0.3924
     26 H1         -5.5850  -33.9657   45.7760 H         1 3CU         0.2102
     27 H2         -5.5626  -35.5306   44.0249 H         1 3CU         0.0679
     28 H3         -7.7736  -33.8639   43.1983 H         1 3CU         0.0905
     29 H4         -6.0394  -35.9696   41.7745 H         1 3CU         0.0679
     30 H5         -7.9534  -36.6143   42.9054 H         1 3CU         0.2102
     31 H6         -8.1118  -34.2095   40.3180 H         1 3CU         0.0679
     32 H7         -6.9275  -35.0126   38.4897 H         1 3CU         0.2102
     33 H8         -5.0382  -34.0506   40.2529 H         1 3CU         0.0901
     34 H9         -6.0089  -32.7961   38.4672 H         1 3CU         0.0614
     35 H10        -5.3606  -31.6671   39.7049 H         1 3CU         0.0614
     36 H11        -7.5140  -31.4666   40.4728 H         1 3CU         0.2097
     37 H12        -6.7532  -32.5872   41.8689 H         1 3CU         0.2044
     38 H13        -5.5456  -31.7633   43.3270 H         1 3CU         0.0841
     39 H14        -4.3549  -32.0098   42.0048 H         1 3CU         0.0841
     40 H15        -3.8417  -33.3567   44.2544 H         1 3CU         0.0679
     41 H16        -3.1750  -33.7914   41.0128 H         1 3CU         0.0938
     42 H17        -1.5086  -35.3599   40.2978 H         1 3CU         0.0671
     43 H18        -2.0314  -36.9510   42.8584 H         1 3CU         0.0648
     44 H19         0.3718  -35.3253   41.8550 H         1 3CU         0.0647
     45 H20        -1.4786  -34.8350   44.2204 H         1 3CU         0.0647
     46 H21         0.8362  -33.1797   43.0857 H         1 3CU         0.0584
     47 H22         0.7809  -34.0029   44.6812 H         1 3CU         0.0584
     48 H23        -3.8611  -36.7168   41.1126 H         1 3CU         0.2101
     49 H24        -1.4739  -38.1891   40.9993 H         1 3CU         0.2100
     50 H25         0.9040  -37.1789   43.1204 H         1 3CU         0.2100
     51 H26        -0.9425  -31.8809   43.8318 H         1 3CU         0.2095
@<TRIPOS>BOND
     1    2    1 1  
     2    2    3 1  
     3   13    2 1  
     4    3    4 1  
     5   11    3 1  
     6    4    5 1  
     7    4    6 1  
     8    6    7 1  
     9    8    6 1  
    10    8    9 1  
    11   11    8 1  
    12    9   10 1  
    13   12   11 1  
    14   13   12 1  
    15   20   13 1  
    16   14   15 1  
    17   14   20 1  
    18   14   24 1  
    19   15   16 1  
    20   15   21 1  
    21   16   17 1  
    22   16   22 1  
    23   17   18 1  
    24   17   23 1  
    25   18   19 1  
    26   18   24 1  
    27   19   25 1  
    28    1   26 1  
    29    2   27 1  
    30    3   28 1  
    31    4   29 1  
    32    5   30 1  
    33    6   31 1  
    34    7   32 1  
    35    8   33 1  
    36    9   34 1  
    37    9   35 1  
    38   10   36 1  
    39   11   37 1  
    40   12   38 1  
    41   12   39 1  
    42   13   40 1  
    43   14   41 1  
    44   15   42 1  
    45   16   43 1  
    46   17   44 1  
    47   18   45 1  
    48   19   46 1  
    49   19   47 1  
    50   21   48 1  
    51   22   49 1  
    52   23   50 1  
    53   25   51 1  
@<TRIPOS>SUBSTRUCTURE
     1 3CU         1

