### 
### Created by X-TOOL on Mon Sep 10 21:12:58 2018
### 

@<TRIPOS>MOLECULE
2jjk_ligand
   61    62     1     0     0
SMALL
GAST_HUCK


@<TRIPOS>ATOM
      1 S1          8.7430   59.9740   30.4230 S.o2      1 R15         0.0910
      2 S2         16.9850   59.0470   19.4940 S.o2      1 R15         0.0910
      3 N3         16.4590   60.0070   20.8020 N.am      1 R15        -0.1400
      4 N5          8.8540   60.3120   28.7850 N.am      1 R15        -0.1400
      5 C7          9.1950   59.3040   27.8890 C.2       1 R15         0.2779
      6 C8         16.5520   59.5330   22.1110 C.2       1 R15         0.2779
      7 C9          7.2490   59.0710   30.7210 C.ar      1 R15         0.1134
      8 C10        18.7430   58.8530   19.4830 C.ar      1 R15         0.1134
      9 O11         9.8900   59.1430   30.7690 O.2       1 R15        -0.1457
     10 O12        16.4010   57.7280   19.6380 O.2       1 R15        -0.1457
     11 O13        16.6690   59.7810   18.2630 O.2       1 R15        -0.1457
     12 O14         8.6750   61.2430   31.1850 O.2       1 R15        -0.1457
     13 C15         7.2990   57.6950   30.9180 C.ar      1 R15        -0.0208
     14 C17        19.3270   57.6440   19.8710 C.ar      1 R15        -0.0208
     15 O19         9.4020   58.1260   28.2250 O.2       1 R15        -0.3994
     16 O20        17.0140   58.3940   22.3910 O.2       1 R15        -0.3994
     17 N21         9.2500   59.7650   26.5930 N.am      1 R15        -0.2719
     18 N22        16.0900   60.4420   23.0590 N.am      1 R15        -0.2719
     19 C23         6.1300   56.9900   31.1510 C.ar      1 R15         0.0423
     20 C24        20.7060   57.5200   19.8410 C.ar      1 R15         0.0423
     21 CL25        6.2160   55.2750   31.3940 Cl        1 R15        -0.0706
     22 CL26       21.4520   56.0180   20.3100 Cl        1 R15        -0.0706
     23 C27         6.0290   59.7230   30.7660 C.ar      1 R15        -0.0346
     24 C29        19.5310   59.9140   19.0500 C.ar      1 R15        -0.0346
     25 C31         4.8540   59.0220   31.0140 C.ar      1 R15        -0.0594
     26 C33        20.9060   59.7840   19.0370 C.ar      1 R15        -0.0594
     27 C41         4.9110   57.6440   31.2030 C.ar      1 R15        -0.0477
     28 C43        21.4920   58.5850   19.4290 C.ar      1 R15        -0.0477
     29 C35        16.0940   60.1340   24.4840 C.3       1 R15         0.0313
     30 C38         9.9580   59.0160   25.5600 C.3       1 R15         0.0313
     31 C45        15.0640   59.0380   24.7820 C.3       1 R15        -0.0330
     32 C48        11.4650   58.9770   25.8370 C.3       1 R15        -0.0330
     33 C51        14.4100   59.2030   26.1560 C.3       1 R15        -0.0513
     34 C54        12.1700   60.2960   25.5030 C.3       1 R15        -0.0513
     35 C57        13.4990   60.4290   26.2540 C.3       1 R15        -0.0529
     36 H1         16.0810   60.9166   20.6294 H         1 R15         0.2139
     37 H2          8.6752   61.2378   28.4520 H         1 R15         0.2139
     38 H3          8.2502   57.1760   30.8892 H         1 R15         0.0643
     39 H4         18.7082   56.8136   20.1914 H         1 R15         0.0643
     40 H5          8.7984   60.6252   26.3562 H         1 R15         0.1845
     41 H6         15.7461   61.3302   22.7542 H         1 R15         0.1845
     42 H7          5.9889   60.7944   30.6058 H         1 R15         0.0639
     43 H8         19.0683   60.8386   18.7243 H         1 R15         0.0639
     44 H9          3.9043   59.5427   31.0596 H         1 R15         0.0618
     45 H10        21.5271   60.6147   18.7220 H         1 R15         0.0618
     46 H11         4.0021   57.0838   31.3906 H         1 R15         0.0623
     47 H12        22.5710   58.4826   19.4122 H         1 R15         0.0623
     48 H13        15.8387   61.0395   25.0540 H         1 R15         0.0517
     49 H14        17.0944   59.7847   24.7792 H         1 R15         0.0517
     50 H15         9.7848   59.4968   24.5860 H         1 R15         0.0517
     51 H16         9.5713   57.9865   25.5347 H         1 R15         0.0517
     52 H17        15.5687   58.0613   24.7471 H         1 R15         0.0284
     53 H18        14.2794   59.0731   24.0119 H         1 R15         0.0284
     54 H19        11.9125   58.1768   25.2292 H         1 R15         0.0284
     55 H20        11.6197   58.7573   26.9037 H         1 R15         0.0284
     56 H21        15.2044   59.2981   26.9108 H         1 R15         0.0266
     57 H22        13.8099   58.3054   26.3663 H         1 R15         0.0266
     58 H23        11.5146   61.1330   25.7856 H         1 R15         0.0266
     59 H24        12.3657   60.3326   24.4212 H         1 R15         0.0266
     60 H25        14.0409   61.2933   25.8425 H         1 R15         0.0265
     61 H26        13.2766   60.6076   27.3164 H         1 R15         0.0265
@<TRIPOS>BOND
     1    4    1 am 
     2    1    7 1  
     3    1    9 2  
     4    1   12 2  
     5    3    2 am 
     6    2    8 1  
     7    2   10 2  
     8    2   11 2  
     9    6    3 am 
    10    5    4 am 
    11    5   15 2  
    12   17    5 am 
    13    6   16 2  
    14   18    6 am 
    15    7   13 ar 
    16    7   23 ar 
    17    8   14 ar 
    18    8   24 ar 
    19   13   19 ar 
    20   14   20 ar 
    21   30   17 1  
    22   29   18 1  
    23   19   21 1  
    24   19   27 ar 
    25   20   22 1  
    26   20   28 ar 
    27   23   25 ar 
    28   24   26 ar 
    29   25   27 ar 
    30   26   28 ar 
    31   31   29 1  
    32   32   30 1  
    33   33   31 1  
    34   34   32 1  
    35   35   33 1  
    36   34   35 1  
    37    3   36 1  
    38    4   37 1  
    39   13   38 1  
    40   14   39 1  
    41   17   40 1  
    42   18   41 1  
    43   23   42 1  
    44   24   43 1  
    45   25   44 1  
    46   26   45 1  
    47   27   46 1  
    48   28   47 1  
    49   29   48 1  
    50   29   49 1  
    51   30   50 1  
    52   30   51 1  
    53   31   52 1  
    54   31   53 1  
    55   32   54 1  
    56   32   55 1  
    57   33   56 1  
    58   33   57 1  
    59   34   58 1  
    60   34   59 1  
    61   35   60 1  
    62   35   61 1  
@<TRIPOS>SUBSTRUCTURE
     1 R15         1

