### 
### Created by X-TOOL on Sun Sep  9 21:50:45 2018
### 

@<TRIPOS>MOLECULE
2jjr_ligand
   29    28     1     0     0
SMALL
GAST_HUCK


@<TRIPOS>ATOM
      1 C          21.5620  -18.1430  -18.7780 C.3       1 NON        -0.0072
      2 C1         21.7520  -17.4140  -20.1110 C.3       1 NON         0.0164
      3 C2         22.0340  -19.5960  -18.9510 C.3       1 NON         0.0164
      4 C3         22.3480  -17.4250  -17.6920 C.3       1 NON         0.0164
      5 C4         21.5560  -15.8940  -20.0860 C.3       1 NON         0.0496
      6 C5         21.3990  -20.6400  -18.0270 C.3       1 NON         0.0496
      7 C6         21.5640  -16.3750  -16.8870 C.3       1 NON         0.0496
      8 N          20.1390  -18.1310  -18.4190 N.4       1 NON         0.2231
      9 O4         22.0690  -15.3050  -21.2900 O.3       1 NON        -0.3948
     10 O5         22.3630  -21.6360  -17.6150 O.3       1 NON        -0.3948
     11 O6         22.4200  -15.2850  -16.5100 O.3       1 NON        -0.3948
     12 H1         21.0313  -17.8333  -20.8284 H         1 NON         0.0345
     13 H2         22.7757  -17.6145  -20.4600 H         1 NON         0.0345
     14 H3         23.1204  -19.6162  -18.7799 H         1 NON         0.0345
     15 H4         21.8204  -19.8947  -19.9879 H         1 NON         0.0345
     16 H5         23.1996  -16.9184  -18.1696 H         1 NON         0.0345
     17 H6         22.7205  -18.1827  -16.9870 H         1 NON         0.0345
     18 H7         22.0895  -15.4736  -19.2207 H         1 NON         0.0559
     19 H8         20.4829  -15.6680  -20.0004 H         1 NON         0.0559
     20 H9         20.5764  -21.1377  -18.5613 H         1 NON         0.0559
     21 H10        21.0033  -20.1341  -17.1340 H         1 NON         0.0559
     22 H11        21.1565  -16.8451  -15.9799 H         1 NON         0.0559
     23 H12        20.7381  -15.9897  -17.5030 H         1 NON         0.0559
     24 H13        19.6084  -18.6049  -19.1330 H         1 NON         0.1999
     25 H14        19.8203  -17.1780  -18.3405 H         1 NON         0.1999
     26 H15        20.0110  -18.6019  -17.5370 H         1 NON         0.1999
     27 H16        22.9964  -15.4972  -21.3651 H         1 NON         0.2094
     28 H17        21.9403  -22.2673  -17.0447 H         1 NON         0.2094
     29 H18        21.9195  -14.6475  -16.0145 H         1 NON         0.2094
@<TRIPOS>BOND
     1    1    2 1  
     2    1    3 1  
     3    1    4 1  
     4    1    8 1  
     5    2    5 1  
     6    3    6 1  
     7    4    7 1  
     8    5    9 1  
     9    6   10 1  
    10    7   11 1  
    11    2   12 1  
    12    2   13 1  
    13    3   14 1  
    14    3   15 1  
    15    4   16 1  
    16    4   17 1  
    17    5   18 1  
    18    5   19 1  
    19    6   20 1  
    20    6   21 1  
    21    7   22 1  
    22    7   23 1  
    23    8   24 1  
    24    8   25 1  
    25    8   26 1  
    26    9   27 1  
    27   10   28 1  
    28   11   29 1  
@<TRIPOS>SUBSTRUCTURE
     1 NON         1

