### 
### Created by X-TOOL on Mon Sep 10 21:12:59 2018
### 

@<TRIPOS>MOLECULE
2jk7_ligand
   78    81     1     0     0
SMALL
GAST_HUCK


@<TRIPOS>ATOM
      1 C49       110.8170   98.7840   61.8030 C.3       1 BI6        -0.0508
      2 C9        109.7170   98.1930   62.8130 C.3       1 BI6        -0.0296
      3 C10       108.4090   97.3610   62.3070 C.3       1 BI6         0.0458
      4 N3        108.1430   97.0740   60.7930 N.am      1 BI6        -0.2572
      5 C6        109.0010   96.3840   59.8790 C.2       1 BI6         0.2049
      6 C5        110.4180   95.7540   60.1720 C.3       1 BI6         0.1312
      7 N2        111.0130   94.8310   59.2550 N.am      1 BI6        -0.2610
      8 C4        111.6480   93.7600   59.8560 C.2       1 BI6         0.2268
      9 C1        112.2870   92.7240   58.9860 C.3       1 BI6         0.0663
     10 C2        111.4380   91.4060   59.0430 C.3       1 BI6         0.0051
     11 C3        109.9960   91.5730   58.4900 C.3       1 BI6        -0.0580
     12 N1        113.6600   92.5470   59.4900 N.4       1 BI6         0.2439
     13 O1        111.7190   93.5930   61.1060 O.2       1 BI6        -0.3907
     14 C7        111.4010   96.7410   60.5290 C.3       1 BI6        -0.0124
     15 C8        111.3140   97.9740   60.6810 C.3       1 BI6        -0.0488
     16 O2        108.6390   96.2320   58.6680 O.2       1 BI6        -0.3943
     17 C13       106.8590   97.5860   60.2320 C.3       1 BI6         0.1138
     18 C14       107.0080   98.9570   59.5450 C.3       1 BI6         0.1069
     19 O3        108.1290   99.4610   59.5120 O.3       1 BI6        -0.3507
     20 N4        106.2580   98.5770   58.4020 N.4       1 BI6         0.2760
     21 C15       106.0630   99.6790   57.3870 C.3       1 BI6         0.0469
     22 C17       105.2960  100.9950   57.9330 C.ar      1 BI6         0.0158
     23 C18       105.5460  102.3180   57.2890 C.ar      1 BI6        -0.0530
     24 C26       114.8390   93.2990   59.3980 C.3       1 BI6        -0.0428
     25 C19       104.8570  103.5010   57.7740 C.ar      1 BI6        -0.0680
     26 C20       103.9270  103.4230   58.8760 C.ar      1 BI6        -0.0685
     27 C21       103.6660  102.1420   59.5190 C.ar      1 BI6        -0.0680
     28 C22       104.3420  100.9350   59.0530 C.ar      1 BI6        -0.0530
     29 C16       105.2570   99.1020   56.1840 C.ar      1 BI6         0.0158
     30 C23       103.9930   99.6270   55.6330 C.ar      1 BI6        -0.0530
     31 C24       103.3640   99.0050   54.5210 C.ar      1 BI6        -0.0680
     32 C25       103.9700   97.8520   53.9240 C.ar      1 BI6        -0.0685
     33 C27       105.8330   97.9450   55.5640 C.ar      1 BI6        -0.0530
     34 C28       105.2100   97.3160   54.4450 C.ar      1 BI6        -0.0680
     35 C12       106.0870   97.2360   61.4330 C.3       1 BI6        -0.0198
     36 C11       107.0650   97.9030   62.5650 C.3       1 BI6        -0.0273
     37 H1        111.6936   99.0492   62.4123 H         1 BI6         0.0266
     38 H2        110.3849   99.6961   61.3656 H         1 BI6         0.0266
     39 H3        109.3298   99.0536   63.3782 H         1 BI6         0.0287
     40 H4        110.2597   97.5211   63.4942 H         1 BI6         0.0287
     41 H5        108.5031   96.3951   62.8248 H         1 BI6         0.0558
     42 H6        110.2485   95.1584   61.0811 H         1 BI6         0.0800
     43 H7        110.9730   94.9504   58.2630 H         1 BI6         0.1884
     44 H8        112.3244   93.0760   57.9445 H         1 BI6         0.1099
     45 H9        111.3731   91.0788   60.0912 H         1 BI6         0.0343
     46 H10       111.9513   90.6353   58.4494 H         1 BI6         0.0343
     47 H11       109.4626   90.6136   58.5613 H         1 BI6         0.0233
     48 H12       110.0413   91.8900   57.4377 H         1 BI6         0.0233
     49 H13       109.4630   92.3335   59.0795 H         1 BI6         0.0233
     50 H14       113.9295   91.6554   59.1048 H         1 BI6         0.2032
     51 H15       113.5262   92.4566   60.4850 H         1 BI6         0.2032
     52 H16       112.1772   96.6272   59.7579 H         1 BI6         0.0312
     53 H17       111.7889   96.3857   61.4951 H         1 BI6         0.0312
     54 H18       112.3461   98.3277   60.5407 H         1 BI6         0.0267
     55 H19       110.6963   98.2988   59.8308 H         1 BI6         0.0267
     56 H20       106.5056   96.9300   59.4228 H         1 BI6         0.0642
     57 H21       106.4144   99.7007   60.0968 H         1 BI6         0.1208
     58 H22       108.4263   99.6276   60.3988 H         1 BI6         0.2155
     59 H23       105.3493   98.2680   58.7099 H         1 BI6         0.2075
     60 H24       106.7372   97.8139   57.9502 H         1 BI6         0.2075
     61 H25       107.0577   99.9922   57.0371 H         1 BI6         0.1179
     62 H26       106.2408  102.3958   56.4605 H         1 BI6         0.0563
     63 H27       115.6472   92.7809   59.9350 H         1 BI6         0.0777
     64 H28       114.6776   94.2903   59.8465 H         1 BI6         0.0777
     65 H29       115.1177   93.4160   58.3404 H         1 BI6         0.0777
     66 H30       105.0439  104.4583   57.3010 H         1 BI6         0.0600
     67 H31       103.4233  104.3173   59.2247 H         1 BI6         0.0561
     68 H32       102.9676  102.0850   60.3461 H         1 BI6         0.0600
     69 H33       104.1398   99.9858   59.5359 H         1 BI6         0.0563
     70 H34       103.5370  100.5011   56.0836 H         1 BI6         0.0563
     71 H35       102.4339   99.3993   54.1278 H         1 BI6         0.0600
     72 H36       103.4952   97.3761   53.0736 H         1 BI6         0.0561
     73 H37       106.7602   97.5399   55.9530 H         1 BI6         0.0563
     74 H38       105.6619   96.4430   53.9882 H         1 BI6         0.0600
     75 H39       105.9911   96.1476   61.5597 H         1 BI6         0.0291
     76 H40       105.0870   97.6943   61.4293 H         1 BI6         0.0291
     77 H41       107.0694   98.9988   62.4690 H         1 BI6         0.0288
     78 H42       106.7274   97.6246   63.5742 H         1 BI6         0.0288
@<TRIPOS>BOND
     1    1    2 1  
     2    1   15 1  
     3    2    3 1  
     4    3    4 1  
     5    3   36 1  
     6    4    5 am 
     7    4   17 1  
     8    5    6 1  
     9    5   16 2  
    10    6    7 1  
    11    6   14 1  
    12    7    8 am 
    13    8    9 1  
    14    8   13 2  
    15    9   10 1  
    16    9   12 1  
    17   10   11 1  
    18   12   24 1  
    19   14   15 1  
    20   17   18 1  
    21   17   35 1  
    22   18   19 1  
    23   18   20 1  
    24   20   21 1  
    25   21   22 1  
    26   21   29 1  
    27   22   23 ar 
    28   22   28 ar 
    29   23   25 ar 
    30   25   26 ar 
    31   26   27 ar 
    32   27   28 ar 
    33   29   30 ar 
    34   29   33 ar 
    35   30   31 ar 
    36   31   32 ar 
    37   32   34 ar 
    38   33   34 ar 
    39   35   36 1  
    40    1   37 1  
    41    1   38 1  
    42    2   39 1  
    43    2   40 1  
    44    3   41 1  
    45    6   42 1  
    46    7   43 1  
    47    9   44 1  
    48   10   45 1  
    49   10   46 1  
    50   11   47 1  
    51   11   48 1  
    52   11   49 1  
    53   12   50 1  
    54   12   51 1  
    55   14   52 1  
    56   14   53 1  
    57   15   54 1  
    58   15   55 1  
    59   17   56 1  
    60   18   57 1  
    61   19   58 1  
    62   20   59 1  
    63   20   60 1  
    64   21   61 1  
    65   23   62 1  
    66   24   63 1  
    67   24   64 1  
    68   24   65 1  
    69   25   66 1  
    70   26   67 1  
    71   27   68 1  
    72   28   69 1  
    73   30   70 1  
    74   31   71 1  
    75   32   72 1  
    76   33   73 1  
    77   34   74 1  
    78   35   75 1  
    79   35   76 1  
    80   36   77 1  
    81   36   78 1  
@<TRIPOS>SUBSTRUCTURE
     1 BI6         1

