### 
### Created by X-TOOL on Mon Sep 10 21:13:00 2018
### 

@<TRIPOS>MOLECULE
2jkh_ligand
   60    64     1     0     0
SMALL
GAST_HUCK


@<TRIPOS>ATOM
      1 O13        -3.3790   10.1460   22.3380 O.2       1 BI7        -0.3852
      2 C6         -3.9410   11.1580   21.9180 C.2       1 BI7         0.2201
      3 N12        -4.9910   11.0850   21.0360 N.am      1 BI7        -0.1843
      4 C19        -5.8800    9.9090   21.1480 C.3       1 BI7         0.0635
      5 C21        -5.5610    9.1700   19.8540 C.3       1 BI7         0.0123
      6 C23        -6.3260    7.8750   19.6540 C.3       1 BI7        -0.0286
      7 N29        -6.0510    7.1990   18.3700 N.4       1 BI7         0.2369
      8 C30        -4.6370    6.8540   18.2010 C.3       1 BI7        -0.0418
      9 C31        -6.7910    5.9390   18.3930 C.3       1 BI7        -0.0418
     10 C32        -6.5190    7.9920   17.2120 C.3       1 BI7        -0.0418
     11 C2         -3.5440   12.5840   22.2200 C.3       1 BI7         0.1308
     12 C1         -3.3790   12.9840   23.6880 C.3       1 BI7         0.0415
     13 N3         -4.7170   13.3720   24.1640 N.4       1 BI7         0.2543
     14 C8         -4.6370   14.4120   25.2040 C.3       1 BI7        -0.0296
     15 C15        -4.7100   15.7650   24.5000 C.3       1 BI7        -0.0072
     16 C14        -5.1380   15.4870   23.0620 C.3       1 BI7        -0.0022
     17 C7         -5.3720   13.9770   22.9790 C.3       1 BI7         0.0041
     18 C5         -4.7430   13.3810   21.7340 C.3       1 BI7         0.1234
     19 C11        -5.5910   12.3290   21.0820 C.2       1 BI7         0.2184
     20 O18        -6.6970   12.5320   20.5910 O.2       1 BI7        -0.3853
     21 C4         -2.5260   12.0300   24.4490 C.2       1 BI7         0.0761
     22 C16        -3.0640   11.1180   25.3850 C.2       1 BI7        -0.0177
     23 N9         -1.1850   11.9120   24.2960 N.2       1 BI7        -0.1536
     24 O10        -0.8190   10.8700   25.1950 O.3       1 BI7        -0.1785
     25 C17        -1.9190   10.4620   25.8600 C.2       1 BI7         0.1598
     26 C20        -1.8730    9.3760   26.7280 C.2       1 BI7         0.0719
     27 C22        -2.7630    9.0540   27.7450 C.2       1 BI7        -0.0635
     28 C24        -2.4110    7.8370   28.3300 C.2       1 BI7        -0.0591
     29 S1         -0.5750    8.2640   26.4200 S.3       1 BI7        -0.0237
     30 C25        -1.2890    7.3390   27.6830 C.2       1 BI7         0.0959
     31 CL1        -0.4950    5.7740   28.1070 Cl        1 BI7        -0.0551
     32 H1         -6.9381   10.2066   21.1915 H         1 BI7         0.0578
     33 H2         -5.6337    9.3004   22.0306 H         1 BI7         0.0578
     34 H3         -4.4861    8.9363   19.8498 H         1 BI7         0.0340
     35 H4         -5.7943    9.8384   19.0121 H         1 BI7         0.0340
     36 H5         -7.4018    8.0994   19.7017 H         1 BI7         0.0816
     37 H6         -6.0584    7.1872   20.4697 H         1 BI7         0.0816
     38 H7         -4.4947    6.3554   17.2309 H         1 BI7         0.0778
     39 H8         -4.3254    6.1772   19.0102 H         1 BI7         0.0778
     40 H9         -4.0294    7.7703   18.2349 H         1 BI7         0.0778
     41 H10        -7.8640    6.1462   18.5188 H         1 BI7         0.0778
     42 H11        -6.4363    5.3207   19.2308 H         1 BI7         0.0778
     43 H12        -6.6298    5.4017   17.4468 H         1 BI7         0.0778
     44 H13        -5.9732    8.9464   17.1766 H         1 BI7         0.0778
     45 H14        -7.5963    8.1893   17.3140 H         1 BI7         0.0778
     46 H15        -6.3354    7.4300   16.2844 H         1 BI7         0.0778
     47 H16        -2.6248   12.8351   21.6704 H         1 BI7         0.0651
     48 H17        -2.7961   13.9168   23.6967 H         1 BI7         0.1033
     49 H18        -5.2255   12.5714   24.5054 H         1 BI7         0.2056
     50 H19        -3.6875   14.3238   25.7523 H         1 BI7         0.0815
     51 H20        -5.4771   14.3074   25.9063 H         1 BI7         0.0815
     52 H21        -3.7248   16.2539   24.5147 H         1 BI7         0.0319
     53 H22        -5.4479   16.4119   24.9970 H         1 BI7         0.0319
     54 H23        -4.3461   15.7906   22.3615 H         1 BI7         0.0323
     55 H24        -6.0644   16.0313   22.8264 H         1 BI7         0.0323
     56 H25        -6.4514   13.7655   22.9844 H         1 BI7         0.0882
     57 H26        -4.4702   14.1723   21.0203 H         1 BI7         0.0632
     58 H27        -4.1047   10.9636   25.6663 H         1 BI7         0.0374
     59 H28        -3.6141    9.6644   28.0432 H         1 BI7         0.0451
     60 H29        -2.9311    7.3572   29.1578 H         1 BI7         0.0439
@<TRIPOS>BOND
     1    1    2 2  
     2    2    3 am 
     3    2   11 1  
     4    3    4 1  
     5    3   19 am 
     6    4    5 1  
     7    5    6 1  
     8    6    7 1  
     9    7    8 1  
    10    7    9 1  
    11    7   10 1  
    12   11   12 1  
    13   11   18 1  
    14   12   13 1  
    15   12   21 1  
    16   13   14 1  
    17   13   17 1  
    18   14   15 1  
    19   15   16 1  
    20   16   17 1  
    21   17   18 1  
    22   18   19 1  
    23   19   20 2  
    24   21   22 1  
    25   21   23 2  
    26   22   25 2  
    27   23   24 1  
    28   24   25 1  
    29   25   26 1  
    30   26   27 2  
    31   26   29 1  
    32   27   28 1  
    33   28   30 2  
    34   29   30 1  
    35   30   31 1  
    36    4   32 1  
    37    4   33 1  
    38    5   34 1  
    39    5   35 1  
    40    6   36 1  
    41    6   37 1  
    42    8   38 1  
    43    8   39 1  
    44    8   40 1  
    45    9   41 1  
    46    9   42 1  
    47    9   43 1  
    48   10   44 1  
    49   10   45 1  
    50   10   46 1  
    51   11   47 1  
    52   12   48 1  
    53   13   49 1  
    54   14   50 1  
    55   14   51 1  
    56   15   52 1  
    57   15   53 1  
    58   16   54 1  
    59   16   55 1  
    60   17   56 1  
    61   18   57 1  
    62   22   58 1  
    63   27   59 1  
    64   28   60 1  
@<TRIPOS>SUBSTRUCTURE
     1 BI7         1

