### 
### Created by X-TOOL on Mon Sep 10 21:12:57 2018
### 

@<TRIPOS>MOLECULE
2jkk_ligand
   58    61     1     0     0
SMALL
GAST_HUCK


@<TRIPOS>ATOM
      1 CBC         9.0410   -2.7190   32.0490 C.3       1 BI9         0.0481
      2 CBE        10.2130   -2.9610   33.0220 C.3       1 BI9         0.0670
      3 OBG        11.3040   -3.5690   32.3390 O.3       1 BI9        -0.3759
      4 CBF        11.8660   -2.6670   31.3900 C.3       1 BI9         0.0670
      5 CBD        10.8670   -2.2280   30.3140 C.3       1 BI9         0.0481
      6 NBB         9.4790   -2.0480   30.8040 N.pl3     1 BI9        -0.3122
      7 CBA         8.5740   -1.2030   30.0720 C.ar      1 BI9         0.0203
      8 CAY         7.2790   -0.9350   30.5310 C.ar      1 BI9        -0.0241
      9 CAS         6.3970   -0.1130   29.8000 C.ar      1 BI9         0.1048
     10 OAT         5.1280    0.1660   30.2020 O.3       1 BI9        -0.3280
     11 CAU         4.7900   -0.5600   31.3940 C.3       1 BI9         0.0568
     12 CAX         8.9970   -0.6060   28.8740 C.ar      1 BI9        -0.0642
     13 CAR         8.1160    0.2040   28.1470 C.ar      1 BI9        -0.0568
     14 CAL         6.8140    0.4680   28.6080 C.ar      1 BI9         0.0831
     15 NAH         5.9230    1.2440   27.9650 N.pl3     1 BI9        -0.2542
     16 C2          6.2010    2.3770   27.2920 C.ar      1 BI9         0.1905
     17 N3          7.4540    2.8240   27.1340 N.ar      1 BI9        -0.2350
     18 N1          5.1990    3.0670   26.7550 N.ar      1 BI9        -0.2695
     19 C6          5.4270    4.1840   26.0740 C.ar      1 BI9         0.0147
     20 C5          6.7110    4.6620   25.8790 C.ar      1 BI9         0.0982
     21 CL5         6.9780    6.1210   24.9630 Cl        1 BI9        -0.0751
     22 C4          7.7720    3.9310   26.4160 C.ar      1 BI9         0.1490
     23 NAE         9.0490    4.3410   26.2290 N.pl3     1 BI9        -0.2510
     24 CAJ        10.1860    3.7000   26.5900 C.ar      1 BI9         0.0853
     25 CAQ        10.3770    3.3480   27.9430 C.ar      1 BI9        -0.0320
     26 CAW        11.5180    2.6950   28.3730 C.ar      1 BI9        -0.0669
     27 CAZ        12.5330    2.4170   27.4570 C.ar      1 BI9        -0.0675
     28 CAV        12.3700    2.7740   26.1200 C.ar      1 BI9        -0.0512
     29 CAP        11.2100    3.4050   25.6740 C.ar      1 BI9         0.0729
     30 CAO        11.1170    3.7550   24.1830 C.2       1 BI9         0.1981
     31 OAI        10.3950    4.6710   23.8180 O.2       1 BI9        -0.3912
     32 NAN        11.8370    2.9880   23.3590 N.am      1 BI9        -0.2912
     33 CAM        11.8190    3.3030   21.9240 C.3       1 BI9         0.0187
     34 H1          8.2912   -2.0870   32.5474 H         1 BI9         0.0532
     35 H2          8.5898   -3.6880   31.7895 H         1 BI9         0.0532
     36 H3          9.8793   -3.6230   33.8347 H         1 BI9         0.0579
     37 H4         10.5395   -1.9988   33.4434 H         1 BI9         0.0579
     38 H5         12.7162   -3.1616   30.8975 H         1 BI9         0.0579
     39 H6         12.2208   -1.7731   31.9239 H         1 BI9         0.0579
     40 H7         10.8561   -2.9917   29.5224 H         1 BI9         0.0532
     41 H8         11.2109   -1.2707   29.8952 H         1 BI9         0.0532
     42 H9          6.9475   -1.3683   31.4677 H         1 BI9         0.0409
     43 H10         3.7605   -0.3141   31.6936 H         1 BI9         0.0573
     44 H11         5.4832   -0.2820   32.2016 H         1 BI9         0.0573
     45 H12         4.8673   -1.6400   31.1999 H         1 BI9         0.0573
     46 H13        10.0052   -0.7720   28.5119 H         1 BI9         0.0397
     47 H14         8.4446    0.6367   27.2090 H         1 BI9         0.0475
     48 H15         4.9379    0.9442   27.9896 H         1 BI9         0.2118
     49 H16         4.5886    4.7337   25.6616 H         1 BI9         0.0853
     50 H17         9.1699    5.2480   25.7561 H         1 BI9         0.2187
     51 H18         9.6081    3.5963   28.6656 H         1 BI9         0.0550
     52 H19        11.6226    2.4021   29.4114 H         1 BI9         0.0623
     53 H20        13.4428    1.9263   27.7834 H         1 BI9         0.0533
     54 H21        13.1617    2.5565   25.4122 H         1 BI9         0.0639
     55 H22        12.3735    2.2204   23.7096 H         1 BI9         0.1837
     56 H23        12.4554    2.5869   21.3834 H         1 BI9         0.0483
     57 H24        12.2001    4.3229   21.7676 H         1 BI9         0.0483
     58 H25        10.7881    3.2349   21.5465 H         1 BI9         0.0483
@<TRIPOS>BOND
     1    1    2 1  
     2    1    6 1  
     3    2    3 1  
     4    3    4 1  
     5    4    5 1  
     6    5    6 1  
     7    6    7 1  
     8    7    8 ar 
     9    7   12 ar 
    10    8    9 ar 
    11    9   10 1  
    12    9   14 ar 
    13   10   11 1  
    14   12   13 ar 
    15   13   14 ar 
    16   14   15 1  
    17   15   16 1  
    18   16   17 ar 
    19   16   18 ar 
    20   17   22 ar 
    21   18   19 ar 
    22   19   20 ar 
    23   20   21 1  
    24   20   22 ar 
    25   22   23 1  
    26   23   24 1  
    27   24   25 ar 
    28   24   29 ar 
    29   25   26 ar 
    30   26   27 ar 
    31   27   28 ar 
    32   28   29 ar 
    33   29   30 1  
    34   30   31 2  
    35   30   32 am 
    36   32   33 1  
    37    1   34 1  
    38    1   35 1  
    39    2   36 1  
    40    2   37 1  
    41    4   38 1  
    42    4   39 1  
    43    5   40 1  
    44    5   41 1  
    45    8   42 1  
    46   11   43 1  
    47   11   44 1  
    48   11   45 1  
    49   12   46 1  
    50   13   47 1  
    51   15   48 1  
    52   19   49 1  
    53   23   50 1  
    54   25   51 1  
    55   26   52 1  
    56   27   53 1  
    57   28   54 1  
    58   32   55 1  
    59   33   56 1  
    60   33   57 1  
    61   33   58 1  
@<TRIPOS>SUBSTRUCTURE
     1 BI9         1

