### 
### Created by X-TOOL on Mon Sep 10 21:12:58 2018
### 

@<TRIPOS>MOLECULE
2jkm_ligand
   70    73     1     0     0
SMALL
GAST_HUCK


@<TRIPOS>ATOM
      1 CAI        10.8430    3.2190   22.2240 C.3       1 BII        -0.0456
      2 CAN        11.2370    3.3060   23.6990 C.3       1 BII         0.0320
      3 CAW        12.2500    2.1940   23.9810 C.3       1 BII        -0.0456
      4 NAO        11.8170    4.6430   23.9950 N.am      1 BII        -0.2463
      5 SAP        11.3420    5.4670   25.3700 S.o2      1 BII         0.0660
      6 OAX        12.3910    6.4570   25.7840 O.2       1 BII        -0.1520
      7 OAJ        10.0920    6.2350   25.0780 O.2       1 BII        -0.1520
      8 CAQ        11.1320    4.3470   26.7280 C.ar      1 BII         0.1312
      9 CAY        12.2990    3.8090   27.2890 C.ar      1 BII        -0.0446
     10 CBC        12.2380    2.9140   28.3560 C.ar      1 BII        -0.0715
     11 CAZ        10.9940    2.5530   28.8630 C.ar      1 BII        -0.0713
     12 CAR         9.8270    3.0940   28.3060 C.ar      1 BII        -0.0362
     13 CAK         9.8690    3.9870   27.2300 C.ar      1 BII         0.0909
     14 NAE         8.7390    4.5150   26.6990 N.pl3     1 BII        -0.2537
     15 C4          7.5040    3.9590   26.6490 C.ar      1 BII         0.1474
     16 N3          7.1990    2.7680   27.2170 N.ar      1 BII        -0.2355
     17 C5          6.4860    4.6450   25.9870 C.ar      1 BII         0.0977
     18 CL5         6.8310    6.1870   25.2660 Cl        1 BII        -0.0753
     19 C6          5.2080    4.0800   25.9090 C.ar      1 BII         0.0145
     20 N1          4.9730    2.8930   26.4690 N.ar      1 BII        -0.2698
     21 C2          5.9580    2.2340   27.1170 C.ar      1 BII         0.1902
     22 NAH         5.6800    1.0490   27.6680 N.pl3     1 BII        -0.2542
     23 CAM         6.5180    0.3440   28.4420 C.ar      1 BII         0.0831
     24 CAT         6.0090   -0.2050   29.6220 C.ar      1 BII         0.1048
     25 CBB         6.8440   -0.9660   30.4450 C.ar      1 BII        -0.0241
     26 OAU         4.6990    0.0170   29.9350 O.3       1 BII        -0.3280
     27 CAV         4.2800   -0.4360   31.2360 C.3       1 BII         0.0568
     28 CAS         7.8610    0.1010   28.0930 C.ar      1 BII        -0.0568
     29 CBA         8.6940   -0.6580   28.9260 C.ar      1 BII        -0.0642
     30 CBD         8.1800   -1.2040   30.1130 C.ar      1 BII         0.0204
     31 NBE         8.9210   -1.9480   30.9490 N.pl3     1 BII        -0.3110
     32 CBG        10.3390   -2.3010   30.8130 C.3       1 BII         0.0674
     33 CBF         8.3990   -2.5560   32.1730 C.3       1 BII         0.0300
     34 CBH         9.6340   -2.8130   33.0270 C.3       1 BII         0.0114
     35 CBI        10.7630   -2.1250   32.2680 C.3       1 BII        -0.0014
     36 NBJ        12.0840   -2.7150   32.6260 N.4       1 BII         0.2284
     37 CBK        12.7050   -3.5350   31.5410 C.3       1 BII        -0.0445
     38 H1         10.4156    2.2269   22.0166 H         1 BII         0.0248
     39 H2         11.7335    3.3730   21.5969 H         1 BII         0.0248
     40 H3         10.0964    3.9945   21.9975 H         1 BII         0.0248
     41 H4         10.3466    3.1563   24.3273 H         1 BII         0.0506
     42 H5         12.5521    2.2326   25.0380 H         1 BII         0.0248
     43 H6         13.1343    2.3328   23.3417 H         1 BII         0.0248
     44 H7         11.7918    1.2174   23.7661 H         1 BII         0.0248
     45 H8         12.4884    5.0476   23.3741 H         1 BII         0.1674
     46 H9         13.2644    4.0937   26.8864 H         1 BII         0.0607
     47 H10        13.1463    2.5055   28.7841 H         1 BII         0.0520
     48 H11        10.9271    1.8536   29.6885 H         1 BII         0.0587
     49 H12         8.8656    2.8127   28.7204 H         1 BII         0.0537
     50 H13         8.8301    5.4528   26.2829 H         1 BII         0.2165
     51 H14         4.4116    4.6058   25.3949 H         1 BII         0.0853
     52 H15         4.7502    0.6458   27.4841 H         1 BII         0.2118
     53 H16         6.4452   -1.3817   31.3633 H         1 BII         0.0409
     54 H17         3.2137   -0.2063   31.3784 H         1 BII         0.0573
     55 H18         4.8716    0.0746   32.0102 H         1 BII         0.0573
     56 H19         4.4345   -1.5223   31.3134 H         1 BII         0.0573
     57 H20         8.2552    0.5064   27.1681 H         1 BII         0.0475
     58 H21         9.7306   -0.8228   28.6551 H         1 BII         0.0397
     59 H22        10.8735   -1.6138   30.1406 H         1 BII         0.0566
     60 H23        10.4760   -3.3354   30.4647 H         1 BII         0.0566
     61 H24         7.8789   -3.4987   31.9478 H         1 BII         0.0511
     62 H25         7.7085   -1.8693   32.6845 H         1 BII         0.0511
     63 H26         9.8269   -3.8920   33.1194 H         1 BII         0.0339
     64 H27         9.5137   -2.3749   34.0288 H         1 BII         0.0339
     65 H28        10.7940   -1.0534   32.5143 H         1 BII         0.0870
     66 H29        11.9583   -3.3040   33.4343 H         1 BII         0.2014
     67 H30        12.7148   -1.9624   32.8534 H         1 BII         0.2014
     68 H31        13.6714   -3.9300   31.8875 H         1 BII         0.0777
     69 H32        12.8631   -2.9072   30.6517 H         1 BII         0.0777
     70 H33        12.0375   -4.3712   31.2856 H         1 BII         0.0777
@<TRIPOS>BOND
     1    1    2 1  
     2    2    3 1  
     3    2    4 1  
     4    4    5 am 
     5    5    6 2  
     6    5    7 2  
     7    5    8 1  
     8    8    9 ar 
     9    8   13 ar 
    10    9   10 ar 
    11   10   11 ar 
    12   11   12 ar 
    13   12   13 ar 
    14   13   14 1  
    15   14   15 1  
    16   15   16 ar 
    17   15   17 ar 
    18   16   21 ar 
    19   17   18 1  
    20   17   19 ar 
    21   19   20 ar 
    22   20   21 ar 
    23   21   22 1  
    24   22   23 1  
    25   23   24 ar 
    26   23   28 ar 
    27   24   25 ar 
    28   24   26 1  
    29   25   30 ar 
    30   26   27 1  
    31   28   29 ar 
    32   29   30 ar 
    33   30   31 1  
    34   31   32 1  
    35   31   33 1  
    36   32   35 1  
    37   33   34 1  
    38   34   35 1  
    39   35   36 1  
    40   36   37 1  
    41    1   38 1  
    42    1   39 1  
    43    1   40 1  
    44    2   41 1  
    45    3   42 1  
    46    3   43 1  
    47    3   44 1  
    48    4   45 1  
    49    9   46 1  
    50   10   47 1  
    51   11   48 1  
    52   12   49 1  
    53   14   50 1  
    54   19   51 1  
    55   22   52 1  
    56   25   53 1  
    57   27   54 1  
    58   27   55 1  
    59   27   56 1  
    60   28   57 1  
    61   29   58 1  
    62   32   59 1  
    63   32   60 1  
    64   33   61 1  
    65   33   62 1  
    66   34   63 1  
    67   34   64 1  
    68   35   65 1  
    69   36   66 1  
    70   36   67 1  
    71   37   68 1  
    72   37   69 1  
    73   37   70 1  
@<TRIPOS>SUBSTRUCTURE
     1 BII         1

