### 
### Created by X-TOOL on Mon Sep 10 21:12:57 2018
### 

@<TRIPOS>MOLECULE
2jko_ligand
   64    68     1     0     0
SMALL
GAST_HUCK


@<TRIPOS>ATOM
      1 CBD        29.1450   20.0430   31.1850 C.3       1 BIJ         0.0648
      2 CBF        28.1560   19.7580   30.0440 C.3       1 BIJ        -0.0123
      3 NBH        26.9130   19.1920   30.5960 N.4       1 BIJ         0.2358
      4 CBI        26.0570   18.6960   29.5020 C.3       1 BIJ        -0.0430
      5 CBG        26.1880   20.2270   31.3640 C.3       1 BIJ        -0.0123
      6 CBE        27.0140   20.6490   32.6070 C.3       1 BIJ         0.0648
      7 NBC        28.4980   20.7390   32.3510 N.pl3     1 BIJ        -0.3065
      8 CBA        29.3250   21.4750   33.2520 C.ar      1 BIJ         0.0205
      9 CAW        30.7020   21.5630   33.0320 C.ar      1 BIJ        -0.0241
     10 CAQ        31.5390   22.2750   33.9020 C.ar      1 BIJ         0.1048
     11 OAR        32.8870   22.3620   33.6740 O.3       1 BIJ        -0.3280
     12 CAS        33.3070   21.8740   32.3690 C.3       1 BIJ         0.0568
     13 CAV        28.7920   22.1100   34.3810 C.ar      1 BIJ        -0.0642
     14 CAP        29.6190   22.8200   35.2580 C.ar      1 BIJ        -0.0568
     15 CAL        30.9970   22.9180   35.0220 C.ar      1 BIJ         0.0831
     16 NAH        31.8260   23.5860   35.8480 N.pl3     1 BIJ        -0.2542
     17 C2         31.5480   24.7030   36.5470 C.ar      1 BIJ         0.1905
     18 N3         30.2890   25.1830   36.6290 N.ar      1 BIJ        -0.2350
     19 N1         32.5560   25.3400   37.1830 N.ar      1 BIJ        -0.2695
     20 C6         32.3300   26.4420   37.8920 C.ar      1 BIJ         0.0147
     21 C5         31.0340   26.9590   37.9860 C.ar      1 BIJ         0.0982
     22 CL5        30.7170   28.3930   38.9100 Cl        1 BIJ        -0.0751
     23 C4         29.9930   26.2940   37.3340 C.ar      1 BIJ         0.1489
     24 NAE        28.7270   26.7600   37.4070 N.pl3     1 BIJ        -0.2524
     25 CAJ        27.6420   25.9660   37.3250 C.ar      1 BIJ         0.0787
     26 CAN        26.8080   25.7410   38.4390 C.ar      1 BIJ         0.0763
     27 CAM        26.8420   26.1850   39.7730 C.2       1 BIJ         0.1977
     28 OAI        27.7000   26.9420   40.2350 O.2       1 BIJ        -0.3948
     29 NAU        25.8270   25.6810   40.4920 N.am      1 BIJ        -0.2665
     30 CAT        25.5580   25.9420   41.9300 C.3       1 BIJ         0.0239
     31 CAX        24.9790   24.8300   39.6490 C.3       1 BIJ         0.0672
     32 CAY        25.6890   24.9050   38.2970 C.ar      1 BIJ        -0.0096
     33 CBB        25.3960   24.3060   37.0710 C.ar      1 BIJ        -0.0638
     34 CAZ        26.2180   24.5330   35.9680 C.ar      1 BIJ        -0.0734
     35 CAO        27.3310   25.3640   36.0980 C.ar      1 BIJ        -0.0389
     36 H1         29.9540   20.6805   30.7990 H         1 BIJ         0.0563
     37 H2         29.5652   19.0881   31.5337 H         1 BIJ         0.0563
     38 H3         28.6046   19.0400   29.3417 H         1 BIJ         0.0834
     39 H4         27.9279   20.6950   29.5148 H         1 BIJ         0.0834
     40 H5         27.1432   18.4257   31.2090 H         1 BIJ         0.2032
     41 H6         25.1317   18.2753   29.9224 H         1 BIJ         0.0778
     42 H7         26.5931   17.9157   28.9419 H         1 BIJ         0.0778
     43 H8         25.8078   19.5270   28.8258 H         1 BIJ         0.0778
     44 H9         25.2186   19.8237   31.6919 H         1 BIJ         0.0834
     45 H10        26.0219   21.1053   30.7230 H         1 BIJ         0.0834
     46 H11        26.8439   19.9097   33.4036 H         1 BIJ         0.0563
     47 H12        26.6593   21.6354   32.9403 H         1 BIJ         0.0563
     48 H13        31.1329   21.0692   32.1685 H         1 BIJ         0.0409
     49 H14        34.3975   21.9806   32.2713 H         1 BIJ         0.0573
     50 H15        32.8094   22.4587   31.5813 H         1 BIJ         0.0573
     51 H16        33.0317   20.8138   32.2680 H         1 BIJ         0.0573
     52 H17        27.7276   22.0507   34.5772 H         1 BIJ         0.0397
     53 H18        29.1891   23.2997   36.1299 H         1 BIJ         0.0475
     54 H19        32.7750   23.2006   35.9565 H         1 BIJ         0.2118
     55 H20        33.1501   26.9395   38.3970 H         1 BIJ         0.0854
     56 H21        28.5844   27.7725   37.5315 H         1 BIJ         0.2186
     57 H22        24.6577   25.3914   42.2404 H         1 BIJ         0.0487
     58 H23        25.3999   27.0197   42.0838 H         1 BIJ         0.0487
     59 H24        26.4171   25.6081   42.5303 H         1 BIJ         0.0487
     60 H25        23.9550   25.2266   39.5843 H         1 BIJ         0.0697
     61 H26        24.9491   23.7974   40.0270 H         1 BIJ         0.0697
     62 H27        24.5282   23.6634   36.9762 H         1 BIJ         0.0474
     63 H28        25.9937   24.0667   35.0154 H         1 BIJ         0.0606
     64 H29        27.9645   25.5468   35.2376 H         1 BIJ         0.0493
@<TRIPOS>BOND
     1    1    2 1  
     2    1    7 1  
     3    2    3 1  
     4    3    4 1  
     5    3    5 1  
     6    5    6 1  
     7    6    7 1  
     8    7    8 1  
     9    8    9 ar 
    10    8   13 ar 
    11    9   10 ar 
    12   10   11 1  
    13   10   15 ar 
    14   11   12 1  
    15   13   14 ar 
    16   14   15 ar 
    17   15   16 1  
    18   16   17 1  
    19   17   18 ar 
    20   17   19 ar 
    21   18   23 ar 
    22   19   20 ar 
    23   20   21 ar 
    24   21   22 1  
    25   21   23 ar 
    26   23   24 1  
    27   24   25 1  
    28   25   26 ar 
    29   25   35 ar 
    30   26   27 1  
    31   26   32 ar 
    32   27   28 2  
    33   27   29 am 
    34   29   30 1  
    35   29   31 1  
    36   31   32 1  
    37   32   33 ar 
    38   33   34 ar 
    39   34   35 ar 
    40    1   36 1  
    41    1   37 1  
    42    2   38 1  
    43    2   39 1  
    44    3   40 1  
    45    4   41 1  
    46    4   42 1  
    47    4   43 1  
    48    5   44 1  
    49    5   45 1  
    50    6   46 1  
    51    6   47 1  
    52    9   48 1  
    53   12   49 1  
    54   12   50 1  
    55   12   51 1  
    56   13   52 1  
    57   14   53 1  
    58   16   54 1  
    59   20   55 1  
    60   24   56 1  
    61   30   57 1  
    62   30   58 1  
    63   30   59 1  
    64   31   60 1  
    65   31   61 1  
    66   33   62 1  
    67   34   63 1  
    68   35   64 1  
@<TRIPOS>SUBSTRUCTURE
     1 BIJ         1

