### 
### Created by X-TOOL on Mon Sep 10 21:12:57 2018
### 

@<TRIPOS>MOLECULE
2jkp_ligand
   29    30     1     0     0
SMALL
GAST_HUCK


@<TRIPOS>ATOM
      1 C1         22.1680   43.8310   69.9760 C.3       1 CTS        -0.0023
      2 C2         21.7770   42.8910   71.1310 C.3       1 CTS         0.1231
      3 C3         23.0400   42.2660   71.7000 C.3       1 CTS         0.1171
      4 C4         23.6740   41.4420   70.5660 C.3       1 CTS         0.1283
      5 C5         24.1760   42.3380   69.4610 C.3       1 CTS         0.0349
      6 C6         24.4800   41.6390   68.1540 C.3       1 CTS         0.1050
      7 O2         21.0420   43.7410   72.0520 O.3       1 CTS        -0.3838
      8 O3         22.6560   41.4290   72.7790 O.3       1 CTS        -0.3862
      9 O4         24.8190   40.7070   70.9650 O.3       1 CTS        -0.3834
     10 O6         23.4530   40.7220   67.7850 O.3       1 CTS        -0.3859
     11 N          23.1320   43.2660   69.0460 N.4       1 CTS         0.2431
     12 C7         24.4330   42.7940   67.1940 C.3       1 CTS         0.0189
     13 C8         23.2790   43.6770   67.6560 C.3       1 CTS        -0.0288
     14 H1         22.6007   44.7457   70.4074 H         1 CTS         0.0841
     15 H2         21.2566   44.0856   69.4152 H         1 CTS         0.0841
     16 H3         21.1189   42.0860   70.7721 H         1 CTS         0.0674
     17 H4         23.7403   43.0389   72.0496 H         1 CTS         0.0649
     18 H5         22.9118   40.7516   70.1756 H         1 CTS         0.0678
     19 H6         25.0659   42.8737   69.8230 H         1 CTS         0.0904
     20 H7         25.4590   41.1379   68.1729 H         1 CTS         0.0653
     21 H8         20.2723   44.0872   71.6160 H         1 CTS         0.2101
     22 H9         22.2678   41.9580   73.4661 H         1 CTS         0.2100
     23 H10        25.1490   40.2107   70.2252 H         1 CTS         0.2102
     24 H11        22.6322   41.1902   67.6869 H         1 CTS         0.2100
     25 H12        22.4901   42.5255   68.8102 H         1 CTS         0.2039
     26 H13        24.2525   42.4334   66.1706 H         1 CTS         0.0344
     27 H14        25.3789   43.3546   67.2237 H         1 CTS         0.0344
     28 H15        23.5344   44.7441   67.5781 H         1 CTS         0.0815
     29 H16        22.3642   43.4758   67.0793 H         1 CTS         0.0815
@<TRIPOS>BOND
     1    1    2 1  
     2    1   11 1  
     3    2    3 1  
     4    2    7 1  
     5    3    4 1  
     6    3    8 1  
     7    4    5 1  
     8    4    9 1  
     9    5    6 1  
    10    5   11 1  
    11    6   10 1  
    12    6   12 1  
    13   11   13 1  
    14   12   13 1  
    15    1   14 1  
    16    1   15 1  
    17    2   16 1  
    18    3   17 1  
    19    4   18 1  
    20    5   19 1  
    21    6   20 1  
    22    7   21 1  
    23    8   22 1  
    24    9   23 1  
    25   10   24 1  
    26   11   25 1  
    27   12   26 1  
    28   12   27 1  
    29   13   28 1  
    30   13   29 1  
@<TRIPOS>SUBSTRUCTURE
     1 CTS         1

