### 
### Created by X-TOOL on Mon Sep 10 21:12:58 2018
### 

@<TRIPOS>MOLECULE
2jkq_ligand
   77    82     1     0     0
SMALL
GAST_HUCK


@<TRIPOS>ATOM
      1 CBJ        15.2250   -3.5540   26.7410 C.3       1 VG8        -0.0316
      2 CBL        16.0350   -4.8540   27.1440 C.3       1 VG8        -0.0123
      3 CBN        16.9640   -4.5870   28.3480 C.3       1 VG8        -0.0434
      4 CBM        17.9690   -3.4470   28.0440 C.3       1 VG8        -0.0123
      5 CBK        17.3060   -2.3690   27.1230 C.3       1 VG8        -0.0316
      6 NBI        15.8500   -2.3730   27.4100 N.4       1 VG8         0.2375
      7 CBH        15.2620   -1.0410   27.0540 C.3       1 VG8        -0.0173
      8 CBF        14.5800   -1.0050   25.6590 C.3       1 VG8         0.0095
      9 CBD        13.9790    0.3890   25.4110 C.3       1 VG8         0.0285
     10 CBG        14.3000   -0.5350   28.1710 C.3       1 VG8         0.0095
     11 CBE        12.8770   -0.2280   27.6590 C.3       1 VG8         0.0285
     12 NBC        12.9030    0.6190   26.4170 N.pl3     1 VG8        -0.3165
     13 CBB        11.8850    1.5970   26.2480 C.ar      1 VG8         0.0398
     14 CAZ        11.0940    1.9120   27.3500 C.ar      1 VG8        -0.0544
     15 CAO        10.0730    2.8440   27.2590 C.ar      1 VG8        -0.0496
     16 CAY        11.6200    2.2470   25.0400 C.ar      1 VG8         0.0100
     17 CAX        12.3090    2.1150   23.6760 C.3       1 VG8         0.0642
     18 NAU        11.5450    3.0710   22.8750 N.am      1 VG8        -0.2687
     19 CAT        11.7750    3.3480   21.4510 C.3       1 VG8         0.0237
     20 CAM        10.6050    3.6520   23.6130 C.2       1 VG8         0.1949
     21 OAI         9.8360    4.5000   23.1600 O.2       1 VG8        -0.3947
     22 CAN        10.6000    3.1930   24.9350 C.ar      1 VG8         0.0665
     23 CAJ         9.8100    3.4890   26.0560 C.ar      1 VG8         0.0664
     24 NAE         8.8040    4.3870   26.0220 N.pl3     1 VG8        -0.2592
     25 C4          7.5110    3.9950   26.0630 C.ar      1 VG8         0.1468
     26 N3          7.1600    2.8460   26.6750 N.ar      1 VG8        -0.2350
     27 C5          6.4950    4.7500   25.4790 C.ar      1 VG8         0.0978
     28 CL5         6.8220    6.2570   24.6740 Cl        1 VG8        -0.0751
     29 C6          5.1860    4.2720   25.5570 C.ar      1 VG8         0.0147
     30 N1          4.9090    3.1280   26.1670 N.ar      1 VG8        -0.2692
     31 C2          5.8860    2.4140   26.7300 C.ar      1 VG8         0.1927
     32 NAH         5.5760    1.2660   27.3240 N.pl3     1 VG8        -0.2473
     33 CAL         6.4320    0.5420   28.0550 C.ar      1 VG8         0.0957
     34 CAP         7.7160    0.2490   27.6040 C.ar      1 VG8        -0.0461
     35 CAV         8.5860   -0.5070   28.3860 C.ar      1 VG8        -0.0825
     36 CBA         8.1770   -0.9960   29.6200 C.ar      1 VG8        -0.0822
     37 CAW         6.8920   -0.7120   30.0690 C.ar      1 VG8        -0.0420
     38 CAQ         6.0200    0.0500   29.2890 C.ar      1 VG8         0.1151
     39 OAR         4.7630    0.3210   29.7180 O.3       1 VG8        -0.3251
     40 CAS         4.3780   -0.6870   30.6870 C.3       1 VG8         0.0570
     41 H1         14.1792   -3.6536   27.0672 H         1 VG8         0.0814
     42 H2         15.2576   -3.4212   25.6495 H         1 VG8         0.0814
     43 H3         16.6439   -5.1767   26.2866 H         1 VG8         0.0317
     44 H4         15.3245   -5.6506   27.4097 H         1 VG8         0.0317
     45 H5         17.5236   -5.5054   28.5790 H         1 VG8         0.0269
     46 H6         16.3518   -4.3024   29.2164 H         1 VG8         0.0269
     47 H7         18.8500   -3.8660   27.5359 H         1 VG8         0.0317
     48 H8         18.2797   -2.9759   28.9882 H         1 VG8         0.0317
     49 H9         17.4813   -2.6186   26.0661 H         1 VG8         0.0814
     50 H10        17.7291   -1.3772   27.3407 H         1 VG8         0.0814
     51 H11        15.7240   -2.4940   28.4027 H         1 VG8         0.2036
     52 H12        16.1016   -0.3318   27.0079 H         1 VG8         0.0852
     53 H13        13.7803   -1.7594   25.6235 H         1 VG8         0.0339
     54 H14        15.3263   -1.2249   24.8814 H         1 VG8         0.0339
     55 H15        13.5565    0.4371   24.3965 H         1 VG8         0.0508
     56 H16        14.7601    1.1558   25.5196 H         1 VG8         0.0508
     57 H17        14.7209    0.3844   28.6041 H         1 VG8         0.0339
     58 H18        14.2313   -1.3091   28.9495 H         1 VG8         0.0339
     59 H19        12.3236    0.3079   28.4442 H         1 VG8         0.0508
     60 H20        12.3672   -1.1762   27.4331 H         1 VG8         0.0508
     61 H21        11.2807    1.4186   28.2970 H         1 VG8         0.0506
     62 H22         9.4741    3.0722   28.1333 H         1 VG8         0.0463
     63 H23        12.2200    1.0938   23.2771 H         1 VG8         0.0670
     64 H24        13.3712    2.3953   23.7326 H         1 VG8         0.0670
     65 H25        11.0584    4.1073   21.1048 H         1 VG8         0.0487
     66 H26        11.6384    2.4235   20.8709 H         1 VG8         0.0487
     67 H27        12.8004    3.7207   21.3109 H         1 VG8         0.0487
     68 H28         9.0255    5.3912   25.9636 H         1 VG8         0.2153
     69 H29         4.3819    4.8461   25.1111 H         1 VG8         0.0853
     70 H30         4.6154    0.9108   27.2147 H         1 VG8         0.2150
     71 H31         8.0415    0.6123   26.6360 H         1 VG8         0.0503
     72 H32         9.5883   -0.7150   28.0294 H         1 VG8         0.0494
     73 H33         8.8509   -1.5914   30.2253 H         1 VG8         0.0492
     74 H34         6.5645   -1.0853   31.0326 H         1 VG8         0.0507
     75 H35         3.3586   -0.4807   31.0453 H         1 VG8         0.0573
     76 H36         5.0766   -0.6649   31.5364 H         1 VG8         0.0573
     77 H37         4.4066   -1.6799   30.2144 H         1 VG8         0.0573
@<TRIPOS>BOND
     1    1    2 1  
     2    1    6 1  
     3    2    3 1  
     4    3    4 1  
     5    4    5 1  
     6    5    6 1  
     7    6    7 1  
     8    7    8 1  
     9    7   10 1  
    10    8    9 1  
    11    9   12 1  
    12   10   11 1  
    13   11   12 1  
    14   12   13 1  
    15   13   14 ar 
    16   13   16 ar 
    17   14   15 ar 
    18   15   23 ar 
    19   16   17 1  
    20   16   22 ar 
    21   17   18 1  
    22   18   19 1  
    23   18   20 am 
    24   20   21 2  
    25   20   22 1  
    26   22   23 ar 
    27   23   24 1  
    28   24   25 1  
    29   25   26 ar 
    30   25   27 ar 
    31   26   31 ar 
    32   27   28 1  
    33   27   29 ar 
    34   29   30 ar 
    35   30   31 ar 
    36   31   32 1  
    37   32   33 1  
    38   33   34 ar 
    39   33   38 ar 
    40   34   35 ar 
    41   35   36 ar 
    42   36   37 ar 
    43   37   38 ar 
    44   38   39 1  
    45   39   40 1  
    46    1   41 1  
    47    1   42 1  
    48    2   43 1  
    49    2   44 1  
    50    3   45 1  
    51    3   46 1  
    52    4   47 1  
    53    4   48 1  
    54    5   49 1  
    55    5   50 1  
    56    6   51 1  
    57    7   52 1  
    58    8   53 1  
    59    8   54 1  
    60    9   55 1  
    61    9   56 1  
    62   10   57 1  
    63   10   58 1  
    64   11   59 1  
    65   11   60 1  
    66   14   61 1  
    67   15   62 1  
    68   17   63 1  
    69   17   64 1  
    70   19   65 1  
    71   19   66 1  
    72   19   67 1  
    73   24   68 1  
    74   29   69 1  
    75   32   70 1  
    76   34   71 1  
    77   35   72 1  
    78   36   73 1  
    79   37   74 1  
    80   40   75 1  
    81   40   76 1  
    82   40   77 1  
@<TRIPOS>SUBSTRUCTURE
     1 VG8         1

