### 
### Created by X-TOOL on Mon Sep 10 21:13:02 2018
### 

@<TRIPOS>MOLECULE
2jle_ligand
   31    33     1     0     0
SMALL
GAST_HUCK


@<TRIPOS>ATOM
      1 C1         -9.1510  -12.9180   15.6940 C.ar      1 I15         0.0800
      2 C2         -8.6760  -12.3830   16.9040 C.ar      1 I15         0.1690
      3 C3         -8.2530  -13.3660   14.7040 C.ar      1 I15        -0.0501
      4 C4        -10.5140  -13.1580   15.1920 C.2       1 I15         0.1350
      5 O5         -9.6080  -11.9700   17.8430 O.3       1 I15        -0.2520
      6 C6         -7.2950  -12.2340   17.1940 C.ar      1 I15         0.1658
      7 N7         -9.1120  -13.8540   13.6780 N.2       1 I15        -0.4010
      8 C8         -6.9170  -13.2410   14.9470 C.ar      1 I15        -0.0757
      9 N9        -10.4600  -13.7180   13.9460 N.pl3     1 I15        -0.2590
     10 C10       -11.7130  -12.8660   15.9620 C.3       1 I15         0.0326
     11 C11        -9.7030  -12.5490   19.1130 C.ar      1 I15         0.1361
     12 C12        -6.3980  -12.6910   16.1630 C.ar      1 I15        -0.0360
     13 C13       -10.1260  -13.8710   19.2030 C.ar      1 I15         0.0144
     14 C14        -9.4440  -11.8010   20.2920 C.ar      1 I15         0.0144
     15 C15       -10.2850  -14.4900   20.3850 C.ar      1 I15         0.0992
     16 C16        -9.6220  -12.4960   21.4870 C.ar      1 I15         0.0992
     17 C17        -9.9900  -13.8290   21.5660 C.ar      1 I15        -0.0022
     18 C18       -10.6340  -15.8570   20.3480 C.1       1 I15         0.1004
     19 C19        -9.4360  -11.7980   22.6850 C.1       1 I15         0.1004
     20 N23        -9.2840  -11.2300   23.6610 N.1       1 I15        -0.3281
     21 F1         -6.8700  -11.6620   18.4390 F         1 I15        -0.1890
     22 N1        -10.9080  -16.9370   20.3200 N.1       1 I15        -0.3281
     23 H1         -6.2182  -13.5721   14.1873 H         1 I15         0.0515
     24 H2        -11.2507  -13.9807   13.3404 H         1 I15         0.2718
     25 H3        -11.4297  -12.4178   16.9258 H         1 I15         0.0589
     26 H4        -12.2701  -13.7975   16.1405 H         1 I15         0.0589
     27 H5        -12.3459  -12.1618   15.4021 H         1 I15         0.0589
     28 H6         -5.3263  -12.6182   16.3085 H         1 I15         0.0576
     29 H7        -10.3339  -14.4190   18.2911 H         1 I15         0.0719
     30 H8         -9.1303  -10.7637   20.2646 H         1 I15         0.0719
     31 H9        -10.0454  -14.3385   22.5212 H         1 I15         0.0736
@<TRIPOS>BOND
     1    1    2 ar 
     2    1    3 ar 
     3    1    4 2  
     4    2    5 1  
     5    2    6 ar 
     6    3    7 2  
     7    3    8 ar 
     8    4    9 1  
     9    4   10 1  
    10    5   11 1  
    11    6   12 ar 
    12    6   21 1  
    13    7    9 1  
    14    8   12 ar 
    15   11   13 ar 
    16   11   14 ar 
    17   13   15 ar 
    18   14   16 ar 
    19   15   17 ar 
    20   15   18 1  
    21   16   17 ar 
    22   16   19 1  
    23   18   22 3  
    24   19   20 3  
    25    8   23 1  
    26    9   24 1  
    27   10   25 1  
    28   10   26 1  
    29   10   27 1  
    30   12   28 1  
    31   13   29 1  
    32   14   30 1  
    33   17   31 1  
@<TRIPOS>SUBSTRUCTURE
     1 I15         1

