### 
### Created by X-TOOL on Mon Sep 10 21:12:56 2018
### 

@<TRIPOS>MOLECULE
2jnp_ligand
   39    39     1     0     0
SMALL
GAST_HUCK


@<TRIPOS>ATOM
      1 C1          6.3150    1.5170    3.3910 C.ar      1 NGH        -0.0440
      2 C2          6.6380    1.5560    2.0360 C.ar      1 NGH        -0.0313
      3 C3          5.6600    1.8600    1.0930 C.ar      1 NGH         0.0908
      4 C4          4.3500    2.0650    1.5100 C.ar      1 NGH        -0.0313
      5 C5          4.0130    1.9840    2.8620 C.ar      1 NGH        -0.0440
      6 C6          5.0000    1.7170    3.8110 C.ar      1 NGH         0.0973
      7 O1          5.9480    1.9420   -0.2510 O.3       1 NGH        -0.3212
      8 C7          7.1380    1.3270   -0.8150 C.3       1 NGH         0.0594
      9 S1          4.6030    1.7130    5.5610 S.o2      1 NGH         0.0677
     10 O2          3.2770    2.2920    5.7390 O.2       1 NGH        -0.1514
     11 O3          5.6470    2.3390    6.3570 O.2       1 NGH        -0.1514
     12 N           4.5010    0.1580    6.0890 N.am      1 NGH        -0.2153
     13 C9          5.7190   -0.6690    6.3130 C.3       1 NGH         0.0344
     14 C10         3.2130   -0.4450    6.5250 C.3       1 NGH         0.1327
     15 C11         2.6170   -1.4380    5.5520 C.2       1 NGH         0.3059
     16 N1          1.8000   -0.9330    4.6050 N.2       1 NGH         0.0367
     17 O4          1.1360   -1.6650    3.8020 O.2       1 NGH        -0.1732
     18 O5          2.8760   -2.6280    5.6000 O.2       1 NGH        -0.3264
     19 C12         6.5150   -0.3390    7.6070 C.3       1 NGH        -0.0294
     20 C13         7.6800   -1.3390    7.7520 C.3       1 NGH        -0.0612
     21 C14         5.6380   -0.3710    8.8790 C.3       1 NGH        -0.0612
     22 H1          7.0914    1.3299    4.1240 H         1 NGH         0.0608
     23 H2          7.6527    1.3492    1.7156 H         1 NGH         0.0542
     24 H3          3.5827    2.2900    0.7781 H         1 NGH         0.0542
     25 H4          2.9851    2.1285    3.1744 H         1 NGH         0.0608
     26 H5          7.1695    1.5150   -1.8984 H         1 NGH         0.0577
     27 H6          7.1124    0.2427   -0.6316 H         1 NGH         0.0577
     28 H7          8.0327    1.7579   -0.3420 H         1 NGH         0.0577
     29 H8          6.3910   -0.5246    5.4542 H         1 NGH         0.0482
     30 H9          5.4098   -1.7234    6.3635 H         1 NGH         0.0482
     31 H10         2.4868    0.3680    6.6723 H         1 NGH         0.0730
     32 H11         3.3833   -0.9622    7.4807 H         1 NGH         0.0730
     33 H12         6.9292    0.6749    7.5050 H         1 NGH         0.0311
     34 H13         8.2475   -1.1107    8.6663 H         1 NGH         0.0233
     35 H14         8.3438   -1.2578    6.8786 H         1 NGH         0.0233
     36 H15         7.2798   -2.3617    7.8146 H         1 NGH         0.0233
     37 H16         4.8088    0.3436    8.7707 H         1 NGH         0.0233
     38 H17         6.2479   -0.0954    9.7519 H         1 NGH         0.0233
     39 H18         5.2329   -1.3840    9.0197 H         1 NGH         0.0233
@<TRIPOS>BOND
     1    1    2 ar 
     2    1    6 ar 
     3    2    3 ar 
     4    3    4 ar 
     5    3    7 1  
     6    4    5 ar 
     7    5    6 ar 
     8    6    9 1  
     9    7    8 1  
    10    9   10 2  
    11    9   11 2  
    12    9   12 am 
    13   12   13 1  
    14   12   14 1  
    15   13   19 1  
    16   14   15 1  
    17   15   16 1  
    18   15   18 2  
    19   16   17 2  
    20   19   20 1  
    21   19   21 1  
    22    1   22 1  
    23    2   23 1  
    24    4   24 1  
    25    5   25 1  
    26    8   26 1  
    27    8   27 1  
    28    8   28 1  
    29   13   29 1  
    30   13   30 1  
    31   14   31 1  
    32   14   32 1  
    33   19   33 1  
    34   20   34 1  
    35   20   35 1  
    36   20   36 1  
    37   21   37 1  
    38   21   38 1  
    39   21   39 1  
@<TRIPOS>SUBSTRUCTURE
     1 NGH         1

