### 
### Created by X-TOOL on Mon Sep 10 21:12:57 2018
### 

@<TRIPOS>MOLECULE
2jsd_ligand
   39    39     1     0     0
SMALL
GAST_HUCK


@<TRIPOS>ATOM
      1 C1          7.0980   -5.6930    3.6030 C.ar      1 NGH        -0.0440
      2 C2          6.6160   -6.1160    2.3650 C.ar      1 NGH        -0.0313
      3 C3          6.0900   -5.1950    1.4600 C.ar      1 NGH         0.0908
      4 C4          6.0900   -3.8570    1.7900 C.ar      1 NGH        -0.0313
      5 C5          6.5660   -3.4290    3.0170 C.ar      1 NGH        -0.0440
      6 C6          7.0430   -4.3450    3.9500 C.ar      1 NGH         0.0973
      7 O1          5.5410   -5.5710    0.2580 O.3       1 NGH        -0.3212
      8 C7          6.2410   -6.4310   -0.6560 C.3       1 NGH         0.0594
      9 S1          7.5470   -3.7500    5.5520 S.o2      1 NGH         0.0677
     10 O2          7.3280   -2.3080    5.5350 O.2       1 NGH        -0.1514
     11 O3          8.9040   -4.1860    5.8440 O.2       1 NGH        -0.1514
     12 N           6.5730   -4.3820    6.7360 N.am      1 NGH        -0.2153
     13 C9          6.6020   -5.8470    7.1110 C.3       1 NGH         0.0344
     14 C10         5.3850   -3.5940    7.1700 C.3       1 NGH         0.1327
     15 C11         4.0980   -3.8260    6.4040 C.2       1 NGH         0.3059
     16 N1          4.1690   -3.6450    5.0800 N.2       1 NGH         0.0367
     17 O4          3.4260   -4.2840    4.2810 O.2       1 NGH        -0.1732
     18 O5          3.0920   -4.2270    6.9460 O.2       1 NGH        -0.3264
     19 C12         7.9320   -6.1400    7.8790 C.3       1 NGH        -0.0294
     20 C13         8.8960   -7.0090    7.0530 C.3       1 NGH        -0.0612
     21 C14         7.6020   -6.8190    9.2240 C.3       1 NGH        -0.0612
     22 H1          7.5160   -6.4139    4.2963 H         1 NGH         0.0608
     23 H2          6.6504   -7.1677    2.1044 H         1 NGH         0.0542
     24 H3          5.7124   -3.1306    1.0795 H         1 NGH         0.0542
     25 H4          6.5673   -2.3711    3.2535 H         1 NGH         0.0608
     26 H5          5.6203   -6.6006   -1.5482 H         1 NGH         0.0577
     27 H6          6.4502   -7.3936   -0.1666 H         1 NGH         0.0577
     28 H7          7.1882   -5.9571   -0.9530 H         1 NGH         0.0577
     29 H8          6.5563   -6.4633    6.2010 H         1 NGH         0.0482
     30 H9          5.7424   -6.0813    7.7562 H         1 NGH         0.0482
     31 H10         5.6402   -2.5280    7.0779 H         1 NGH         0.0730
     32 H11         5.1926   -3.8351    8.2259 H         1 NGH         0.0730
     33 H12         8.4303   -5.1811    8.0843 H         1 NGH         0.0311
     34 H13         9.8145   -7.1887    7.6311 H         1 NGH         0.0233
     35 H14         9.1478   -6.4891    6.1169 H         1 NGH         0.0233
     36 H15         8.4151   -7.9706    6.8205 H         1 NGH         0.0233
     37 H16         6.9127   -6.1815    9.7971 H         1 NGH         0.0233
     38 H17         8.5289   -6.9655    9.7980 H         1 NGH         0.0233
     39 H18         7.1290   -7.7942    9.0362 H         1 NGH         0.0233
@<TRIPOS>BOND
     1    1    2 ar 
     2    1    6 ar 
     3    2    3 ar 
     4    3    4 ar 
     5    3    7 1  
     6    4    5 ar 
     7    5    6 ar 
     8    6    9 1  
     9    7    8 1  
    10    9   10 2  
    11    9   11 2  
    12    9   12 am 
    13   12   13 1  
    14   12   14 1  
    15   13   19 1  
    16   14   15 1  
    17   15   16 1  
    18   15   18 2  
    19   16   17 2  
    20   19   20 1  
    21   19   21 1  
    22    1   22 1  
    23    2   23 1  
    24    4   24 1  
    25    5   25 1  
    26    8   26 1  
    27    8   27 1  
    28    8   28 1  
    29   13   29 1  
    30   13   30 1  
    31   14   31 1  
    32   14   32 1  
    33   19   33 1  
    34   20   34 1  
    35   20   35 1  
    36   20   36 1  
    37   21   37 1  
    38   21   38 1  
    39   21   39 1  
@<TRIPOS>SUBSTRUCTURE
     1 NGH         1

