### 
### Created by X-TOOL on Mon Sep 10 21:12:59 2018
### 

@<TRIPOS>MOLECULE
2jst_ligand
    8     7     1     0     0
SMALL
GAST_HUCK


@<TRIPOS>ATOM
      1 F1          0.0250    0.4360    0.4490 F         1 HLT        -0.1682
      2 C2          0.4320    0.6850   -0.8270 C.3       1 HLT         0.4154
      3 F2          1.0070    1.9200   -0.8610 F         1 HLT        -0.1682
      4 F3          1.3630   -0.2420   -1.1770 F         1 HLT        -0.1682
      5 C1         -0.8200    0.6440   -1.8120 C.3       1 HLT         0.1831
      6 BR         -0.2790    1.0460   -3.5620 Br        1 HLT        -0.0614
      7 CL         -1.5920   -0.9480   -1.6870 Cl        1 HLT        -0.1001
      8 H1         -1.5463    1.4070   -1.4954 H         1 HLT         0.0676
@<TRIPOS>BOND
     1    1    2 1  
     2    2    3 1  
     3    2    4 1  
     4    2    5 1  
     5    5    6 1  
     6    5    7 1  
     7    5    8 1  
@<TRIPOS>SUBSTRUCTURE
     1 HLT         1

