### 
### Created by X-TOOL on Mon Sep 10 21:12:59 2018
### 

@<TRIPOS>MOLECULE
2jt5_ligand
   40    41     1     0     0
SMALL
GAST_HUCK


@<TRIPOS>ATOM
      1 C3          4.8520   -2.1340    7.1630 C.2       1 JT5         0.3059
      2 C4          5.0980   -0.9580    8.1440 C.3       1 JT5         0.1329
      3 C8          6.9120   -1.8460    9.5530 C.3       1 JT5         0.0554
      4 N2          3.5400   -2.6610    7.1380 N.2       1 JT5         0.0367
      5 O1          3.1530   -3.6060    6.4240 O.2       1 JT5        -0.1732
      6 O5          5.8200   -2.5440    6.4710 O.2       1 JT5        -0.3264
      7 N6          6.4230   -0.8040    8.6900 N.am      1 JT5        -0.2122
      8 S7          7.3380    0.4800    8.3570 S.o2      1 JT5         0.0727
      9 C9          7.7510   -2.9330    8.8600 C.3       1 JT5         0.0614
     10 O10         8.7340   -3.4200    9.7420 O.3       1 JT5        -0.3934
     11 O11         8.5590    0.4380    9.0860 O.2       1 JT5        -0.1500
     12 C12         7.6700    0.3980    6.6820 C.ar      1 JT5         0.1085
     13 O13         6.6120    1.6870    8.5240 O.2       1 JT5        -0.1500
     14 C14         8.4260   -0.6550    6.1610 C.ar      1 JT5        -0.0345
     15 C15         8.7090   -0.7280    4.8010 C.ar      1 JT5        -0.0522
     16 C16         8.2400    0.2630    3.9280 C.ar      1 JT5        -0.0178
     17 C17         7.4810    1.3220    4.4470 C.ar      1 JT5        -0.0522
     18 C18         7.2050    1.3820    5.8090 C.ar      1 JT5        -0.0345
     19 C19         8.5380    0.1920    2.5010 C.ar      1 JT5        -0.0179
     20 C20         7.8200    0.9710    1.5820 C.ar      1 JT5        -0.0540
     21 C21         8.1070    0.8970    0.2210 C.ar      1 JT5        -0.0612
     22 C22         9.1100    0.0440   -0.2390 C.ar      1 JT5        -0.0617
     23 C23         9.8270   -0.7360    0.6680 C.ar      1 JT5        -0.0612
     24 C24         9.5430   -0.6650    2.0300 C.ar      1 JT5        -0.0540
     25 H1          4.4074   -1.0869    8.9904 H         1 JT5         0.0730
     26 H2          4.8534   -0.0282    7.6095 H         1 JT5         0.0730
     27 H3          6.0448   -2.3336   10.0223 H         1 JT5         0.0502
     28 H4          7.5353   -1.3793   10.3300 H         1 JT5         0.0502
     29 H5          8.2388   -2.5052    7.9717 H         1 JT5         0.0573
     30 H6          7.0939   -3.7606    8.5547 H         1 JT5         0.0573
     31 H7          9.2462   -4.0902    9.3048 H         1 JT5         0.2095
     32 H8          8.7974   -1.4262    6.8261 H         1 JT5         0.0637
     33 H9          9.2945   -1.5546    4.4150 H         1 JT5         0.0624
     34 H10         7.1086    2.0956    3.7852 H         1 JT5         0.0624
     35 H11         6.6191    2.2067    6.1985 H         1 JT5         0.0637
     36 H12         7.0376    1.6342    1.9327 H         1 JT5         0.0624
     37 H13         7.5492    1.5042   -0.4827 H         1 JT5         0.0618
     38 H14         9.3317   -0.0126   -1.2986 H         1 JT5         0.0618
     39 H15        10.6072   -1.3992    0.3123 H         1 JT5         0.0618
     40 H16        10.1021   -1.2757    2.7297 H         1 JT5         0.0624
@<TRIPOS>BOND
     1    1    2 1  
     2    1    4 1  
     3    1    6 2  
     4    2    7 1  
     5    7    3 1  
     6    3    9 1  
     7    4    5 2  
     8    7    8 am 
     9    8   11 2  
    10    8   12 1  
    11    8   13 2  
    12    9   10 1  
    13   12   14 ar 
    14   12   18 ar 
    15   14   15 ar 
    16   15   16 ar 
    17   16   17 ar 
    18   16   19 1  
    19   17   18 ar 
    20   19   20 ar 
    21   19   24 ar 
    22   20   21 ar 
    23   21   22 ar 
    24   22   23 ar 
    25   23   24 ar 
    26    2   25 1  
    27    2   26 1  
    28    3   27 1  
    29    3   28 1  
    30    9   29 1  
    31    9   30 1  
    32   10   31 1  
    33   14   32 1  
    34   15   33 1  
    35   17   34 1  
    36   18   35 1  
    37   20   36 1  
    38   21   37 1  
    39   22   38 1  
    40   23   39 1  
    41   24   40 1  
@<TRIPOS>SUBSTRUCTURE
     1 JT5         1

