### 
### Created by X-TOOL on Mon Sep 10 21:12:59 2018
### 

@<TRIPOS>MOLECULE
2jt6_ligand
   35    36     1     0     0
SMALL
GAST_HUCK


@<TRIPOS>ATOM
      1 C17        11.3940    0.0520   -1.5700 C.ar      1 JT6         0.0926
      2 C16        11.4410   -0.9730   -0.5830 C.ar      1 JT6        -0.0291
      3 C15        10.7990   -0.8480    0.6580 C.ar      1 JT6        -0.0463
      4 C14        10.1130    0.3370    1.0590 C.ar      1 JT6        -0.0167
      5 C13         8.1800   -0.6010    4.2810 C.ar      1 JT6        -0.0296
      6 C12         8.8550   -0.6810    3.0540 C.ar      1 JT6        -0.0594
      7 C10         9.1540    1.6970    3.0210 C.ar      1 JT6        -0.0594
      8 C9          8.4960    1.8230    4.2480 C.ar      1 JT6        -0.0296
      9 C18        10.7850    1.2690   -1.1540 C.ar      1 JT6        -0.0291
     10 C8          7.8510    0.6890    4.8380 C.ar      1 JT6         0.0947
     11 C19        10.1770    1.4090    0.1030 C.ar      1 JT6        -0.0463
     12 C1          5.4980   -2.0410    6.6150 C.2       1 JT6         0.2014
     13 C6          5.7720    0.5180    6.1630 C.3       1 JT6         0.0879
     14 C3          5.9300   -0.6420    7.1120 C.3       1 JT6         0.0668
     15 N2          4.2080   -2.2570    6.5280 N.am      1 JT6        -0.1642
     16 O4          6.4120   -2.8490    6.3150 O.2       1 JT6        -0.3969
     17 O5          3.4930   -3.2480    6.1500 O.3       1 JT6        -0.2717
     18 O7          7.0120    0.9740    5.8020 O.3       1 JT6        -0.3135
     19 C11         9.3810    0.4480    2.3670 C.ar      1 JT6        -0.0225
     20 C20        11.9330   -0.1310   -2.9080 C.1       1 JT6         0.0969
     21 N21        12.3630   -0.2780   -3.9770 N.1       1 JT6        -0.3314
     22 H1         11.9920   -1.8815   -0.7979 H         1 JT6         0.0710
     23 H2         10.8252   -1.6884    1.3422 H         1 JT6         0.0629
     24 H3          7.9060   -1.5066    4.8099 H         1 JT6         0.0552
     25 H4          8.9831   -1.6587    2.6038 H         1 JT6         0.0613
     26 H5          9.5124    2.5991    2.5384 H         1 JT6         0.0613
     27 H6          8.4741    2.7815    4.7539 H         1 JT6         0.0552
     28 H7         10.7909    2.1160   -1.8305 H         1 JT6         0.0710
     29 H8          9.7374    2.3649    0.3640 H         1 JT6         0.0629
     30 H9          5.2125    1.3253    6.6581 H         1 JT6         0.0641
     31 H10         5.2254    0.1890    5.2669 H         1 JT6         0.0641
     32 H11         6.9947   -0.7033    7.3814 H         1 JT6         0.0528
     33 H12         5.3370   -0.4148    8.0101 H         1 JT6         0.0528
     34 H13         3.6616   -1.4730    6.8225 H         1 JT6         0.2216
     35 H14         3.6911   -3.4525    5.2436 H         1 JT6         0.2490
@<TRIPOS>BOND
     1    2    1 ar 
     2    9    1 ar 
     3    1   20 1  
     4    3    2 ar 
     5    4    3 ar 
     6    4   11 ar 
     7   19    4 1  
     8    5    6 ar 
     9   10    5 ar 
    10    6   19 ar 
    11    8    7 ar 
    12    7   19 ar 
    13   10    8 ar 
    14   11    9 ar 
    15   18   10 1  
    16   14   12 1  
    17   12   15 am 
    18   12   16 2  
    19   13   14 1  
    20   13   18 1  
    21   15   17 1  
    22   20   21 3  
    23    2   22 1  
    24    3   23 1  
    25    5   24 1  
    26    6   25 1  
    27    7   26 1  
    28    8   27 1  
    29    9   28 1  
    30   11   29 1  
    31   13   30 1  
    32   13   31 1  
    33   14   32 1  
    34   14   33 1  
    35   15   34 1  
    36   17   35 1  
@<TRIPOS>SUBSTRUCTURE
     1 JT6         1

