### 
### Created by X-TOOL on Mon Sep 10 21:12:57 2018
### 

@<TRIPOS>MOLECULE
2jup_ligand
  132   137     1     0     0
SMALL
GAST_HUCK


@<TRIPOS>ATOM
      1 N          -1.2300   18.4890   -8.4750 N.4       1 GLY         0.2357
      2 CA         -0.1990   18.1660   -7.4590 C.3       1 GLY         0.0547
      3 C          -0.1870   16.6930   -7.1160 C.2       1 GLY         0.2261
      4 O          -1.0950   15.9600   -7.5080 O.2       1 GLY        -0.3908
      5 N           0.8370   16.2230   -6.3870 N.am      1 PRO        -0.2474
      6 CA          0.9310   14.8280   -5.9720 C.3       1 PRO         0.1341
      7 C           0.0160   14.5380   -4.7840 C.2       1 PRO         0.2066
      8 O          -0.2240   15.4140   -3.9520 O.2       1 PRO        -0.3942
      9 CB          2.4030   14.6630   -5.5550 C.3       1 PRO        -0.0104
     10 CG          3.0660   15.9820   -5.8210 C.3       1 PRO        -0.0281
     11 CD          1.9730   17.0070   -5.8970 C.3       1 PRO         0.0371
     12 N          -0.5110   13.3120   -4.6890 N.am      1 PRO        -0.2498
     13 CA         -1.3740   12.9220   -3.5750 C.3       1 PRO         0.1338
     14 C          -0.5800   12.6110   -2.3060 C.2       1 PRO         0.2041
     15 O           0.5520   12.1270   -2.3730 O.2       1 PRO        -0.3944
     16 CB         -2.0490   11.6530   -4.0950 C.3       1 PRO        -0.0104
     17 CG         -1.0790   11.0690   -5.0670 C.3       1 PRO        -0.0281
     18 CD         -0.3220   12.2230   -5.6640 C.3       1 PRO         0.0369
     19 N          -1.1640   12.9020   -1.1530 N.am      1 LEU        -0.2637
     20 CA         -0.5600   12.5200    0.1140 C.3       1 LEU         0.1312
     21 C          -0.8550   11.0530    0.3730 C.2       1 LEU         0.2039
     22 O          -1.9140   10.5590   -0.0230 O.2       1 LEU        -0.3944
     23 CB         -1.0990   13.3730    1.2730 C.3       1 LEU        -0.0101
     24 CG         -0.7930   14.8810    1.2170 C.3       1 LEU        -0.0425
     25 CD1         0.6860   15.1300    0.9670 C.3       1 LEU        -0.0625
     26 CD2        -1.6410   15.5880    0.1670 C.3       1 LEU        -0.0625
     27 N           0.0560   10.3530    1.0250 N.am      1 ILE        -0.2635
     28 CA         -0.1940    8.9620    1.3600 C.3       1 ILE         0.1337
     29 C          -1.0800    8.9020    2.5970 C.2       1 ILE         0.2067
     30 O          -1.0030    9.7740    3.4670 O.2       1 ILE        -0.3942
     31 CB          1.1190    8.1190    1.5810 C.3       1 ILE        -0.0037
     32 CG1         2.2010    8.5180    0.5610 C.3       1 ILE        -0.0491
     33 CG2         0.8280    6.6370    1.4510 C.3       1 ILE        -0.0582
     34 CD1         2.9470    9.7870    0.8920 C.3       1 ILE        -0.0648
     35 N          -1.9400    7.8880    2.6810 N.am      1 PRO        -0.2498
     36 CA         -2.6170    7.5350    3.9250 C.3       1 PRO         0.1340
     37 C          -1.6060    6.8450    4.8100 C.2       1 PRO         0.2066
     38 O          -0.6660    6.2770    4.2900 O.2       1 PRO        -0.3942
     39 CB         -3.6840    6.5220    3.4730 C.3       1 PRO        -0.0104
     40 CG         -3.1340    5.9420    2.2210 C.3       1 PRO        -0.0281
     41 CD         -2.3760    7.0480    1.5540 C.3       1 PRO         0.0369
     42 N          -1.6890    6.9180    6.1320 N.am      1 PRO        -0.2498
     43 CA         -0.7840    6.1190    6.9300 C.3       1 PRO         0.1340
     44 C          -1.2740    4.6810    6.9290 C.2       1 PRO         0.2066
     45 O          -2.4840    4.4410    6.9520 O.2       1 PRO        -0.3942
     46 CB         -0.8980    6.7350    8.3360 C.3       1 PRO        -0.0104
     47 CG         -1.7930    7.9350    8.1970 C.3       1 PRO        -0.0281
     48 CD         -2.5870    7.7420    6.9340 C.3       1 PRO         0.0369
     49 N          -0.3690    3.6970    6.9040 N.am      1 PRO        -0.2498
     50 CA         -0.7710    2.3030    6.9230 C.3       1 PRO         0.1339
     51 C          -1.1140    1.8090    8.3260 C.2       1 PRO         0.2060
     52 O          -0.5450    2.2690    9.3230 O.2       1 PRO        -0.3942
     53 CB          0.4310    1.5510    6.3400 C.3       1 PRO        -0.0104
     54 CG          1.4910    2.5740    6.0990 C.3       1 PRO        -0.0281
     55 CD          1.0920    3.8320    6.8030 C.3       1 PRO         0.0369
     56 N          -2.0580    0.8670    8.3960 N.am      1 PRO        -0.2556
     57 CA         -2.4340    0.1880    9.6360 C.3       1 PRO         0.0972
     58 C          -1.4110   -0.8740   10.0360 C.2       1 PRO         0.0603
     59 O          -0.4560   -0.5340   10.7590 O.co2     1 PRO        -0.5666
     60 CB         -3.7740   -0.4670    9.2820 C.3       1 PRO        -0.0159
     61 CG         -3.7210   -0.6700    7.8020 C.3       1 PRO        -0.0288
     62 CD         -2.8750    0.4340    7.2550 C.3       1 PRO         0.0362
     63 OXT        -1.5580   -2.0410    9.6150 O.co2     1 PRO        -0.5666
     64 H1         -1.2061   19.4765   -8.6757 H         1 GLY         0.2012
     65 H2         -2.1403   18.2401   -8.1209 H         1 GLY         0.2012
     66 H3         -1.0443   17.9700   -9.3189 H         1 GLY         0.2012
     67 H4         -0.4073   18.7421   -6.5454 H         1 GLY         0.1061
     68 H5          0.7888   18.4474   -7.8528 H         1 GLY         0.1061
     69 H6          0.6784   14.1553   -6.8048 H         1 PRO         0.0802
     70 H7          2.8806   13.8700   -6.1491 H         1 PRO         0.0313
     71 H8          2.4703   14.4116   -4.4863 H         1 PRO         0.0313
     72 H9          3.6169   15.9443   -6.7723 H         1 PRO         0.0287
     73 H10         3.7606   16.2286   -5.0045 H         1 PRO         0.0287
     74 H11         1.7617   17.4370   -4.9068 H         1 PRO         0.0524
     75 H12         2.2321   17.8131   -6.5991 H         1 PRO         0.0524
     76 H13        -2.1132   13.7077   -3.3600 H         1 PRO         0.0802
     77 H14        -2.9977   11.8971   -4.5953 H         1 PRO         0.0313
     78 H15        -2.2395   10.9508   -3.2700 H         1 PRO         0.0313
     79 H16        -1.6152   10.5189   -5.8543 H         1 PRO         0.0287
     80 H17        -0.3870   10.3880   -4.5500 H         1 PRO         0.0287
     81 H18         0.7444   11.9767   -5.7740 H         1 PRO         0.0524
     82 H19        -0.7377   12.4987   -6.6444 H         1 PRO         0.0524
     83 H20        -2.0353   13.3928   -1.1537 H         1 LEU         0.1883
     84 H21         0.5285   12.6640    0.0474 H         1 LEU         0.0800
     85 H22        -0.6690   12.9793    2.2058 H         1 LEU         0.0315
     86 H23        -2.1924   13.2546    1.2947 H         1 LEU         0.0315
     87 H24        -1.0467   15.3099    2.1976 H         1 LEU         0.0298
     88 H25         0.8747   16.2131    0.9320 H         1 LEU         0.0232
     89 H26         0.9774   14.6760    0.0084 H         1 LEU         0.0232
     90 H27         1.2759   14.6812    1.7797 H         1 LEU         0.0232
     91 H28        -2.7057   15.3956    0.3654 H         1 LEU         0.0232
     92 H29        -1.3797   15.2083   -0.8318 H         1 LEU         0.0232
     93 H30        -1.4499   16.6704    0.2094 H         1 LEU         0.0232
     94 H31         0.9200   10.7819    1.2886 H         1 ILE         0.1883
     95 H32        -0.7400    8.5079    0.5200 H         1 ILE         0.0803
     96 H33         1.4967    8.3189    2.5946 H         1 ILE         0.0345
     97 H34         1.7161    8.6517   -0.4173 H         1 ILE         0.0267
     98 H35         2.9317    7.6981    0.4991 H         1 ILE         0.0267
     99 H36         0.0550    6.3499    2.1791 H         1 ILE         0.0235
    100 H37         1.7466    6.0644    1.6466 H         1 ILE         0.0235
    101 H38         0.4711    6.4213    0.4331 H         1 ILE         0.0235
    102 H39         3.6941    9.9877    0.1099 H         1 ILE         0.0230
    103 H40         3.4532    9.6724    1.8618 H         1 ILE         0.0230
    104 H41         2.2377   10.6260    0.9454 H         1 ILE         0.0230
    105 H42        -3.0599    8.4073    4.4279 H         1 PRO         0.0802
    106 H43        -4.6427    7.0259    3.2805 H         1 PRO         0.0313
    107 H44        -3.8267    5.7409    4.2342 H         1 PRO         0.0313
    108 H45        -3.9495    5.5913    1.5714 H         1 PRO         0.0287
    109 H46        -2.4618    5.1024    2.4514 H         1 PRO         0.0287
    110 H47        -1.5119    6.6543    0.9987 H         1 PRO         0.0524
    111 H48        -3.0252    7.6134    0.8693 H         1 PRO         0.0524
    112 H49         0.2479    6.1716    6.5526 H         1 PRO         0.0802
    113 H50         0.0942    7.0395    8.7005 H         1 PRO         0.0313
    114 H51        -1.3389    6.0096    9.0355 H         1 PRO         0.0313
    115 H52        -1.1890    8.8518    8.1280 H         1 PRO         0.0287
    116 H53        -2.4689    8.0054    9.0620 H         1 PRO         0.0287
    117 H54        -3.5351    7.2213    7.1340 H         1 PRO         0.0524
    118 H55        -2.7936    8.7035    6.4413 H         1 PRO         0.0524
    119 H56        -1.6520    2.1608    6.2799 H         1 PRO         0.0802
    120 H57         0.1521    1.0622    5.3949 H         1 PRO         0.0313
    121 H58         0.7884    0.7936    7.0531 H         1 PRO         0.0313
    122 H59         1.5863    2.7650    5.0199 H         1 PRO         0.0287
    123 H60         2.4526    2.2147    6.4942 H         1 PRO         0.0287
    124 H61         1.5545    3.8927    7.7992 H         1 PRO         0.0524
    125 H62         1.3686    4.7199    6.2156 H         1 PRO         0.0524
    126 H63        -2.5507    0.9103   10.4573 H         1 PRO         0.0728
    127 H64        -4.6114    0.1929    9.5528 H         1 PRO         0.0306
    128 H65        -3.8836   -1.4304    9.8015 H         1 PRO         0.0306
    129 H66        -4.7334   -0.6209    7.3747 H         1 PRO         0.0286
    130 H67        -3.2710   -1.6460    7.5677 H         1 PRO         0.0286
    131 H68        -2.2378    0.0673    6.4367 H         1 PRO         0.0524
    132 H69        -3.5021    1.2604    6.8893 H         1 PRO         0.0524
@<TRIPOS>BOND
     1    1    2 1  
     2    2    3 1  
     3    3    4 2  
     4    3    5 am 
     5    5    6 1  
     6    5   11 1  
     7    6    7 1  
     8    6    9 1  
     9    7    8 2  
    10    7   12 am 
    11    9   10 1  
    12   10   11 1  
    13   12   13 1  
    14   12   18 1  
    15   13   14 1  
    16   13   16 1  
    17   14   15 2  
    18   14   19 am 
    19   16   17 1  
    20   17   18 1  
    21   19   20 1  
    22   20   21 1  
    23   20   23 1  
    24   21   22 2  
    25   21   27 am 
    26   23   24 1  
    27   24   25 1  
    28   24   26 1  
    29   27   28 1  
    30   28   29 1  
    31   28   31 1  
    32   29   30 2  
    33   29   35 am 
    34   31   32 1  
    35   31   33 1  
    36   32   34 1  
    37   35   36 1  
    38   35   41 1  
    39   36   37 1  
    40   36   39 1  
    41   37   38 2  
    42   37   42 am 
    43   39   40 1  
    44   40   41 1  
    45   42   43 1  
    46   42   48 1  
    47   43   44 1  
    48   43   46 1  
    49   44   45 2  
    50   44   49 am 
    51   46   47 1  
    52   47   48 1  
    53   49   50 1  
    54   49   55 1  
    55   50   51 1  
    56   50   53 1  
    57   51   52 2  
    58   51   56 am 
    59   53   54 1  
    60   54   55 1  
    61   56   57 1  
    62   56   62 1  
    63   57   58 1  
    64   57   60 1  
    65   58   59 ar 
    66   58   63 ar 
    67   60   61 1  
    68   61   62 1  
    69    1   64 1  
    70    1   65 1  
    71    1   66 1  
    72    2   67 1  
    73    2   68 1  
    74    6   69 1  
    75    9   70 1  
    76    9   71 1  
    77   10   72 1  
    78   10   73 1  
    79   11   74 1  
    80   11   75 1  
    81   13   76 1  
    82   16   77 1  
    83   16   78 1  
    84   17   79 1  
    85   17   80 1  
    86   18   81 1  
    87   18   82 1  
    88   19   83 1  
    89   20   84 1  
    90   23   85 1  
    91   23   86 1  
    92   24   87 1  
    93   25   88 1  
    94   25   89 1  
    95   25   90 1  
    96   26   91 1  
    97   26   92 1  
    98   26   93 1  
    99   27   94 1  
   100   28   95 1  
   101   31   96 1  
   102   32   97 1  
   103   32   98 1  
   104   33   99 1  
   105   33  100 1  
   106   33  101 1  
   107   34  102 1  
   108   34  103 1  
   109   34  104 1  
   110   36  105 1  
   111   39  106 1  
   112   39  107 1  
   113   40  108 1  
   114   40  109 1  
   115   41  110 1  
   116   41  111 1  
   117   43  112 1  
   118   46  113 1  
   119   46  114 1  
   120   47  115 1  
   121   47  116 1  
   122   48  117 1  
   123   48  118 1  
   124   50  119 1  
   125   53  120 1  
   126   53  121 1  
   127   54  122 1  
   128   54  123 1  
   129   55  124 1  
   130   55  125 1  
   131   57  126 1  
   132   60  127 1  
   133   60  128 1  
   134   61  129 1  
   135   61  130 1  
   136   62  131 1  
   137   62  132 1  
@<TRIPOS>SUBSTRUCTURE
     1 GLY         1

