### 
### Created by X-TOOL on Mon Sep 10 21:13:02 2018
### 

@<TRIPOS>MOLECULE
2k1q_ligand
   84    84     1     0     0
SMALL
GAST_HUCK


@<TRIPOS>ATOM
      1 C          13.2170   -8.6690   -3.9190 C.2       1 IBU         0.3218
      2 OA2        12.4550   -9.5590   -4.2380 O.2       1 IBU        -0.3774
      3 OA1        14.2050   -8.9370   -3.2190 O.3       1 IBU        -0.2636
      4 CB         15.2530   -9.1030   -3.8860 C.3       1 IBU         0.0796
      5 CG         15.3930  -10.5750   -4.2990 C.3       1 IBU        -0.0189
      6 CD1        16.4290  -10.6950   -5.4190 C.3       1 IBU        -0.0603
      7 CD2        15.8510  -11.4010   -3.0940 C.3       1 IBU        -0.0603
      8 N          12.9800   -7.4270   -4.2400 N.am      1 GLU        -0.2411
      9 CA         13.0590   -6.3830   -3.1770 C.3       1 GLU         0.1343
     10 C          11.7780   -5.5430   -3.1650 C.2       1 GLU         0.2040
     11 O          11.3360   -5.0560   -4.1890 O.2       1 GLU        -0.3944
     12 CB         14.2670   -5.5230   -3.5590 C.3       1 GLU        -0.0009
     13 CG         14.4660   -4.4210   -2.5140 C.3       1 GLU         0.0044
     14 CD         15.6730   -3.5630   -2.8980 C.2       1 GLU         0.0350
     15 OE1        15.8900   -3.3760   -4.0840 O.co2     1 GLU        -0.5690
     16 OE2        16.3600   -3.1070   -2.0000 O.co2     1 GLU        -0.5690
     17 N          11.1820   -5.3730   -2.0120 N.am      1 LEU        -0.2637
     18 CA          9.9280   -4.5650   -1.9220 C.3       1 LEU         0.1312
     19 C          10.2570   -3.0710   -1.9650 C.2       1 LEU         0.2039
     20 O          11.2550   -2.6320   -1.4250 O.2       1 LEU        -0.3944
     21 CB          9.3070   -4.9390   -0.5750 C.3       1 LEU        -0.0101
     22 CG          8.4690   -6.2080   -0.7360 C.3       1 LEU        -0.0425
     23 CD1         9.3890   -7.3930   -1.0410 C.3       1 LEU        -0.0625
     24 CD2         7.7030   -6.4800    0.5610 C.3       1 LEU        -0.0625
     25 N           9.4240   -2.2900   -2.6040 N.am      1 OBF        -0.2635
     26 CA          9.6800   -0.8210   -2.6900 C.3       1 OBF         0.1360
     27 CB          9.9860   -0.5560   -4.1640 C.3       1 OBF         0.0483
     28 CG         11.3370   -1.1760   -4.5230 C.3       1 OBF         0.2435
     29 FG1        11.9450   -0.5000   -5.5200 F         1 OBF        -0.2090
     30 FG2        11.2050   -2.4620   -4.9120 F         1 OBF        -0.2090
     31 C           8.4410   -0.0370   -2.2490 C.2       1 OBF         0.2020
     32 O           8.2060    1.0680   -2.7010 O.2       1 OBF        -0.3945
     33 N           7.6520   -0.5980   -1.3680 N.am      1 FE3        -0.2830
     34 CA          6.4280    0.1170   -0.8920 C.3       1 FE3         0.0410
     35 CB          6.8390    0.7790    0.4280 C.3       1 FE3         0.0030
     36 CG          8.0270    1.6870    0.1960 C.ar      1 FE3        -0.0242
     37 CD1         9.3450    1.1770    0.3430 C.ar      1 FE3         0.0450
     38 CLD1        9.5560   -0.2640    0.7390 Cl        1 FE3        -0.0764
     39 CD2         7.8280    3.0430   -0.1770 C.ar      1 FE3        -0.0559
     40 CE1        10.4620    2.0240    0.1170 C.ar      1 FE3        -0.0402
     41 CE2         8.9460    3.8920   -0.4030 C.ar      1 FE3        -0.0541
     42 CZ         10.2680    3.3850   -0.2560 C.ar      1 FE3         0.0038
     43 CF         11.3650    4.2140   -0.4770 C.2       1 FE3         0.0585
     44 OF1        11.1580    5.3750   -0.7960 O.co2     1 FE3        -0.5625
     45 OF2        12.4840    3.7440   -0.3310 O.co2     1 FE3        -0.5625
     46 H1         16.1213   -8.8129   -3.2761 H         1 IBU         0.0614
     47 H2         15.2124   -8.4751   -4.7883 H         1 IBU         0.0614
     48 H3         14.4222  -10.9505   -4.6546 H         1 IBU         0.0321
     49 H4         16.5289  -11.7498   -5.7145 H         1 IBU         0.0233
     50 H5         17.3998  -10.3207   -5.0621 H         1 IBU         0.0233
     51 H6         16.1029  -10.1008   -6.2854 H         1 IBU         0.0233
     52 H7         15.1077  -11.3162   -2.2876 H         1 IBU         0.0233
     53 H8         16.8217  -11.0246   -2.7390 H         1 IBU         0.0233
     54 H9         15.9526  -12.4556   -3.3896 H         1 IBU         0.0233
     55 H10        12.7497   -7.1792   -5.1810 H         1 GLU         0.1899
     56 H11        13.2076   -6.8432   -2.1890 H         1 GLU         0.0800
     57 H12        14.0936   -5.0657   -4.5443 H         1 GLU         0.0330
     58 H13        15.1669   -6.1542   -3.6009 H         1 GLU         0.0330
     59 H14        14.6400   -4.8778   -1.5286 H         1 GLU         0.0433
     60 H15        13.5663   -3.7895   -2.4718 H         1 GLU         0.0433
     61 H16        11.5678   -5.7860   -1.1870 H         1 LEU         0.1883
     62 H17         9.2444   -4.8161   -2.7464 H         1 LEU         0.0800
     63 H18         8.6646   -4.1170   -0.2263 H         1 LEU         0.0315
     64 H19        10.1055   -5.1175    0.1602 H         1 LEU         0.0315
     65 H20         7.7559   -6.0745   -1.5628 H         1 LEU         0.0298
     66 H21         8.7855   -8.3054   -1.1567 H         1 LEU         0.0232
     67 H22        10.1011   -7.5269   -0.2134 H         1 LEU         0.0232
     68 H23         9.9413   -7.1983   -1.9721 H         1 LEU         0.0232
     69 H24         7.0415   -5.6292    0.7814 H         1 LEU         0.0232
     70 H25         8.4167   -6.6131    1.3874 H         1 LEU         0.0232
     71 H26         7.1003   -7.3930    0.4463 H         1 LEU         0.0232
     72 H27         8.6111   -2.6790   -3.0374 H         1 OBF         0.1883
     73 H28        10.5369   -0.5395   -2.0603 H         1 OBF         0.0802
     74 H29        10.0215    0.5289   -4.3420 H         1 OBF         0.0367
     75 H30         9.1992   -1.0045   -4.7883 H         1 OBF         0.0367
     76 H31        11.9771   -1.1402   -3.6292 H         1 OBF         0.1020
     77 H32         7.8684   -1.5072   -1.0123 H         1 FE3         0.1853
     78 H33         5.6051   -0.5941   -0.7273 H         1 FE3         0.0543
     79 H34         6.1155    0.8765   -1.6238 H         1 FE3         0.0543
     80 H35         7.1100    0.0019    1.1578 H         1 FE3         0.0453
     81 H36         5.9975    1.3706    0.8178 H         1 FE3         0.0453
     82 H37         6.8222    3.4313   -0.2896 H         1 FE3         0.0564
     83 H38        11.4669    1.6332    0.2288 H         1 FE3         0.0640
     84 H39         8.7914    4.9265   -0.6876 H         1 FE3         0.0635
@<TRIPOS>BOND
     1    1    2 2  
     2    1    3 1  
     3    1    8 am 
     4    3    4 1  
     5    4    5 1  
     6    5    6 1  
     7    5    7 1  
     8    8    9 1  
     9    9   10 1  
    10    9   12 1  
    11   10   11 2  
    12   10   17 am 
    13   12   13 1  
    14   13   14 1  
    15   14   15 ar 
    16   14   16 ar 
    17   17   18 1  
    18   18   19 1  
    19   18   21 1  
    20   19   20 2  
    21   19   25 am 
    22   21   22 1  
    23   22   23 1  
    24   22   24 1  
    25   25   26 1  
    26   26   27 1  
    27   26   31 1  
    28   27   28 1  
    29   28   29 1  
    30   28   30 1  
    31   31   32 2  
    32   31   33 am 
    33   33   34 1  
    34   34   35 1  
    35   35   36 1  
    36   36   37 ar 
    37   36   39 ar 
    38   37   38 1  
    39   37   40 ar 
    40   39   41 ar 
    41   40   42 ar 
    42   41   42 ar 
    43   42   43 1  
    44   43   44 ar 
    45   43   45 ar 
    46    4   46 1  
    47    4   47 1  
    48    5   48 1  
    49    6   49 1  
    50    6   50 1  
    51    6   51 1  
    52    7   52 1  
    53    7   53 1  
    54    7   54 1  
    55    8   55 1  
    56    9   56 1  
    57   12   57 1  
    58   12   58 1  
    59   13   59 1  
    60   13   60 1  
    61   17   61 1  
    62   18   62 1  
    63   21   63 1  
    64   21   64 1  
    65   22   65 1  
    66   23   66 1  
    67   23   67 1  
    68   23   68 1  
    69   24   69 1  
    70   24   70 1  
    71   24   71 1  
    72   25   72 1  
    73   26   73 1  
    74   27   74 1  
    75   27   75 1  
    76   28   76 1  
    77   33   77 1  
    78   34   78 1  
    79   34   79 1  
    80   35   80 1  
    81   35   81 1  
    82   39   82 1  
    83   40   83 1  
    84   41   84 1  
@<TRIPOS>SUBSTRUCTURE
     1 IBU         1

