### 
### Created by X-TOOL on Mon Sep 10 21:12:59 2018
### 

@<TRIPOS>MOLECULE
2k2g_ligand
   40    42     1     0     0
SMALL
GAST_HUCK


@<TRIPOS>ATOM
      1 C1         69.3230   23.2640   16.7340 C.ar      1 DSV         0.1022
      2 C2         68.4190   22.2460   16.3550 C.ar      1 DSV        -0.0208
      3 C3         67.1160   22.6210   15.9560 C.ar      1 DSV         0.0407
      4 C4         66.7200   23.9590   15.8970 C.ar      1 DSV        -0.0070
      5 C5         67.6000   24.9650   16.3320 C.ar      1 DSV        -0.0596
      6 C6         68.8840   24.6070   16.8170 C.ar      1 DSV        -0.0421
      7 S10        65.8060   21.5250   15.4810 S.3       1 DSV        -0.0370
      8 C11        64.7350   22.8870   15.0960 C.ar      1 DSV         0.0389
      9 C12        65.3480   24.1150   15.3480 C.ar      1 DSV        -0.0071
     10 CY1        63.4180   22.7990   14.5930 C.ar      1 DSV        -0.0474
     11 CZ1        62.7070   23.9960   14.3380 C.ar      1 DSV        -0.0679
     12 CZ2        63.3730   25.2400   14.4680 C.ar      1 DSV        -0.0687
     13 CY2        64.6540   25.3060   15.0740 C.ar      1 DSV        -0.0614
     14 S21        71.0060   22.8590   17.0960 S.o2      1 DSV         0.0680
     15 O22        71.2880   21.5260   16.6560 O.2       1 DSV        -0.1504
     16 O23        71.3020   23.2410   18.4450 O.2       1 DSV        -0.1504
     17 N24        72.0020   23.8790   16.0980 N.am      1 DSV        -0.2314
     18 C10        73.2690   24.3620   16.6330 C.3       1 DSV         0.0921
     19 CBC        74.3090   23.2230   16.6930 C.3       1 DSV        -0.0152
     20 CC1        75.5630   23.6110   17.4840 C.3       1 DSV        -0.0594
     21 CC2        74.7100   22.7500   15.2820 C.3       1 DSV        -0.0594
     22 C37        73.7870   25.5470   15.7930 C.2       1 DSV         0.0566
     23 O39        74.9000   25.6340   15.3700 O.co2     1 DSV        -0.5670
     24 O40        72.8260   26.4800   15.5940 O.co2     1 DSV        -0.5670
     25 H1         68.7174   21.2040   16.3699 H         1 DSV         0.0591
     26 H2         67.2998   26.0060   16.2971 H         1 DSV         0.0598
     27 H3         69.5291   25.3621   17.2513 H         1 DSV         0.0581
     28 H4         62.9610   21.8340   14.4060 H         1 DSV         0.0572
     29 H5         61.6636   23.9615   14.0462 H         1 DSV         0.0592
     30 H6         62.9016   26.1452   14.1028 H         1 DSV         0.0561
     31 H7         65.0931   26.2653   15.3232 H         1 DSV         0.0597
     32 H8         71.7106   24.1291   15.1747 H         1 DSV         0.1697
     33 H9         73.0955   24.7193   17.6588 H         1 DSV         0.0682
     34 H10        73.8366   22.3757   17.2115 H         1 DSV         0.0332
     35 H11        76.2665   22.7654   17.4939 H         1 DSV         0.0234
     36 H12        75.2812   23.8656   18.5163 H         1 DSV         0.0234
     37 H13        76.0415   24.4804   17.0095 H         1 DSV         0.0234
     38 H14        73.8073   22.4726   14.7180 H         1 DSV         0.0234
     39 H15        75.3744   21.8771   15.3629 H         1 DSV         0.0234
     40 H16        75.2344   23.5627   14.7581 H         1 DSV         0.0234
@<TRIPOS>BOND
     1    1    2 ar 
     2    1    6 ar 
     3    1   14 1  
     4    2    3 ar 
     5    3    4 ar 
     6    3    7 1  
     7    4    5 ar 
     8    4    9 1  
     9    5    6 ar 
    10    7    8 1  
    11    8    9 ar 
    12    8   10 ar 
    13    9   13 ar 
    14   10   11 ar 
    15   11   12 ar 
    16   12   13 ar 
    17   14   15 2  
    18   14   16 2  
    19   14   17 am 
    20   17   18 1  
    21   18   19 1  
    22   18   22 1  
    23   19   20 1  
    24   19   21 1  
    25   22   23 ar 
    26   22   24 ar 
    27    2   25 1  
    28    5   26 1  
    29    6   27 1  
    30   10   28 1  
    31   11   29 1  
    32   12   30 1  
    33   13   31 1  
    34   17   32 1  
    35   18   33 1  
    36   19   34 1  
    37   20   35 1  
    38   20   36 1  
    39   20   37 1  
    40   21   38 1  
    41   21   39 1  
    42   21   40 1  
@<TRIPOS>SUBSTRUCTURE
     1 DSV         1

