### 
### Created by X-TOOL on Mon Sep 10 21:12:59 2018
### 

@<TRIPOS>MOLECULE
2k46_ligand
   45    46     1     0     0
SMALL
GAST_HUCK


@<TRIPOS>ATOM
      1 O2        -16.1360   -6.4720   -3.2400 O.3       1 NGR        -0.3841
      2 C1        -18.0500   -6.2190   -4.7560 C.3       1 NGR         0.1884
      3 OA        -18.7610   -5.5860   -3.6750 O.3       1 NGR        -0.3401
      4 C2        -16.4940   -6.0750   -4.5570 C.3       1 NGR         0.1341
      5 C3        -16.0250   -4.5850   -4.8330 C.3       1 NGR         0.1141
      6 O3        -14.6040   -4.5310   -4.7880 O.3       1 NGR        -0.3864
      7 C4        -16.5120   -4.0560   -6.2360 C.3       1 NGR         0.1119
      8 O4        -16.1710   -2.6790   -6.3640 O.3       1 NGR        -0.3865
      9 C5        -18.0750   -4.2390   -6.3830 C.3       1 NGR         0.1130
     10 O5        -18.4470   -5.6600   -6.0810 O.3       1 NGR        -0.3405
     11 C6        -18.6000   -3.9220   -7.7920 C.3       1 NGR         0.0730
     12 O6        -18.5180   -4.9100   -8.8080 O.3       1 NGR        -0.3924
     13 C11       -22.4510   -5.4180   -2.5600 C.3       1 NGR         0.1854
     14 O11       -23.2030   -5.9040   -3.6620 O.3       1 NGR        -0.3649
     15 C12       -21.0760   -4.9020   -3.1260 C.3       1 NGR         0.1343
     16 O12       -21.2240   -4.1290   -4.3120 O.3       1 NGR        -0.3841
     17 C13       -20.0680   -6.1210   -3.3000 C.3       1 NGR         0.1206
     18 C14       -19.9310   -6.9870   -1.9810 C.3       1 NGR         0.1123
     19 O14       -19.0680   -8.0980   -2.2070 O.3       1 NGR        -0.3865
     20 C15       -21.3690   -7.4490   -1.5280 C.3       1 NGR         0.1130
     21 O15       -22.2940   -6.2930   -1.3670 O.3       1 NGR        -0.3407
     22 C16       -21.2640   -8.3230   -0.2720 C.3       1 NGR         0.0730
     23 O16       -20.3580   -7.8160    0.7060 O.3       1 NGR        -0.3924
     24 H1        -16.5854   -5.9199   -2.6108 H         1 NGR         0.2101
     25 H2        -18.3023   -7.2896   -4.7472 H         1 NGR         0.0938
     26 H3        -15.9869   -6.7376   -5.2738 H         1 NGR         0.0671
     27 H4        -16.4391   -3.9347   -4.0484 H         1 NGR         0.0648
     28 H5        -14.3167   -3.6406   -4.9527 H         1 NGR         0.2100
     29 H6        -16.0094   -4.6280   -7.0298 H         1 NGR         0.0647
     30 H7        -15.2287   -2.5796   -6.2956 H         1 NGR         0.2100
     31 H8        -18.5690   -3.5694   -5.6636 H         1 NGR         0.0647
     32 H9        -18.0407   -3.0459   -8.1521 H         1 NGR         0.0584
     33 H10       -19.6631   -3.6601   -7.6858 H         1 NGR         0.0584
     34 H11       -19.0100   -5.6778   -8.5419 H         1 NGR         0.2095
     35 H12       -22.9962   -4.5369   -2.1906 H         1 NGR         0.0935
     36 H13       -23.2202   -5.2461   -4.3470 H         1 NGR         0.2126
     37 H14       -20.6446   -4.2321   -2.3677 H         1 NGR         0.0671
     38 H15       -21.6353   -4.6589   -4.9847 H         1 NGR         0.2101
     39 H16       -20.4381   -6.7718   -4.1059 H         1 NGR         0.0651
     40 H17       -19.4941   -6.3636   -1.1870 H         1 NGR         0.0647
     41 H18       -18.2089   -7.7833   -2.4629 H         1 NGR         0.2100
     42 H19       -21.7825   -8.0791   -2.3293 H         1 NGR         0.0647
     43 H20       -20.9243   -9.3248   -0.5736 H         1 NGR         0.0584
     44 H21       -22.2621   -8.3962    0.1844 H         1 NGR         0.0584
     45 H22       -19.4880   -7.7561    0.3292 H         1 NGR         0.2095
@<TRIPOS>BOND
     1    4    1 1  
     2    3    2 1  
     3    2    4 1  
     4    2   10 1  
     5   17    3 1  
     6    4    5 1  
     7    5    6 1  
     8    5    7 1  
     9    7    8 1  
    10    9    7 1  
    11   10    9 1  
    12    9   11 1  
    13   11   12 1  
    14   13   14 1  
    15   15   13 1  
    16   13   21 1  
    17   15   16 1  
    18   15   17 1  
    19   17   18 1  
    20   18   19 1  
    21   18   20 1  
    22   20   21 1  
    23   20   22 1  
    24   22   23 1  
    25    1   24 1  
    26    2   25 1  
    27    4   26 1  
    28    5   27 1  
    29    6   28 1  
    30    7   29 1  
    31    8   30 1  
    32    9   31 1  
    33   11   32 1  
    34   11   33 1  
    35   12   34 1  
    36   13   35 1  
    37   14   36 1  
    38   15   37 1  
    39   16   38 1  
    40   17   39 1  
    41   18   40 1  
    42   19   41 1  
    43   20   42 1  
    44   22   43 1  
    45   22   44 1  
    46   23   45 1  
@<TRIPOS>SUBSTRUCTURE
     1 NGR         1

