### 
### Created by X-TOOL on Mon Sep 10 21:13:02 2018
### 

@<TRIPOS>MOLECULE
2kaw_ligand
   43    45     1     0     0
SMALL
GAST_HUCK


@<TRIPOS>ATOM
      1 C20         3.2420   -3.7530   -8.5550 C.ar      1 SUZ        -0.0528
      2 C19         2.1680   -2.8740   -8.5960 C.ar      1 SUZ        -0.0588
      3 C5          1.1080   -3.0720   -9.5400 C.ar      1 SUZ        -0.0378
      4 C6         -0.2430   -2.4390   -9.2670 C.3       1 SUZ         0.0043
      5 C7         -1.0920   -2.7980   -8.1220 C.3       1 SUZ         0.0285
      6 C18        -0.7090   -3.8660   -7.0680 C.ar      1 SUZ        -0.0320
      7 C17         0.3390   -4.7990   -6.9020 C.ar      1 SUZ        -0.0660
      8 C16         0.3390   -5.5940   -5.8080 C.ar      1 SUZ        -0.0411
      9 C15        -0.6770   -5.5080   -4.8480 C.ar      1 SUZ         0.1177
     10 F          -0.6430   -6.3150   -3.7770 F         1 SUZ        -0.1911
     11 C14        -1.7160   -4.6030   -4.9960 C.ar      1 SUZ        -0.0394
     12 C13        -1.7230   -3.7950   -6.0980 C.ar      1 SUZ        -0.0425
     13 C10        -2.7070   -2.7140   -6.5400 C.2       1 SUZ        -0.0470
     14 C11        -3.8850   -2.3260   -5.5870 C.3       1 SUZ         0.0157
     15 C12        -5.2500   -2.4510   -6.2570 C.2       1 SUZ         0.0397
     16 O3         -5.5080   -1.7020   -7.3170 O.co2     1 SUZ        -0.5675
     17 O2         -6.1260   -3.2140   -5.8220 O.co2     1 SUZ        -0.5675
     18 C8         -2.3630   -2.1310   -7.7110 C.2       1 SUZ        -0.0486
     19 C9         -3.1020   -1.0600   -8.4160 C.3       1 SUZ        -0.0328
     20 C4          1.1700   -4.1550  -10.4010 C.ar      1 SUZ        -0.0588
     21 C3          2.2690   -5.0560  -10.3590 C.ar      1 SUZ        -0.0528
     22 C2          3.2980   -4.8570   -9.4500 C.ar      1 SUZ         0.0316
     23 S           4.6610   -5.9370   -9.3700 S.o       1 SUZ         0.0468
     24 O1          4.2990   -7.2510   -8.9250 O.2       1 SUZ        -0.2533
     25 C1          5.6750   -5.1820   -8.1330 C.3       1 SUZ         0.0155
     26 H1          4.0404   -3.5973   -7.8385 H         1 SUZ         0.0611
     27 H2          2.1311   -2.0345   -7.9112 H         1 SUZ         0.0557
     28 H3         -0.8511   -2.6305  -10.1634 H         1 SUZ         0.0485
     29 H4         -0.0556   -1.3590   -9.1749 H         1 SUZ         0.0485
     30 H5         -1.6231   -3.5261   -8.7527 H         1 SUZ         0.0693
     31 H6          1.1299   -4.8763   -7.6393 H         1 SUZ         0.0543
     32 H7          1.1403   -6.3112   -5.6716 H         1 SUZ         0.0529
     33 H8         -2.5046   -4.5376   -4.2551 H         1 SUZ         0.0519
     34 H9         -3.7465   -1.2842   -5.2623 H         1 SUZ         0.0507
     35 H10        -3.8614   -2.9896   -4.7100 H         1 SUZ         0.0507
     36 H11        -4.0009   -0.7946   -7.8402 H         1 SUZ         0.0396
     37 H12        -3.3976   -1.4145   -9.4145 H         1 SUZ         0.0396
     38 H13        -2.4569   -0.1748   -8.5173 H         1 SUZ         0.0396
     39 H14         0.3711   -4.3176  -11.1154 H         1 SUZ         0.0557
     40 H15         2.3030   -5.9000  -11.0384 H         1 SUZ         0.0611
     41 H16         6.5852   -5.7825   -7.9884 H         1 SUZ         0.0368
     42 H17         5.1181   -5.1265   -7.1860 H         1 SUZ         0.0368
     43 H18         5.9524   -4.1675   -8.4553 H         1 SUZ         0.0368
@<TRIPOS>BOND
     1    1    2 ar 
     2    1   22 ar 
     3    2    3 ar 
     4    3    4 1  
     5    3   20 ar 
     6    4    5 1  
     7    5    6 1  
     8    5   18 1  
     9    6    7 ar 
    10    6   12 ar 
    11    7    8 ar 
    12    8    9 ar 
    13    9   10 1  
    14    9   11 ar 
    15   11   12 ar 
    16   12   13 1  
    17   13   14 1  
    18   13   18 2  
    19   14   15 1  
    20   15   16 ar 
    21   15   17 ar 
    22   18   19 1  
    23   20   21 ar 
    24   21   22 ar 
    25   22   23 1  
    26   23   24 2  
    27   23   25 1  
    28    1   26 1  
    29    2   27 1  
    30    4   28 1  
    31    4   29 1  
    32    5   30 1  
    33    7   31 1  
    34    8   32 1  
    35   11   33 1  
    36   14   34 1  
    37   14   35 1  
    38   19   36 1  
    39   19   37 1  
    40   19   38 1  
    41   20   39 1  
    42   21   40 1  
    43   25   41 1  
    44   25   42 1  
    45   25   43 1  
@<TRIPOS>SUBSTRUCTURE
     1 SUZ         1

