### 
### Created by X-TOOL on Mon Sep 10 21:12:46 2018
### 

@<TRIPOS>MOLECULE
2kce_ligand
   52    54     1     0     0
SMALL
GAST_HUCK


@<TRIPOS>ATOM
      1 N1         13.0940   18.6020   30.5360 N.2       1 D16        -0.3127
      2 C2         12.8010   19.4640   31.5350 C.2       1 D16         0.1373
      3 CM2        11.8020   20.5190   31.3570 C.3       1 D16         0.0259
      4 N3         13.4430   19.3860   32.7110 N.am      1 D16        -0.1956
      5 C4         14.4030   18.4720   32.9150 C.2       1 D16         0.2337
      6 O4         15.1670   18.5590   34.0480 O.2       1 D16        -0.3861
      7 C4A        14.6480   17.4740   31.9680 C.ar      1 D16         0.0536
      8 C5         15.4940   16.3710   32.2210 C.ar      1 D16        -0.0465
      9 C6         15.6880   15.3920   31.2150 C.ar      1 D16        -0.0230
     10 C7         15.0600   15.5570   29.9710 C.ar      1 D16        -0.0617
     11 C8         14.2170   16.6450   29.7290 C.ar      1 D16        -0.0591
     12 C8A        13.9840   17.6030   30.7270 C.ar      1 D16         0.0063
     13 C9         16.4250   14.1130   31.4490 C.3       1 D16         0.0634
     14 N10        16.9930   13.9020   32.8000 N.pl3     1 D16        -0.2814
     15 C11        14.4710   13.3140   35.5600 C.2       1 D16         0.0792
     16 S13        14.5570   13.3290   33.8690 S.3       1 D16        -0.0060
     17 C14        16.2460   13.6120   33.8800 C.2       1 D16         0.1123
     18 C15        16.7030   13.7110   35.1820 C.2       1 D16        -0.0532
     19 C16        15.7100   13.5420   36.1210 C.2       1 D16        -0.0778
     20 C          13.3290   12.8470   36.3170 C.2       1 D16         0.1901
     21 O          12.2590   12.6450   35.7390 O.2       1 D16        -0.4033
     22 N          13.4740   12.6490   37.6230 N.am      1 D16        -0.2761
     23 CA         12.4520   12.0280   38.4830 C.3       1 D16         0.0943
     24 CB         12.7210   10.5670   38.8180 C.3       1 D16        -0.0066
     25 CG         13.0200    9.5350   37.7700 C.3       1 D16         0.0038
     26 CD         13.5120    8.2750   38.4730 C.2       1 D16         0.0350
     27 OE1        12.6980    7.5150   38.9970 O.co2     1 D16        -0.5690
     28 OE2        14.7220    8.0690   38.5800 O.co2     1 D16        -0.5690
     29 CT         12.5840   12.7660   39.8120 C.2       1 D16         0.0600
     30 O1         13.7130   13.0680   40.2230 O.co2     1 D16        -0.5666
     31 O2         11.5650   13.0290   40.4470 O.co2     1 D16        -0.5666
     32 CP1        18.4420   14.0000   32.9350 C.3       1 D16         0.0236
     33 H1         13.2018   20.0192   33.4465 H         1 D16         0.2524
     34 H2         11.7173   21.1040   32.2847 H         1 D16         0.0525
     35 H3         10.8284   20.0657   31.1192 H         1 D16         0.0525
     36 H4         12.1096   21.1801   30.5334 H         1 D16         0.0525
     37 H5         15.9918   16.2742   33.1791 H         1 D16         0.0581
     38 H6         15.2314   14.8295   29.1859 H         1 D16         0.0576
     39 H7         13.7390   16.7496   28.7617 H         1 D16         0.0542
     40 H8         17.2562   14.0725   30.7296 H         1 D16         0.0677
     41 H9         15.7270   13.2865   31.2498 H         1 D16         0.0677
     42 H10        17.7437   13.9033   35.4386 H         1 D16         0.0234
     43 H11        15.8850   13.5840   37.1950 H         1 D16         0.0466
     44 H12        14.3308   12.9399   38.0487 H         1 D16         0.1851
     45 H13        11.4527   12.1409   38.0372 H         1 D16         0.0725
     46 H14        11.8290   10.2082   39.3524 H         1 D16         0.0323
     47 H15        13.5831   10.5653   39.5012 H         1 D16         0.0323
     48 H16        13.7981    9.9099   37.0888 H         1 D16         0.0432
     49 H17        12.1083    9.3104   37.1970 H         1 D16         0.0432
     50 H18        18.7254   13.8229   33.9830 H         1 D16         0.0494
     51 H19        18.7715   15.0044   32.6308 H         1 D16         0.0494
     52 H20        18.9219   13.2466   32.2931 H         1 D16         0.0494
@<TRIPOS>BOND
     1    1    2 2  
     2   12    1 1  
     3    2    3 1  
     4    4    2 1  
     5    5    4 am 
     6    5    6 2  
     7    7    5 1  
     8    8    7 ar 
     9    7   12 ar 
    10    9    8 ar 
    11    9   10 ar 
    12   13    9 1  
    13   10   11 ar 
    14   11   12 ar 
    15   14   13 1  
    16   17   14 1  
    17   14   32 1  
    18   16   15 1  
    19   15   19 2  
    20   15   20 1  
    21   16   17 1  
    22   17   18 2  
    23   18   19 1  
    24   20   21 2  
    25   20   22 am 
    26   22   23 1  
    27    4   33 1  
    28   23   24 1  
    29   23   29 1  
    30   24   25 1  
    31   25   26 1  
    32   26   27 ar 
    33   26   28 ar 
    34   29   30 ar 
    35   29   31 ar 
    36    3   34 1  
    37    3   35 1  
    38    3   36 1  
    39    8   37 1  
    40   10   38 1  
    41   11   39 1  
    42   13   40 1  
    43   13   41 1  
    44   18   42 1  
    45   19   43 1  
    46   22   44 1  
    47   23   45 1  
    48   24   46 1  
    49   24   47 1  
    50   25   48 1  
    51   25   49 1  
    52   32   50 1  
    53   32   51 1  
    54   32   52 1  
@<TRIPOS>SUBSTRUCTURE
     1 D16         1

