### 
### Created by X-TOOL on Mon Sep 10 21:13:02 2018
### 

@<TRIPOS>MOLECULE
2kdh_ligand
   51    54     1     0     0
SMALL
GAST_HUCK


@<TRIPOS>ATOM
      1 O1          9.7290    8.0200  -10.4520 O.3       1 KDH        -0.3417
      2 C3          8.9990    8.9490   -9.7740 C.ar      1 KDH         0.1015
      3 C6          7.9120    9.6100  -10.4460 C.ar      1 KDH         0.1362
      4 O7          7.6290    9.2950  -11.7470 O.3       1 KDH        -0.3466
      5 C9          7.1120   10.6050   -9.7640 C.ar      1 KDH         0.1015
      6 O10         6.0910   11.2100  -10.4360 O.3       1 KDH        -0.3417
      7 C12         7.4070   10.9400   -8.3900 C.ar      1 KDH        -0.0481
      8 C14         8.4910   10.2690   -7.7060 C.ar      1 KDH        -0.0349
      9 C15         8.7190   10.6120   -6.3660 C.3       1 KDH         0.1350
     10 C20         9.9450    9.8100   -4.3260 C.ar      1 KDH         0.0794
     11 C21        10.3130    8.7170   -3.4590 C.ar      1 KDH        -0.0224
     12 C24        11.0250    8.9880   -2.2410 C.ar      1 KDH         0.0640
     13 C26        11.3170   10.3370   -1.8390 C.ar      1 KDH        -0.0228
     14 C29        10.9140   11.4400   -2.6870 C.ar      1 KDH         0.0729
     15 C31        10.1670   11.1920   -3.8980 C.ar      1 KDH         0.0065
     16 C33         9.4390   11.9810   -6.1990 C.3       1 KDH         0.1292
     17 C36        10.6850   12.5270   -8.1650 C.2       1 KDH         0.2505
     18 C38        11.7280   12.1100   -8.9890 C.ar      1 KDH         0.0337
     19 C39        12.2010   12.9950  -10.0380 C.ar      1 KDH        -0.0312
     20 C41        12.3270   10.8120   -8.7970 C.ar      1 KDH        -0.0312
     21 C01         9.6290   12.2730   -4.6760 C.3       1 KDH         0.0069
     22 O01         9.3890    9.5430   -5.5730 O.3       1 KDH        -0.3105
     23 O02        11.4310    7.9510   -1.4500 O.3       1 KDH        -0.3427
     24 O03        11.2420   12.7150   -2.3360 O.3       1 KDH        -0.3424
     25 C4          9.2990    9.2780   -8.4010 C.ar      1 KDH        -0.0481
     26 O35        10.7100   12.0110   -6.8960 O.3       1 KDH        -0.2697
     27 O37         9.8220   13.3070   -8.5880 O.2       1 KDH        -0.3624
     28 C43        13.3890   10.3790   -9.6690 C.ar      1 KDH         0.1141
     29 O44        13.9740    9.1490   -9.5270 O.3       1 KDH        -0.3389
     30 C46        13.8560   11.2520  -10.7190 C.ar      1 KDH         0.1498
     31 O47        14.8570   10.8430  -11.5490 O.3       1 KDH        -0.3381
     32 C49        13.2700   12.5660  -10.9030 C.ar      1 KDH         0.1141
     33 O50        13.7520   13.3690  -11.8980 O.3       1 KDH        -0.3389
     34 H          10.4129    7.6698   -9.8765 H         1 KDH         0.2436
     35 H           6.8825    9.8189  -12.0468 H         1 KDH         0.2377
     36 H           5.6570   11.8402   -9.8563 H         1 KDH         0.2436
     37 H           6.8158   11.6946   -7.8712 H         1 KDH         0.0365
     38 H           7.7198   10.7214   -5.9444 H         1 KDH         0.0819
     39 H          10.0526    7.6929   -3.7263 H         1 KDH         0.0359
     40 H          11.8387   10.5287   -0.9014 H         1 KDH         0.0359
     41 H           8.8198   12.7586   -6.6463 H         1 KDH         0.0714
     42 H          11.7499   13.9784  -10.1703 H         1 KDH         0.0477
     43 H          11.9776   10.1613   -7.9954 H         1 KDH         0.0477
     44 H          10.3456   13.0913   -4.6052 H         1 KDH         0.0390
     45 H           8.6367   12.4787   -4.2746 H         1 KDH         0.0390
     46 H          11.1635    7.1206   -1.8506 H         1 KDH         0.2455
     47 H          11.7337   12.7023   -1.5116 H         1 KDH         0.2451
     48 H          10.1258    8.7871   -7.8877 H         1 KDH         0.0365
     49 H          14.6560    9.0414  -10.1940 H         1 KDH         0.2437
     50 H          15.0463   11.5359  -12.1859 H         1 KDH         0.2422
     51 H          13.2711   14.1998  -11.8984 H         1 KDH         0.2437
@<TRIPOS>BOND
     1    2    1 1  
     2    2    3 ar 
     3   25    2 ar 
     4    3    4 1  
     5    5    3 ar 
     6    5    6 1  
     7    7    5 ar 
     8    8    7 ar 
     9    9    8 1  
    10    8   25 ar 
    11   16    9 1  
    12    9   22 1  
    13   10   11 ar 
    14   15   10 ar 
    15   22   10 1  
    16   11   12 ar 
    17   13   12 ar 
    18   12   23 1  
    19   14   13 ar 
    20   15   14 ar 
    21   14   24 1  
    22   21   15 1  
    23   16   21 1  
    24   26   16 1  
    25   17   18 1  
    26   17   26 1  
    27   17   27 2  
    28   18   19 ar 
    29   18   20 ar 
    30   19   32 ar 
    31   20   28 ar 
    32   28   29 1  
    33   28   30 ar 
    34   30   31 1  
    35   30   32 ar 
    36   32   33 1  
    37    1   34 1  
    38    4   35 1  
    39    6   36 1  
    40    7   37 1  
    41    9   38 1  
    42   11   39 1  
    43   13   40 1  
    44   16   41 1  
    45   19   42 1  
    46   20   43 1  
    47   21   44 1  
    48   21   45 1  
    49   23   46 1  
    50   24   47 1  
    51   25   48 1  
    52   29   49 1  
    53   31   50 1  
    54   33   51 1  
@<TRIPOS>SUBSTRUCTURE
     1 KDH         1

