### 
### Created by X-TOOL on Mon Sep 10 21:13:02 2018
### 

@<TRIPOS>MOLECULE
2kfx_ligand
   44    45     1     0     0
SMALL
GAST_HUCK


@<TRIPOS>ATOM
      1 S1         80.5120    3.5460   -4.6840 S.o2      1 WW7         0.0688
      2 O1         81.1220    3.1440   -5.9080 O.2       1 WW7        -0.1503
      3 O2         80.0010    4.8940   -4.6240 O.2       1 WW7        -0.1503
      4 N1         79.1720    2.4680   -4.4240 N.am      1 WW7        -0.2474
      5 C4         83.5310    3.0740   -1.0900 C.ar      1 WW7        -0.0537
      6 C3         82.7070    4.2620   -1.2390 C.ar      1 WW7        -0.0594
      7 C2         81.7800    4.3970   -2.3630 C.ar      1 WW7        -0.0345
      8 C1         81.6580    3.3380   -3.3570 C.ar      1 WW7         0.1158
      9 C9         82.4730    2.1370   -3.2400 C.ar      1 WW7         0.0090
     10 C10        83.4330    2.0030   -2.0750 C.ar      1 WW7        -0.0024
     11 CL1        85.3400    0.5440   -0.6480 Cl        1 WW7        -0.0689
     12 C5         84.2360    0.7930   -1.9530 C.ar      1 WW7         0.0484
     13 C6         84.1160   -0.2700   -2.9400 C.ar      1 WW7        -0.0473
     14 C7         83.1880   -0.1340   -4.0650 C.ar      1 WW7        -0.0607
     15 C8         82.3690    1.0600   -4.2180 C.ar      1 WW7        -0.0521
     16 C11        77.8860    3.0730   -4.0850 C.3       1 WW7         0.0266
     17 C12        77.4570    2.8470   -2.6360 C.3       1 WW7        -0.0361
     18 C14        79.2170    2.8360   -0.8560 C.3       1 WW7        -0.0482
     19 C13        78.2960    3.7170   -1.7000 C.3       1 WW7        -0.0514
     20 C15        79.2490    3.3530    0.5860 C.3       1 WW7        -0.0126
     21 C16        80.6500    3.1660    1.1770 C.3       1 WW7        -0.0354
     22 N2         81.2660    4.4210    1.5760 N.4       1 WW7         0.2185
     23 H1         79.2772    1.4767   -4.5031 H         1 WW7         0.1672
     24 H2         84.2136    2.9847   -0.2526 H         1 WW7         0.0622
     25 H3         82.7802    5.0587   -0.5076 H         1 WW7         0.0618
     26 H4         81.1780    5.2935   -2.4574 H         1 WW7         0.0637
     27 H5         84.7166   -1.1671   -2.8419 H         1 WW7         0.0623
     28 H6         83.1099   -0.9330   -4.7934 H         1 WW7         0.0617
     29 H7         81.6853    1.1481   -5.0546 H         1 WW7         0.0625
     30 H8         77.1171    2.6442   -4.7445 H         1 WW7         0.0475
     31 H9         77.9564    4.1567   -4.2601 H         1 WW7         0.0475
     32 H10        77.6001    1.7881   -2.3747 H         1 WW7         0.0281
     33 H11        76.3951    3.1118   -2.5250 H         1 WW7         0.0281
     34 H12        80.2333    2.8618   -1.2761 H         1 WW7         0.0267
     35 H13        78.8426    1.8017   -0.8651 H         1 WW7         0.0267
     36 H14        77.6291    4.2876   -1.0370 H         1 WW7         0.0266
     37 H15        78.9036    4.4134   -2.2964 H         1 WW7         0.0266
     38 H16        78.5206    2.7926    1.1905 H         1 WW7         0.0317
     39 H17        78.9888    4.4217    0.5960 H         1 WW7         0.0317
     40 H18        81.2889    2.6858    0.4213 H         1 WW7         0.0813
     41 H19        80.5746    2.5152    2.0606 H         1 WW7         0.0813
     42 H20        82.1818    4.2398    1.9562 H         1 WW7         0.1994
     43 H21        80.6944    4.8685    2.2754 H         1 WW7         0.1994
     44 H22        81.3490    5.0248    0.7731 H         1 WW7         0.1994
@<TRIPOS>BOND
     1    1    2 2  
     2    1    3 2  
     3    1    4 am 
     4    8    1 1  
     5    4   16 1  
     6    6    5 ar 
     7    5   10 ar 
     8    7    6 ar 
     9    7    8 ar 
    10    8    9 ar 
    11    9   10 ar 
    12    9   15 ar 
    13   10   12 ar 
    14   12   11 1  
    15   12   13 ar 
    16   13   14 ar 
    17   14   15 ar 
    18   16   17 1  
    19   17   19 1  
    20   19   18 1  
    21   18   20 1  
    22   20   21 1  
    23   21   22 1  
    24    4   23 1  
    25    5   24 1  
    26    6   25 1  
    27    7   26 1  
    28   13   27 1  
    29   14   28 1  
    30   15   29 1  
    31   16   30 1  
    32   16   31 1  
    33   17   32 1  
    34   17   33 1  
    35   18   34 1  
    36   18   35 1  
    37   19   36 1  
    38   19   37 1  
    39   20   38 1  
    40   20   39 1  
    41   21   40 1  
    42   21   41 1  
    43   22   42 1  
    44   22   43 1  
    45   22   44 1  
@<TRIPOS>SUBSTRUCTURE
     1 WW7         1

