### 
### Created by X-TOOL on Mon Sep 10 21:13:02 2018
### 

@<TRIPOS>MOLECULE
2ko7_ligand
   55    56     1     0     0
SMALL
GAST_HUCK


@<TRIPOS>ATOM
      1 N1        -20.4790   -5.5900    0.5820 N.am      1 JZF        -0.1648
      2 O1        -19.6720   -3.0570   -4.7800 O.2       1 JZF        -0.3909
      3 C2        -20.9490   -4.9820   -0.5520 C.2       1 JZF         0.2096
      4 O2        -22.1330   -4.9760   -0.8240 O.2       1 JZF        -0.3859
      5 C3        -19.9800   -4.3080   -1.5080 C.3       1 JZF         0.0478
      6 O3        -18.7760   -6.1170    1.9680 O.2       1 JZF        -0.3859
      7 C4        -18.7500   -3.7590   -0.7720 C.3       1 JZF        -0.0039
      8 O4        -23.2840   -7.7310    0.8910 O.2       1 JZF        -0.3677
      9 C5        -18.1330   -4.8860    0.0720 C.3       1 JZF         0.0478
     10 O5        -21.1990   -8.2570    0.1680 O.3       1 JZF        -0.2753
     11 C6        -19.1600   -5.5690    0.9530 C.2       1 JZF         0.2096
     12 C7        -17.7540   -2.9930   -1.7000 C.3       1 JZF        -0.0174
     13 C8        -18.2390   -1.8700   -2.6700 C.3       1 JZF         0.0741
     14 C9        -17.6610   -1.8810   -4.1300 C.3       1 JZF         0.0589
     15 OH        -18.1370   -0.5800   -2.0560 O.3       1 JZF        -0.3891
     16 C10       -18.5620   -2.6640   -5.0890 C.2       1 JZF         0.1132
     17 C11       -18.0390   -2.7760   -6.5170 C.3       1 JZF         0.0303
     18 C12       -17.7770   -1.3640   -7.0970 C.3       1 JZF        -0.0318
     19 C13       -16.8730   -0.5040   -6.1820 C.3       1 JZF        -0.0391
     20 C14       -17.4480   -0.4640   -4.7450 C.3       1 JZF        -0.0291
     21 C15       -21.4520   -6.2780    1.4710 C.3       1 JZF         0.1583
     22 C16       -20.9270   -8.0020   -1.2290 C.3       1 JZF         0.0740
     23 C17       -21.1170   -9.3180   -1.9990 C.3       1 JZF        -0.0371
     24 C18       -19.0100   -3.5490   -7.4390 C.3       1 JZF        -0.0464
     25 C19       -15.3980   -0.9720   -6.2140 C.3       1 JZF        -0.0621
     26 C21       -22.0950   -7.4860    0.8220 C.2       1 JZF         0.2615
     27 H         -20.4936   -3.4755   -1.9888 H         1 JZF         0.0512
     28 H         -19.6445   -5.0467   -2.2359 H         1 JZF         0.0512
     29 H         -19.0614   -2.9724   -0.0847 H         1 JZF         0.0351
     30 H         -17.3704   -4.4487    0.7164 H         1 JZF         0.0512
     31 H         -17.7196   -5.6313   -0.6075 H         1 JZF         0.0512
     32 H         -17.3742   -3.7664   -2.3676 H         1 JZF         0.0297
     33 H         -17.1002   -2.4691   -1.0027 H         1 JZF         0.0297
     34 H         -19.2880   -2.1138   -2.8382 H         1 JZF         0.0622
     35 H         -16.6882   -2.3608   -4.0221 H         1 JZF         0.0555
     36 H         -18.5008   -0.6196   -1.1685 H         1 JZF         0.2100
     37 H         -17.1070   -3.3399   -6.4771 H         1 JZF         0.0527
     38 H         -18.7371   -0.8569   -7.1926 H         1 JZF         0.0295
     39 H         -17.2693   -1.4832   -8.0542 H         1 JZF         0.0295
     40 H         -16.8697    0.5150   -6.5690 H         1 JZF         0.0301
     41 H         -16.7313    0.0648   -4.1167 H         1 JZF         0.0296
     42 H         -18.4206    0.0259   -4.7916 H         1 JZF         0.0296
     43 H         -22.2440   -5.5679    1.7090 H         1 JZF         0.0837
     44 H         -20.9106   -6.6231    2.3518 H         1 JZF         0.0837
     45 H         -19.9073   -7.6374   -1.3532 H         1 JZF         0.0610
     46 H         -21.6068   -7.2408   -1.6117 H         1 JZF         0.0610
     47 H         -20.4265  -10.0671   -1.6116 H         1 JZF         0.0255
     48 H         -22.1419   -9.6668   -1.8725 H         1 JZF         0.0255
     49 H         -20.9169   -9.1504   -3.0573 H         1 JZF         0.0255
     50 H         -19.1520   -4.5576   -7.0509 H         1 JZF         0.0257
     51 H         -19.9690   -3.0318   -7.4698 H         1 JZF         0.0257
     52 H         -18.5911   -3.6006   -8.4440 H         1 JZF         0.0257
     53 H         -15.3389   -2.0063   -5.8751 H         1 JZF         0.0233
     54 H         -15.0173   -0.8998   -7.2328 H         1 JZF         0.0233
     55 H         -14.8028   -0.3383   -5.5566 H         1 JZF         0.0233
@<TRIPOS>BOND
     1    1    3 am 
     2    1   11 am 
     3   21    1 1  
     4   16    2 2  
     5    3    4 2  
     6    3    5 1  
     7    5    7 1  
     8   11    6 2  
     9    9    7 1  
    10    7   12 1  
    11   26    8 2  
    12   11    9 1  
    13   10   22 1  
    14   26   10 1  
    15   12   13 1  
    16   13   14 1  
    17   13   15 1  
    18   14   16 1  
    19   14   20 1  
    20   16   17 1  
    21   17   18 1  
    22   17   24 1  
    23   19   18 1  
    24   20   19 1  
    25   19   25 1  
    26   21   26 1  
    27   22   23 1  
    28    5   27 1  
    29    5   28 1  
    30    7   29 1  
    31    9   30 1  
    32    9   31 1  
    33   12   32 1  
    34   12   33 1  
    35   13   34 1  
    36   14   35 1  
    37   15   36 1  
    38   17   37 1  
    39   18   38 1  
    40   18   39 1  
    41   19   40 1  
    42   20   41 1  
    43   20   42 1  
    44   21   43 1  
    45   21   44 1  
    46   22   45 1  
    47   22   46 1  
    48   23   47 1  
    49   23   48 1  
    50   23   49 1  
    51   24   50 1  
    52   24   51 1  
    53   24   52 1  
    54   25   53 1  
    55   25   54 1  
    56   25   55 1  
@<TRIPOS>SUBSTRUCTURE
     1 JZF         1

