### 
### Created by X-TOOL on Mon Sep 10 21:13:05 2018
### 

@<TRIPOS>MOLECULE
2kp8_ligand
   69    73     1     0     0
SMALL
GAST_HUCK


@<TRIPOS>ATOM
      1 C1         45.3110   61.0490   32.1740 C.3       1 XIG         0.0597
      2 O2         44.8340   59.7130   32.0900 O.3       1 XIG        -0.3206
      3 C3         43.5410   59.5460   31.6480 C.ar      1 XIG         0.0916
      4 C4         43.2190   58.3320   31.0120 C.ar      1 XIG        -0.0322
      5 C5         41.9260   58.1120   30.4990 C.ar      1 XIG        -0.0632
      6 C6         40.9140   59.0890   30.6280 C.ar      1 XIG        -0.0321
      7 C7         41.2320   60.2910   31.2960 C.ar      1 XIG        -0.0632
      8 C8         42.5280   60.5220   31.8000 C.ar      1 XIG        -0.0322
      9 C9         39.5720   58.8610   30.0540 C.ar      1 XIG        -0.0309
     10 C10        38.9530   57.5940   30.1370 C.ar      1 XIG        -0.0626
     11 C11        37.6990   57.3610   29.5430 C.ar      1 XIG        -0.0587
     12 C12        37.0300   58.3940   28.8580 C.ar      1 XIG        -0.0211
     13 C13        35.6730   58.1440   28.2020 C.3       1 XIG         0.0692
     14 N14        34.5490   58.8080   28.8810 N.am      1 XIG        -0.2473
     15 C15        33.5810   59.5480   28.0430 C.3       1 XIG         0.0780
     16 C16        34.1060   60.9460   27.6330 C.3       1 XIG        -0.0189
     17 C17        34.7420   60.9980   26.2380 C.3       1 XIG        -0.0405
     18 C18        33.7910   60.4550   25.1670 C.3       1 XIG        -0.0213
     19 C19        33.1950   59.1050   25.5300 C.ar      1 XIG        -0.0388
     20 C20        32.7630   58.2490   24.4950 C.ar      1 XIG        -0.0668
     21 C21        32.2050   56.9930   24.7960 C.ar      1 XIG        -0.0755
     22 C22        32.0480   56.5950   26.1360 C.ar      1 XIG        -0.0754
     23 C23        32.4750   57.4460   27.1690 C.ar      1 XIG        -0.0647
     24 C24        33.0640   58.6960   26.8810 C.ar      1 XIG        -0.0156
     25 C25        34.3560   58.6100   30.2040 C.2       1 XIG         0.2158
     26 O26        34.7740   57.6200   30.8060 O.2       1 XIG        -0.3821
     27 C27        33.7800   59.7420   31.0010 C.ar      1 XIG         0.0698
     28 C28        34.5570   60.9090   31.1490 C.ar      1 XIG        -0.0213
     29 C29        34.1710   61.9530   32.0150 C.ar      1 XIG         0.0317
     30 C30        35.0690   63.1540   32.1000 C.2       1 XIG         0.0677
     31 O31        36.3030   62.9580   32.1160 O.co2     1 XIG        -0.5593
     32 O32        34.5880   64.3020   32.0240 O.co2     1 XIG        -0.5593
     33 C33        32.9680   61.8200   32.7620 C.ar      1 XIG         0.0314
     34 C34        32.1650   60.6730   32.5690 C.ar      1 XIG        -0.0251
     35 C35        32.5620   59.6220   31.7160 C.ar      1 XIG         0.0352
     36 C36        31.7020   58.3970   31.6360 C.2       1 XIG         0.0686
     37 O37        31.2580   57.8980   32.6930 O.co2     1 XIG        -0.5589
     38 O38        31.4690   57.8680   30.5220 O.co2     1 XIG        -0.5589
     39 C39        32.5480   62.8000   33.8210 C.2       1 XIG         0.0684
     40 O40        31.3410   63.1070   33.9030 O.co2     1 XIG        -0.5589
     41 O41        33.3700   63.1650   34.6860 O.co2     1 XIG        -0.5589
     42 C42        37.6240   59.6690   28.7930 C.ar      1 XIG        -0.0587
     43 C43        38.8820   59.8970   29.3850 C.ar      1 XIG        -0.0626
     44 H          45.2724   61.5099   31.1870 H         1 XIG         0.0578
     45 H          44.6854   61.6140   32.8650 H         1 XIG         0.0578
     46 H          46.3397   61.0442   32.5342 H         1 XIG         0.0578
     47 H          43.9775   57.5551   30.9157 H         1 XIG         0.0545
     48 H          41.7025   57.1722   29.9940 H         1 XIG         0.0592
     49 H          40.4631   61.0529   31.4242 H         1 XIG         0.0592
     50 H          42.7513   61.4589   32.3103 H         1 XIG         0.0545
     51 H          39.4540   56.7852   30.6689 H         1 XIG         0.0595
     52 H          37.2419   56.3740   29.6134 H         1 XIG         0.0557
     53 H          35.4869   57.0708   28.2425 H         1 XIG         0.0688
     54 H          35.7235   58.5470   27.1905 H         1 XIG         0.0688
     55 H          32.7030   59.7544   28.6550 H         1 XIG         0.0708
     56 H          34.8809   61.2200   28.3489 H         1 XIG         0.0310
     57 H          33.2487   61.6191   27.6197 H         1 XIG         0.0310
     58 H          35.6414   60.3823   26.2454 H         1 XIG         0.0288
     59 H          34.9712   62.0371   26.0015 H         1 XIG         0.0288
     60 H          34.3637   60.3285   24.2482 H         1 XIG         0.0411
     61 H          32.9691   61.1634   25.0633 H         1 XIG         0.0411
     62 H          32.8622   58.5627   23.4558 H         1 XIG         0.0537
     63 H          31.8942   56.3279   23.9903 H         1 XIG         0.0541
     64 H          31.5972   55.6310   26.3717 H         1 XIG         0.0541
     65 H          32.3498   57.1369   28.2067 H         1 XIG         0.0538
     66 H          35.4808   61.0070   30.5788 H         1 XIG         0.0716
     67 H          31.2126   60.5985   33.0938 H         1 XIG         0.0702
     68 H          37.1086   60.4827   28.2827 H         1 XIG         0.0557
     69 H          39.3304   60.8888   29.3260 H         1 XIG         0.0595
@<TRIPOS>BOND
     1    1    2 1  
     2    2    3 1  
     3    3    4 ar 
     4    3    8 ar 
     5    4    5 ar 
     6    5    6 ar 
     7    6    7 ar 
     8    6    9 1  
     9    7    8 ar 
    10    9   10 ar 
    11    9   43 ar 
    12   10   11 ar 
    13   11   12 ar 
    14   12   13 1  
    15   12   42 ar 
    16   13   14 1  
    17   14   15 1  
    18   14   25 am 
    19   15   16 1  
    20   15   24 1  
    21   16   17 1  
    22   17   18 1  
    23   18   19 1  
    24   19   20 ar 
    25   19   24 ar 
    26   20   21 ar 
    27   21   22 ar 
    28   22   23 ar 
    29   23   24 ar 
    30   25   26 2  
    31   25   27 1  
    32   27   28 ar 
    33   27   35 ar 
    34   28   29 ar 
    35   29   30 1  
    36   29   33 ar 
    37   30   31 ar 
    38   30   32 ar 
    39   33   34 ar 
    40   33   39 1  
    41   34   35 ar 
    42   35   36 1  
    43   36   37 ar 
    44   36   38 ar 
    45   39   40 ar 
    46   39   41 ar 
    47   42   43 ar 
    48    1   44 1  
    49    1   45 1  
    50    1   46 1  
    51    4   47 1  
    52    5   48 1  
    53    7   49 1  
    54    8   50 1  
    55   10   51 1  
    56   11   52 1  
    57   13   53 1  
    58   13   54 1  
    59   15   55 1  
    60   16   56 1  
    61   16   57 1  
    62   17   58 1  
    63   17   59 1  
    64   18   60 1  
    65   18   61 1  
    66   20   62 1  
    67   21   63 1  
    68   22   64 1  
    69   23   65 1  
    70   28   66 1  
    71   34   67 1  
    72   42   68 1  
    73   43   69 1  
@<TRIPOS>SUBSTRUCTURE
     1 XIG         1

