### 
### Created by X-TOOL on Mon Sep 10 21:13:05 2018
### 

@<TRIPOS>MOLECULE
2l1r_ligand
   28    29     1     0     0
SMALL
GAST_HUCK


@<TRIPOS>ATOM
      1 OAA        59.7710   11.3050   -1.3200 O.co2     1 SXK        -0.5662
      2 OAB        60.0150    9.4230   -0.1670 O.co2     1 SXK        -0.5662
      3 CAE        56.2250    1.1560   -0.4550 C.ar      1 SXK        -0.0327
      4 CAF        57.0950    6.5680   -2.9860 C.ar      1 SXK        -0.0323
      5 CAG        58.1650    6.5560   -0.7640 C.ar      1 SXK        -0.0323
      6 CAH        56.8890    5.1730   -2.8990 C.ar      1 SXK        -0.0635
      7 CAI        57.9650    5.1630   -0.6690 C.ar      1 SXK        -0.0635
      8 CAJ        56.4110    2.5580   -0.5510 C.ar      1 SXK        -0.0594
      9 CAK        57.4520    0.8170   -2.5460 C.ar      1 SXK         0.0050
     10 CAL        59.1620    9.2310   -2.3760 C.3       1 SXK         0.1228
     11 OAM        57.8790    8.6070   -2.1270 O.3       1 SXK        -0.3035
     12 CAN        59.6920   10.0570   -1.1920 C.2       1 SXK         0.0654
     13 CAO        56.7450    0.3080   -1.4500 C.ar      1 SXK         0.1299
     14 CAP        57.7330    7.2570   -1.9150 C.ar      1 SXK         0.0940
     15 CAQ        57.6440    2.2160   -2.6510 C.ar      1 SXK         0.1372
     16 CAR        57.3270    4.4690   -1.7380 C.ar      1 SXK        -0.0303
     17 CAS        57.1240    3.0800   -1.6490 C.ar      1 SXK         0.0059
     18 FCC        56.5580   -1.0350   -1.3410 F         1 SXK        -0.1850
     19 FDD        58.3370    2.6900   -3.7320 F         1 SXK        -0.1838
     20 H          55.6793    0.7350    0.3894 H         1 SXK         0.0569
     21 H          56.7668    7.1152   -3.8697 H         1 SXK         0.0545
     22 H          58.6526    7.0929    0.0496 H         1 SXK         0.0545
     23 H          56.3990    4.6386   -3.7129 H         1 SXK         0.0589
     24 H          58.2963    4.6206    0.2165 H         1 SXK         0.0589
     25 H          56.0084    3.2227    0.2133 H         1 SXK         0.0591
     26 H          57.8490    0.1459   -3.3076 H         1 SXK         0.0587
     27 H          59.0335    9.9134   -3.2162 H         1 SXK         0.0785
     28 H          59.8805    8.4328   -2.5624 H         1 SXK         0.0785
@<TRIPOS>BOND
     1   12    1 ar 
     2   12    2 ar 
     3    8    3 ar 
     4    3   13 ar 
     5    6    4 ar 
     6    4   14 ar 
     7    7    5 ar 
     8    5   14 ar 
     9   16    6 ar 
    10   16    7 ar 
    11   17    8 ar 
    12    9   13 ar 
    13   15    9 ar 
    14   11   10 1  
    15   10   12 1  
    16   14   11 1  
    17   13   18 1  
    18   17   15 ar 
    19   15   19 1  
    20   16   17 1  
    21    3   20 1  
    22    4   21 1  
    23    5   22 1  
    24    6   23 1  
    25    7   24 1  
    26    8   25 1  
    27    9   26 1  
    28   10   27 1  
    29   10   28 1  
@<TRIPOS>SUBSTRUCTURE
     1 SXK         1

