### 
### Created by X-TOOL on Mon Sep 10 21:13:08 2018
### 

@<TRIPOS>MOLECULE
2l84_ligand
   39    40     1     0     0
SMALL
GAST_HUCK


@<TRIPOS>ATOM
      1 S          14.9420   -1.9690    9.4200 S.o2      1 J28        -0.1677
      2 NA         14.3590    0.0020    4.7730 N.2       1 J28        -0.2021
      3 NB         15.3710   -0.5990    4.4250 N.2       1 J28        -0.2023
      4 CG         15.8020   -0.4840    3.1750 C.ar      1 J28         0.0777
      5 CH         13.9100   -0.0980    6.0170 C.ar      1 J28         0.0663
      6 OH         17.1500   -0.1360   -0.7210 O.3       1 J28        -0.3348
      7 CK         12.9540   -0.2870    8.6110 C.ar      1 J28        -0.0270
      8 NL         17.6050   -1.9000    3.6220 N.pl3     1 J28        -0.3353
      9 CM         14.7810    1.3070   -0.0330 C.3       1 J28        -0.0370
     10 CN         12.4130   -0.3770   10.0400 C.3       1 J28        -0.0291
     11 CP         12.0370    1.4580    5.3830 C.3       1 J28        -0.0283
     12 OT         14.0580   -2.9740    9.9220 O.co2     1 J28        -0.4814
     13 CZ         16.6990   -0.2480    0.5670 C.ar      1 J28         0.0863
     14 OC1        16.1200   -2.6240    8.7600 O.co2     1 J28        -0.4814
     15 OC2        15.4190   -1.1090   10.5530 O.co2     1 J28        -0.4814
     16 CD1        16.9410   -1.1500    2.7570 C.ar      1 J28         0.0550
     17 CD2        15.1170    0.3040    2.2600 C.ar      1 J28        -0.0487
     18 CE1        17.3910   -1.0360    1.4600 C.ar      1 J28        -0.0126
     19 CE2        15.5580    0.4270    0.9610 C.ar      1 J28        -0.0211
     20 CI1        14.5680   -0.8790    6.9530 C.ar      1 J28        -0.0254
     21 CI2        12.7710    0.5850    6.4020 C.ar      1 J28        -0.0237
     22 CJ1        14.0960   -0.9780    8.2500 C.ar      1 J28         0.0511
     23 CJ2        12.2930    0.4930    7.6900 C.ar      1 J28        -0.0517
     24 H          16.5646    0.4430   -1.2146 H         1 J28         0.2486
     25 H          17.2758   -1.9820    4.5839 H         1 J28         0.1741
     26 H          18.4459   -2.3960    3.3267 H         1 J28         0.1741
     27 H          13.7638    0.9285   -0.1333 H         1 J28         0.0348
     28 H          14.7538    2.3324    0.3358 H         1 J28         0.0348
     29 H          15.2768    1.2816   -1.0034 H         1 J28         0.0348
     30 H          12.1731   -1.4147   10.2716 H         1 J28         0.0400
     31 H          13.1682   -0.0131   10.7366 H         1 J28         0.0400
     32 H          11.5137    0.2330   10.1258 H         1 J28         0.0400
     33 H          11.0160    1.0953    5.2643 H         1 J28         0.0404
     34 H          12.0189    2.4891    5.7360 H         1 J28         0.0404
     35 H          12.5549    1.4096    4.4251 H         1 J28         0.0404
     36 H          14.2172    0.8330    2.5742 H         1 J28         0.0541
     37 H          18.2890   -1.5660    1.1424 H         1 J28         0.0438
     38 H          15.4681   -1.4219    6.6645 H         1 J28         0.0640
     39 H          11.3935    1.0365    7.9793 H         1 J28         0.0505
@<TRIPOS>BOND
     1    1   12 ar 
     2    1   14 ar 
     3    1   15 ar 
     4   22    1 1  
     5    2    3 2  
     6    5    2 1  
     7    3    4 1  
     8    4   16 ar 
     9    4   17 ar 
    10   20    5 ar 
    11    5   21 ar 
    12   13    6 1  
    13    7   10 1  
    14   22    7 ar 
    15    7   23 ar 
    16   16    8 1  
    17   19    9 1  
    18   21   11 1  
    19   18   13 ar 
    20   19   13 ar 
    21   16   18 ar 
    22   17   19 ar 
    23   20   22 ar 
    24   21   23 ar 
    25    6   24 1  
    26    8   25 1  
    27    8   26 1  
    28    9   27 1  
    29    9   28 1  
    30    9   29 1  
    31   10   30 1  
    32   10   31 1  
    33   10   32 1  
    34   11   33 1  
    35   11   34 1  
    36   11   35 1  
    37   17   36 1  
    38   18   37 1  
    39   20   38 1  
    40   23   39 1  
@<TRIPOS>SUBSTRUCTURE
     1 J28         1

