### 
### Created by X-TOOL on Mon Sep 10 21:13:08 2018
### 

@<TRIPOS>MOLECULE
2l98_ligand
   29    30     1     0     0
SMALL
GAST_HUCK


@<TRIPOS>ATOM
      1 C1         12.7300   11.8610   -1.7970 C.ar      1 STL         0.0782
      2 C2         13.3170   10.7280   -2.3930 C.ar      1 STL        -0.0066
      3 C3         12.8400   10.2530   -3.6240 C.ar      1 STL         0.0782
      4 C4         11.7720   10.9100   -4.2650 C.ar      1 STL        -0.0400
      5 C5         11.1720   12.0350   -3.6750 C.ar      1 STL        -0.0478
      6 C6         11.6570   12.5180   -2.4460 C.ar      1 STL        -0.0400
      7 C7         10.0860   12.6830   -4.2500 C.2       1 STL        -0.0650
      8 C8          8.9780   13.1850   -3.5440 C.2       1 STL        -0.0614
      9 C9          7.8680   13.8500   -4.0490 C.ar      1 STL        -0.0332
     10 C10         7.8860   14.5780   -5.2630 C.ar      1 STL        -0.0606
     11 C11         6.7190   15.2540   -5.6950 C.ar      1 STL        -0.0298
     12 C12         5.5600   15.1730   -4.8880 C.ar      1 STL         0.0914
     13 C13         5.5330   14.4450   -3.6770 C.ar      1 STL        -0.0298
     14 C14         6.6960   13.7790   -3.2560 C.ar      1 STL        -0.0606
     15 O1          4.4330   15.8130   -5.2900 O.3       1 STL        -0.3305
     16 O2         13.4000    9.1600   -4.2060 O.3       1 STL        -0.3363
     17 O3         13.1880   12.3230   -0.6100 O.3       1 STL        -0.3363
     18 H          14.1435   10.2191   -1.8970 H         1 STL         0.0461
     19 H          11.4086   10.5434   -5.2250 H         1 STL         0.0441
     20 H          11.2055   13.4003   -1.9923 H         1 STL         0.0441
     21 H          10.0932   12.8124   -5.3323 H         1 STL         0.0564
     22 H           8.9921   13.0331   -2.4647 H         1 STL         0.0617
     23 H           8.7950   14.6181   -5.8632 H         1 STL         0.0608
     24 H           6.7140   15.8220   -6.6253 H         1 STL         0.0554
     25 H           4.6231   14.4009   -3.0784 H         1 STL         0.0554
     26 H           6.6968   13.2114   -2.3255 H         1 STL         0.0608
     27 H           4.6004   16.2611   -6.1223 H         1 STL         0.2500
     28 H          14.1093    8.8305   -3.6493 H         1 STL         0.2476
     29 H          13.9115   11.7681   -0.3095 H         1 STL         0.2476
@<TRIPOS>BOND
     1    1    2 ar 
     2    1    6 ar 
     3    1   17 1  
     4    2    3 ar 
     5    3    4 ar 
     6    3   16 1  
     7    4    5 ar 
     8    5    6 ar 
     9    5    7 1  
    10    7    8 2  
    11    8    9 1  
    12    9   10 ar 
    13    9   14 ar 
    14   10   11 ar 
    15   11   12 ar 
    16   12   13 ar 
    17   12   15 1  
    18   13   14 ar 
    19    2   18 1  
    20    4   19 1  
    21    6   20 1  
    22    7   21 1  
    23    8   22 1  
    24   10   23 1  
    25   11   24 1  
    26   13   25 1  
    27   14   26 1  
    28   15   27 1  
    29   16   28 1  
    30   17   29 1  
@<TRIPOS>SUBSTRUCTURE
     1 STL         1

