### 
### Created by X-TOOL on Mon Sep 10 21:13:12 2018
### 

@<TRIPOS>MOLECULE
2lbv_ligand
   61    60     1     0     0
SMALL
GAST_HUCK


@<TRIPOS>ATOM
      1 C1          0.5020   11.5810  -11.4880 C.2       1 ACD         0.0348
      2 C2          0.7410   10.8170  -10.1840 C.3       1 ACD         0.0002
      3 C3         -0.6140   10.5120   -9.5430 C.3       1 ACD        -0.0414
      4 C4         -0.4290    9.8300   -8.1850 C.3       1 ACD        -0.0516
      5 C5         -1.8050    9.6410   -7.5420 C.3       1 ACD        -0.0530
      6 C6         -1.9320    9.3900   -6.0380 C.3       1 ACD        -0.0531
      7 C7         -0.6800    9.3270   -5.1610 C.3       1 ACD        -0.0531
      8 C8         -0.0530    7.9360   -5.2780 C.3       1 ACD        -0.0531
      9 C9          0.1710    7.0640   -4.0400 C.3       1 ACD        -0.0531
     10 C10        -0.2240    7.5580   -2.6470 C.3       1 ACD        -0.0531
     11 C11        -1.0690    6.4970   -1.9370 C.3       1 ACD        -0.0531
     12 C12        -0.5740    5.8410   -0.6450 C.3       1 ACD        -0.0531
     13 C13         0.7750    6.2300   -0.0360 C.3       1 ACD        -0.0531
     14 C14         0.6250    7.6550    0.5020 C.3       1 ACD        -0.0531
     15 C15         1.8200    8.6110    0.5030 C.3       1 ACD        -0.0531
     16 C16         3.1780    8.1510   -0.0320 C.3       1 ACD        -0.0531
     17 C17         3.0830    7.9070   -1.5390 C.3       1 ACD        -0.0531
     18 C18         2.6300    9.1830   -2.2530 C.3       1 ACD        -0.0533
     19 C19         2.4460    8.8700   -3.7390 C.3       1 ACD        -0.0559
     20 C20         2.0630   10.1300   -4.5170 C.3       1 ACD        -0.0653
     21 O1         -0.5740   12.2120  -11.5850 O.co2     1 ACD        -0.5690
     22 O2          1.3970   11.5170  -12.3580 O.co2     1 ACD        -0.5690
     23 H           1.3456   11.4194   -9.5060 H         1 ACD         0.0430
     24 H           1.2722    9.8877  -10.3899 H         1 ACD         0.0430
     25 H          -1.1720    9.8444  -10.1995 H         1 ACD         0.0283
     26 H          -1.1532   11.4479   -9.3967 H         1 ACD         0.0283
     27 H           0.1993   10.4468   -7.5425 H         1 ACD         0.0266
     28 H           0.0543    8.8622   -8.3185 H         1 ACD         0.0266
     29 H          -2.1921    8.7305   -7.9995 H         1 ACD         0.0265
     30 H          -2.3074   10.5957   -7.6980 H         1 ACD         0.0265
     31 H          -2.3647    8.3922   -5.9651 H         1 ACD         0.0265
     32 H          -2.4818   10.2538   -5.6643 H         1 ACD         0.0265
     33 H          -0.9505    9.5201   -4.1229 H         1 ACD         0.0265
     34 H           0.0359   10.0798   -5.4909 H         1 ACD         0.0265
     35 H           0.9532    8.1305   -5.6492 H         1 ACD         0.0265
     36 H          -0.7721    7.3716   -5.8717 H         1 ACD         0.0265
     37 H           1.2542    6.9560   -3.9850 H         1 ACD         0.0265
     38 H          -0.4713    6.1991   -4.2059 H         1 ACD         0.0265
     39 H          -0.8052    8.4751   -2.7426 H         1 ACD         0.0265
     40 H           0.6774    7.7482   -2.0644 H         1 ACD         0.0265
     41 H          -1.1210    5.6751   -2.6510 H         1 ACD         0.0265
     42 H          -1.9710    7.0305   -1.6372 H         1 ACD         0.0265
     43 H          -0.4536    4.7904   -0.9093 H         1 ACD         0.0265
     44 H          -1.3029    6.1476    0.1052 H         1 ACD         0.0265
     45 H           1.5660    6.1802   -0.7843 H         1 ACD         0.0265
     46 H           1.0516    5.5420    0.7629 H         1 ACD         0.0265
     47 H           0.3860    7.5211    1.5570 H         1 ACD         0.0265
     48 H          -0.0940    8.1228   -0.1706 H         1 ACD         0.0265
     49 H           2.0010    8.8156    1.5582 H         1 ACD         0.0265
     50 H           1.5229    9.4149   -0.1705 H         1 ACD         0.0265
     51 H           3.4679    7.2258    0.4661 H         1 ACD         0.0265
     52 H           3.9231    8.9224    0.1627 H         1 ACD         0.0265
     53 H           2.3575    7.1157   -1.7275 H         1 ACD         0.0265
     54 H           4.0634    7.6158   -1.9160 H         1 ACD         0.0265
     55 H           3.3792    9.9648   -2.1279 H         1 ACD         0.0265
     56 H           1.6894    9.5329   -1.8277 H         1 ACD         0.0265
     57 H           1.6486    8.1347   -3.8469 H         1 ACD         0.0263
     58 H           3.3852    8.4843   -4.1356 H         1 ACD         0.0263
     59 H           1.1280   10.5285   -4.1232 H         1 ACD         0.0230
     60 H           2.8510   10.8754   -4.4096 H         1 ACD         0.0230
     61 H           1.9380    9.8809   -5.5708 H         1 ACD         0.0230
@<TRIPOS>BOND
     1    1    2 1  
     2    1   21 ar 
     3    1   22 ar 
     4    2    3 1  
     5    3    4 1  
     6    4    5 1  
     7    5    6 1  
     8    6    7 1  
     9    7    8 1  
    10    8    9 1  
    11    9   10 1  
    12   10   11 1  
    13   11   12 1  
    14   12   13 1  
    15   13   14 1  
    16   14   15 1  
    17   15   16 1  
    18   16   17 1  
    19   17   18 1  
    20   18   19 1  
    21   19   20 1  
    22    2   23 1  
    23    2   24 1  
    24    3   25 1  
    25    3   26 1  
    26    4   27 1  
    27    4   28 1  
    28    5   29 1  
    29    5   30 1  
    30    6   31 1  
    31    6   32 1  
    32    7   33 1  
    33    7   34 1  
    34    8   35 1  
    35    8   36 1  
    36    9   37 1  
    37    9   38 1  
    38   10   39 1  
    39   10   40 1  
    40   11   41 1  
    41   11   42 1  
    42   12   43 1  
    43   12   44 1  
    44   13   45 1  
    45   13   46 1  
    46   14   47 1  
    47   14   48 1  
    48   15   49 1  
    49   15   50 1  
    50   16   51 1  
    51   16   52 1  
    52   17   53 1  
    53   17   54 1  
    54   18   55 1  
    55   18   56 1  
    56   19   57 1  
    57   19   58 1  
    58   20   59 1  
    59   20   60 1  
    60   20   61 1  
@<TRIPOS>SUBSTRUCTURE
     1 ACD         1

