### 
### Created by X-TOOL on Mon Sep 10 21:13:12 2018
### 

@<TRIPOS>MOLECULE
2liq_ligand
   80    82     1     0     0
SMALL
GAST_HUCK


@<TRIPOS>ATOM
      1 C1         59.3340  -11.9570   22.3000 C.3       1 NAG         0.1854
      2 C2         58.6860  -11.8700   23.6920 C.3       1 NAG         0.1210
      3 C3         58.7650  -13.2370   24.3930 C.3       1 NAG         0.1111
      4 C4         58.1510  -14.3440   23.5210 C.3       1 NAG         0.1116
      5 C5         58.7300  -14.3410   22.0970 C.3       1 NAG         0.1130
      6 C6         57.9870  -15.2960   21.1620 C.3       1 NAG         0.0730
      7 C7         58.8930   -9.6760   24.8050 C.2       1 NAG         0.1733
      8 C8         59.8230   -8.7930   25.6440 C.3       1 NAG         0.0257
      9 N2         59.3840  -10.8730   24.5080 N.am      1 NAG        -0.2766
     10 O3         58.0670  -13.1900   25.6680 O.3       1 NAG        -0.3867
     11 O4         58.4420  -15.6170   24.1390 O.3       1 NAG        -0.3865
     12 O5         58.6220  -12.9760   21.5270 O.3       1 NAG        -0.3408
     13 O6         58.4020  -15.0310   19.8040 O.3       1 NAG        -0.3924
     14 O7         57.7790   -9.3030   24.4430 O.2       1 NAG        -0.3974
     15 C1         61.0960   -9.0140   18.1540 C.3       1 MAG         0.1846
     16 C2         59.7010   -9.6630   17.9660 C.3       1 MAG         0.1213
     17 C3         59.0030   -9.9650   19.3110 C.3       1 MAG         0.1179
     18 C4         59.9530  -10.6000   20.3350 C.3       1 MAG         0.1185
     19 C5         61.2220   -9.7640   20.4980 C.3       1 MAG         0.1134
     20 C6         62.2320  -10.2970   21.5190 C.3       1 MAG         0.0730
     21 C7         58.5550   -8.9270   15.8850 C.2       1 MAG         0.1733
     22 C8         57.7930   -7.7550   15.2190 C.3       1 MAG         0.0257
     23 N2         58.8620   -8.7590   17.1680 N.am      1 MAG        -0.2766
     24 O1         61.8190   -9.0190   16.8750 O.3       1 MAG        -0.3522
     25 O3         57.8910  -10.9230   19.1120 O.3       1 MAG        -0.3403
     26 O4         59.2510  -10.6540   21.6300 O.3       1 MAG        -0.3404
     27 O5         61.8740   -9.7240   19.1760 O.3       1 MAG        -0.3408
     28 O6         63.3470   -9.3860   21.5900 O.3       1 MAG        -0.3924
     29 O7         58.8610   -9.9470   15.2690 O.2       1 MAG        -0.3974
     30 CM         63.1450   -8.3880   16.9300 C.3       1 MAG         0.0395
     31 C1         56.5670  -10.3680   18.7820 C.3       1 FUC         0.1883
     32 C2         55.6090  -11.5180   18.3750 C.3       1 FUC         0.1341
     33 C3         55.2790  -12.3930   19.5960 C.3       1 FUC         0.1140
     34 C4         54.6960  -11.5530   20.7320 C.3       1 FUC         0.1095
     35 C5         55.6900  -10.4380   21.1130 C.3       1 FUC         0.0873
     36 C6         55.2390   -9.5350   22.2560 C.3       1 FUC        -0.0361
     37 O2         56.2140  -12.3600   17.3440 O.3       1 FUC        -0.3841
     38 O3         54.3110  -13.4130   19.2460 O.3       1 FUC        -0.3864
     39 O4         53.4080  -11.0320   20.3160 O.3       1 FUC        -0.3866
     40 O5         56.0140   -9.6060   19.9270 O.3       1 FUC        -0.3431
     41 H          60.3862  -12.2280   22.3867 H         1 NAG         0.0935
     42 H          57.6423  -11.5788   23.5738 H         1 NAG         0.0633
     43 H          59.8181  -13.4642   24.5585 H         1 NAG         0.0645
     44 H          57.0777  -14.1694   23.4456 H         1 NAG         0.0647
     45 H          59.7673  -14.6669   22.1740 H         1 NAG         0.0647
     46 H          56.9117  -15.1449   21.2567 H         1 NAG         0.0584
     47 H          58.2195  -16.3278   21.4255 H         1 NAG         0.0584
     48 H          60.0433   -7.8765   25.0966 H         1 NAG         0.0467
     49 H          59.3348   -8.5462   26.5868 H         1 NAG         0.0467
     50 H          60.7501   -9.3304   25.8433 H         1 NAG         0.0467
     51 H          60.3062  -11.1142   24.8710 H         1 NAG         0.1857
     52 H          58.4483  -12.4994   26.2150 H         1 NAG         0.2100
     53 H          58.0839  -15.6284   25.0296 H         1 NAG         0.2100
     54 H          58.1909  -14.1222   19.5776 H         1 NAG         0.2095
     55 H          60.9573   -7.9861   18.4892 H         1 NAG         0.0934
     56 H          59.8407  -10.6162   17.4562 H         1 NAG         0.0633
     57 H          58.6478   -9.0050   19.6855 H         1 NAG         0.0649
     58 H          60.2383  -11.5948   19.9929 H         1 NAG         0.0651
     59 H          60.9171   -8.7884   20.8765 H         1 NAG         0.0647
     60 H          62.5804  -11.2835   21.2131 H         1 NAG         0.0584
     61 H          61.7592  -10.3786   22.4977 H         1 NAG         0.0584
     62 H          58.3811   -7.3669   14.3874 H         1 NAG         0.0467
     63 H          56.8312   -8.1115   14.8504 H         1 NAG         0.0467
     64 H          57.6323   -6.9646   15.9521 H         1 NAG         0.0467
     65 H          58.4841   -7.9353   17.6361 H         1 NAG         0.1857
     66 H          63.7609   -9.3206   20.7262 H         1 NAG         0.2095
     67 H          63.0381   -7.3466   17.2336 H         1 NAG         0.0525
     68 H          63.7676   -8.9162   17.6521 H         1 NAG         0.0525
     69 H          63.6094   -8.4348   15.9450 H         1 NAG         0.0525
     70 H          56.6718   -9.6785   17.9443 H         1 NAG         0.0938
     71 H          54.6971  -11.0677   17.9829 H         1 NAG         0.0671
     72 H          56.2105  -12.8557   19.9220 H         1 NAG         0.0648
     73 H          54.5387  -12.1599   21.6236 H         1 NAG         0.0646
     74 H          56.5736  -10.9632   21.4757 H         1 NAG         0.0621
     75 H          54.3063   -9.0421   21.9816 H         1 NAG         0.0255
     76 H          55.0841  -10.1356   23.1523 H         1 NAG         0.0255
     77 H          56.0054   -8.7841   22.4482 H         1 NAG         0.0255
     78 H          57.0175  -12.7572   17.6877 H         1 NAG         0.2101
     79 H          53.4949  -12.9943   18.9627 H         1 NAG         0.2100
     80 H          53.5254  -10.4659   19.5496 H         1 NAG         0.2100
@<TRIPOS>BOND
     1    1    2 1  
     2    1   12 1  
     3   26    1 1  
     4    2    3 1  
     5    2    9 1  
     6    3    4 1  
     7    3   10 1  
     8    5    4 1  
     9    4   11 1  
    10    5    6 1  
    11   12    5 1  
    12    6   13 1  
    13    7    8 1  
    14    9    7 am 
    15    7   14 2  
    16   16   15 1  
    17   15   24 1  
    18   15   27 1  
    19   16   17 1  
    20   23   16 1  
    21   17   18 1  
    22   17   25 1  
    23   18   19 1  
    24   18   26 1  
    25   19   20 1  
    26   27   19 1  
    27   20   28 1  
    28   21   22 1  
    29   21   23 am 
    30   21   29 2  
    31   24   30 1  
    32   25   31 1  
    33   31   32 1  
    34   31   40 1  
    35   32   33 1  
    36   32   37 1  
    37   33   34 1  
    38   33   38 1  
    39   34   35 1  
    40   34   39 1  
    41   35   36 1  
    42   35   40 1  
    43    1   41 1  
    44    2   42 1  
    45    3   43 1  
    46    4   44 1  
    47    5   45 1  
    48    6   46 1  
    49    6   47 1  
    50    8   48 1  
    51    8   49 1  
    52    8   50 1  
    53    9   51 1  
    54   10   52 1  
    55   11   53 1  
    56   13   54 1  
    57   15   55 1  
    58   16   56 1  
    59   17   57 1  
    60   18   58 1  
    61   19   59 1  
    62   20   60 1  
    63   20   61 1  
    64   22   62 1  
    65   22   63 1  
    66   22   64 1  
    67   23   65 1  
    68   28   66 1  
    69   30   67 1  
    70   30   68 1  
    71   30   69 1  
    72   31   70 1  
    73   32   71 1  
    74   33   72 1  
    75   34   73 1  
    76   35   74 1  
    77   36   75 1  
    78   36   76 1  
    79   36   77 1  
    80   37   78 1  
    81   38   79 1  
    82   39   80 1  
@<TRIPOS>SUBSTRUCTURE
     1 NAG         1

