### 
### Created by X-TOOL on Mon Sep 10 21:13:08 2018
### 

@<TRIPOS>MOLECULE
2lk1_ligand
   27    29     1     0     0
SMALL
GAST_HUCK


@<TRIPOS>ATOM
      1 C1          2.0180    1.5930    7.9320 C.ar      1 AQN        -0.0165
      2 C2          0.9010    1.9120    8.7100 C.ar      1 AQN         0.0536
      3 C3         -0.4410    2.1610    8.0590 C.2       1 AQN         0.1688
      4 O3         -0.5390    2.1550    6.8430 O.2       1 AQN        -0.3611
      5 C4         -1.6610    2.4250    8.9130 C.ar      1 AQN         0.0519
      6 C5         -2.9090    2.6280    8.3190 C.ar      1 AQN        -0.0384
      7 C6         -4.0380    2.8450    9.1140 C.ar      1 AQN        -0.0520
      8 C7         -3.9170    2.8680   10.5060 C.ar      1 AQN        -0.0520
      9 C8         -2.6690    2.6790   11.1000 C.ar      1 AQN        -0.0384
     10 C9         -1.5420    2.4630   10.3050 C.ar      1 AQN         0.0519
     11 C10        -0.1890    2.2720   10.9510 C.2       1 AQN         0.1687
     12 O10        -0.0820    2.3300   12.1660 O.2       1 AQN        -0.3611
     13 C11         1.0320    2.0110   10.0970 C.ar      1 AQN         0.0520
     14 C12         2.2900    1.8650   10.6870 C.ar      1 AQN        -0.0367
     15 C13         3.4180    1.6450    9.8930 C.ar      1 AQN        -0.0301
     16 C14         3.2870    1.5180    8.5100 C.ar      1 AQN         0.0610
     17 S15         4.7330    1.3150    7.4940 S.o2      1 AQN        -0.1600
     18 OS1         5.7560    0.6260    8.2560 O.co2     1 AQN        -0.4792
     19 OS2         4.3120    0.7800    6.2220 O.co2     1 AQN        -0.4792
     20 OS3         5.1740    2.7350    7.2840 O.co2     1 AQN        -0.4792
     21 H           1.8974    1.4013    6.8658 H         1 AQN         0.0700
     22 H          -3.0026    2.6171    7.2331 H         1 AQN         0.0682
     23 H          -5.0120    2.9962    8.6486 H         1 AQN         0.0664
     24 H          -4.7972    3.0335   11.1272 H         1 AQN         0.0664
     25 H          -2.5738    2.7000   12.1856 H         1 AQN         0.0682
     26 H           2.3916    1.9230   11.7707 H         1 AQN         0.0683
     27 H           4.4026    1.5724   10.3550 H         1 AQN         0.0682
@<TRIPOS>BOND
     1    1    2 ar 
     2    1   16 ar 
     3    2    3 1  
     4    2   13 ar 
     5    3    4 2  
     6    3    5 1  
     7    5    6 ar 
     8    5   10 ar 
     9    6    7 ar 
    10    7    8 ar 
    11    8    9 ar 
    12    9   10 ar 
    13   10   11 1  
    14   11   12 2  
    15   11   13 1  
    16   13   14 ar 
    17   14   15 ar 
    18   15   16 ar 
    19   16   17 1  
    20   17   18 ar 
    21   17   19 ar 
    22   17   20 ar 
    23    1   21 1  
    24    6   22 1  
    25    7   23 1  
    26    8   24 1  
    27    9   25 1  
    28   14   26 1  
    29   15   27 1  
@<TRIPOS>SUBSTRUCTURE
     1 AQN         1

