### 
### Created by X-TOOL on Mon Sep 10 21:13:12 2018
### 

@<TRIPOS>MOLECULE
2lkk_ligand
   53    52     1     0     0
SMALL
GAST_HUCK


@<TRIPOS>ATOM
      1 C1          5.9110   10.1180   14.5090 C.2       1 OLA         0.0348
      2 O1          5.7820   11.1030   15.2700 O.co2     1 OLA        -0.5690
      3 O2          6.9650    9.8990   13.8730 O.co2     1 OLA        -0.5690
      4 C2          4.6890    9.2500   14.2380 C.3       1 OLA         0.0002
      5 C3          3.9120    9.5620   12.9390 C.3       1 OLA        -0.0414
      6 C4          4.5500    9.0000   11.6560 C.3       1 OLA        -0.0515
      7 C5          3.7700    9.3350   10.3700 C.3       1 OLA        -0.0528
      8 C6          2.4380    8.5740   10.2260 C.3       1 OLA        -0.0515
      9 C7          1.7220    8.8790    8.8990 C.3       1 OLA        -0.0464
     10 C8          0.3750    8.1400    8.7990 C.3       1 OLA        -0.0365
     11 C9         -0.3550    8.4820    7.5180 C.2       1 OLA        -0.0987
     12 C10        -0.3670    7.7830    6.3770 C.2       1 OLA        -0.0987
     13 C11         0.3460    6.4730    6.0940 C.3       1 OLA        -0.0365
     14 C12        -0.0250    5.8900    4.7180 C.3       1 OLA        -0.0464
     15 C13         0.6390    4.5370    4.4030 C.3       1 OLA        -0.0515
     16 C14         0.3480    4.1240    2.9490 C.3       1 OLA        -0.0529
     17 C15         0.9510    2.7680    2.5490 C.3       1 OLA        -0.0531
     18 C16         0.6600    2.4390    1.0700 C.3       1 OLA        -0.0533
     19 C17         1.3860    1.1840    0.5550 C.3       1 OLA        -0.0559
     20 C18         0.7150   -0.1350    0.9630 C.3       1 OLA        -0.0653
     21 H1          3.9952    9.3721   15.0828 H         1 OLA         0.0430
     22 H2          5.0240    8.2035   14.1868 H         1 OLA         0.0430
     23 H3          3.8418   10.6549   12.8361 H         1 OLA         0.0283
     24 H4          2.9019    9.1369   13.0337 H         1 OLA         0.0283
     25 H5          4.6090    7.9056   11.7496 H         1 OLA         0.0266
     26 H6          5.5644    9.4153   11.5634 H         1 OLA         0.0266
     27 H7          4.4046    9.0869    9.5065 H         1 OLA         0.0265
     28 H8          3.5536   10.4135   10.3682 H         1 OLA         0.0265
     29 H9          1.7768    8.8610   11.0569 H         1 OLA         0.0267
     30 H10         2.6421    7.4943   10.2759 H         1 OLA         0.0267
     31 H11         2.3656    8.5623    8.0651 H         1 OLA         0.0285
     32 H12         1.5409    9.9619    8.8317 H         1 OLA         0.0285
     33 H13        -0.2535    8.4262    9.6552 H         1 OLA         0.0388
     34 H14         0.5598    7.0560    8.8259 H         1 OLA         0.0388
     35 H15        -0.9371    9.4023    7.5258 H         1 OLA         0.0450
     36 H16        -0.9538    8.2005    5.5602 H         1 OLA         0.0450
     37 H17         0.0710    5.7455    6.8719 H         1 OLA         0.0388
     38 H18         1.4316    6.6479    6.1228 H         1 OLA         0.0388
     39 H19         0.2790    6.6111    3.9450 H         1 OLA         0.0285
     40 H20        -1.1161    5.7544    4.6842 H         1 OLA         0.0285
     41 H21         0.2414    3.7704    5.0843 H         1 OLA         0.0267
     42 H22         1.7263    4.6249    4.5444 H         1 OLA         0.0267
     43 H23         0.7599    4.8954    2.2817 H         1 OLA         0.0265
     44 H24        -0.7427    4.0693    2.8171 H         1 OLA         0.0265
     45 H25         0.5161    1.9815    3.1832 H         1 OLA         0.0265
     46 H26         2.0399    2.8013    2.7010 H         1 OLA         0.0265
     47 H27         0.9735    3.2965    0.4564 H         1 OLA         0.0265
     48 H28        -0.4230    2.2834    0.9566 H         1 OLA         0.0265
     49 H29         2.4111    1.1888    0.9540 H         1 OLA         0.0263
     50 H30         1.4198    1.2299   -0.5435 H         1 OLA         0.0263
     51 H31         1.2913   -0.9800    0.5583 H         1 OLA         0.0230
     52 H32        -0.3092   -0.1646    0.5628 H         1 OLA         0.0230
     53 H33         0.6821   -0.2056    2.0602 H         1 OLA         0.0230
@<TRIPOS>BOND
     1    1    2 ar 
     2    1    3 ar 
     3    1    4 1  
     4    4    5 1  
     5    5    6 1  
     6    6    7 1  
     7    7    8 1  
     8    8    9 1  
     9    9   10 1  
    10   10   11 1  
    11   11   12 2  
    12   12   13 1  
    13   13   14 1  
    14   14   15 1  
    15   15   16 1  
    16   16   17 1  
    17   17   18 1  
    18   18   19 1  
    19   19   20 1  
    20    4   21 1  
    21    4   22 1  
    22    5   23 1  
    23    5   24 1  
    24    6   25 1  
    25    6   26 1  
    26    7   27 1  
    27    7   28 1  
    28    8   29 1  
    29    8   30 1  
    30    9   31 1  
    31    9   32 1  
    32   10   33 1  
    33   10   34 1  
    34   11   35 1  
    35   12   36 1  
    36   13   37 1  
    37   13   38 1  
    38   14   39 1  
    39   14   40 1  
    40   15   41 1  
    41   15   42 1  
    42   16   43 1  
    43   16   44 1  
    44   17   45 1  
    45   17   46 1  
    46   18   47 1  
    47   18   48 1  
    48   19   49 1  
    49   19   50 1  
    50   20   51 1  
    51   20   52 1  
    52   20   53 1  
@<TRIPOS>SUBSTRUCTURE
     1 OLA         1

