### 
### Created by X-TOOL on Mon Sep 10 21:13:16 2018
### 

@<TRIPOS>MOLECULE
2lwi_ligand
   34    35     1     0     0
SMALL
GAST_HUCK


@<TRIPOS>ATOM
      1 C13         6.9880  -13.7700    6.3420 C.ar      1 KOB        -0.0020
      2 C12         6.7130  -12.4180    6.5160 C.ar      1 KOB        -0.0100
      3 C11         5.6770  -12.0240    7.3560 C.ar      1 KOB         0.1494
      4 F11         5.4150  -10.7140    7.5350 F         1 KOB        -0.1695
      5 C10         4.9160  -12.9800    8.0180 C.ar      1 KOB        -0.0100
      6 C9          5.1910  -14.3310    7.8420 C.ar      1 KOB        -0.0020
      7 C8          6.2290  -14.7280    7.0050 C.ar      1 KOB         0.1387
      8 N8          6.5120  -16.0160    6.8230 N.pl3     1 KOB        -0.1466
      9 C7          5.8220  -16.9780    7.4310 C.2       1 KOB         0.4101
     10 S7          4.5090  -16.5970    8.5240 S.3       1 KOB         0.0398
     11 N7          6.1360  -18.2530    7.2210 N.2       1 KOB         0.1013
     12 N6          7.0600  -18.5580    6.4680 N.pl3     1 KOB        -0.0669
     13 C6          6.8120  -18.8480    5.1930 C.ar      1 KOB         0.2270
     14 C5          5.5070  -18.7960    4.7160 C.ar      1 KOB         0.0297
     15 C4          5.2490  -19.1090    3.3860 C.ar      1 KOB         0.0059
     16 C3          6.2880  -19.4690    2.5370 C.ar      1 KOB         0.1657
     17 N3          6.0330  -19.7780    1.2680 N.2       1 KOB         0.0587
     18 O3B         7.0950  -20.1450    0.3990 O.2       1 KOB        -0.1419
     19 O3A         4.6980  -19.7410    0.7840 O.2       1 KOB        -0.1419
     20 C2          7.5920  -19.5160    3.0150 C.ar      1 KOB         0.0391
     21 C1          7.8540  -19.2050    4.3450 C.ar      1 KOB         0.2202
     22 N1          9.1030  -19.2560    4.8010 N.2       1 KOB         0.0601
     23 O1B         9.3800  -18.9460    6.1600 O.2       1 KOB        -0.1447
     24 O1A        10.1620  -19.6230    3.9280 O.2       1 KOB        -0.1447
     25 H1          7.7959  -14.0777    5.6880 H         1 KOB         0.0715
     26 H2          7.3052  -11.6724    5.9978 H         1 KOB         0.0655
     27 H3          4.1079  -12.6720    8.6716 H         1 KOB         0.0655
     28 H4          4.5960  -15.0762    8.3575 H         1 KOB         0.0715
     29 H5          7.2859  -16.2750    6.1946 H         1 KOB         0.2990
     30 H6          4.1126  -17.4519    8.8820 H         1 KOB         0.1582
     31 H7          8.0258  -18.5889    6.8245 H         1 KOB         0.3585
     32 H8          4.6957  -18.5132    5.3769 H         1 KOB         0.0832
     33 H9          4.2329  -19.0720    3.0101 H         1 KOB         0.0787
     34 H10         8.4035  -19.7945    2.3525 H         1 KOB         0.0829
@<TRIPOS>BOND
     1    1    2 ar 
     2    1    7 ar 
     3    2    3 ar 
     4    3    4 1  
     5    3    5 ar 
     6    5    6 ar 
     7    6    7 ar 
     8    7    8 1  
     9    8    9 1  
    10    9   10 1  
    11    9   11 2  
    12   11   12 1  
    13   12   13 1  
    14   13   14 ar 
    15   13   21 ar 
    16   14   15 ar 
    17   15   16 ar 
    18   16   17 1  
    19   16   20 ar 
    20   17   18 2  
    21   17   19 2  
    22   20   21 ar 
    23   21   22 1  
    24   22   23 2  
    25   22   24 2  
    26    1   25 1  
    27    2   26 1  
    28    5   27 1  
    29    6   28 1  
    30    8   29 1  
    31   10   30 1  
    32   12   31 1  
    33   14   32 1  
    34   15   33 1  
    35   20   34 1  
@<TRIPOS>SUBSTRUCTURE
     1 KOB         1

