### 
### Created by X-TOOL on Mon Sep 10 21:13:16 2018
### 

@<TRIPOS>MOLECULE
2ly0_ligand
   45    49     1     0     0
SMALL
GAST_HUCK


@<TRIPOS>ATOM
      1 O           0.5140   11.4390   -0.8780 O.3       1 A2Y        -0.1786
      2 S           0.5640   14.0600    0.2650 S.3       1 A2Y        -0.0358
      3 C1          0.5300   14.9720    1.4070 C.2       1 A2Y        -0.0051
      4 N1          0.2990   10.1870   -1.2340 N.2       1 A2Y        -0.1543
      5 C2          0.2360   14.3530    2.5530 C.2       1 A2Y        -0.0731
      6 N2          0.2070    7.3590    0.6510 N.4       1 A2Y         0.2423
      7 C3          0.0590   13.0540    2.3000 C.2       1 A2Y        -0.0643
      8 C4         -0.3360   10.3910    0.7470 C.2       1 A2Y        -0.0183
      9 C5         -0.5770    8.0870   -0.3530 C.3       1 A2Y         0.0059
     10 C9         -0.2090    9.5420   -0.2780 C.2       1 A2Y         0.0700
     11 C10         0.1980    5.8760    0.6400 C.3       1 A2Y        -0.0098
     12 C11         0.1450   11.5900    0.2960 C.2       1 A2Y         0.1596
     13 C12         0.2370   12.8020    0.9660 C.2       1 A2Y         0.0720
     14 C61        -1.2250    5.2940    0.8890 C.3       1 A2Y        -0.0040
     15 C62         1.1140    5.3170    1.7630 C.3       1 A2Y        -0.0040
     16 C63         0.7170    5.2870   -0.7080 C.3       1 A2Y        -0.0040
     17 C71        -1.2070    3.7470    0.8980 C.3       1 A2Y        -0.0352
     18 C72         1.1260    3.7730    1.7740 C.3       1 A2Y        -0.0352
     19 C73         0.7230    3.7430   -0.6850 C.3       1 A2Y        -0.0352
     20 C81        -0.2880    3.2390    2.0150 C.3       1 A2Y        -0.0469
     21 C82         1.6420    3.2390    0.4340 C.3       1 A2Y        -0.0469
     22 C83        -0.7000    3.2210   -0.4500 C.3       1 A2Y        -0.0469
     23 H1          0.7236   16.0410    1.3312 H         1 A2Y         0.0750
     24 H2          0.1543   14.8278    3.5297 H         1 A2Y         0.0428
     25 H3         -0.1309    7.6488    1.5554 H         1 A2Y         0.2032
     26 H4          1.1664    7.6485    0.5421 H         1 A2Y         0.2032
     27 H5         -0.1911   12.3026    3.0475 H         1 A2Y         0.0449
     28 H6         -0.7385   10.1735    1.7352 H         1 A2Y         0.0373
     29 H7         -1.6505    7.9642   -0.1468 H         1 A2Y         0.0965
     30 H8         -0.3494    7.6975   -1.3562 H         1 A2Y         0.0965
     31 H9         -1.8981    5.6396    0.0906 H         1 A2Y         0.0325
     32 H10        -1.5940    5.6535    1.8609 H         1 A2Y         0.0325
     33 H11         0.7468    5.6776    2.7352 H         1 A2Y         0.0325
     34 H12         2.1395    5.6803    1.6006 H         1 A2Y         0.0325
     35 H13         1.7418    5.6459   -0.8841 H         1 A2Y         0.0325
     36 H14         0.0631    5.6299   -1.5234 H         1 A2Y         0.0325
     37 H15        -2.2280    3.3762    1.0714 H         1 A2Y         0.0303
     38 H16         1.7874    3.4252    2.5812 H         1 A2Y         0.0303
     39 H17         1.0913    3.3694   -1.6518 H         1 A2Y         0.0303
     40 H18        -0.2733    2.1391    2.0097 H         1 A2Y         0.0271
     41 H19        -0.6568    3.5961    2.9878 H         1 A2Y         0.0271
     42 H20         1.6384    2.1391    0.4481 H         1 A2Y         0.0271
     43 H21         2.6666    3.6002    0.2618 H         1 A2Y         0.0271
     44 H22        -1.3603    3.5740   -1.2558 H         1 A2Y         0.0271
     45 H23        -0.6922    2.1211   -0.4376 H         1 A2Y         0.0271
@<TRIPOS>BOND
     1    1    4 1  
     2   12    1 1  
     3    2    3 1  
     4   13    2 1  
     5    5    3 2  
     6   10    4 2  
     7    7    5 1  
     8    9    6 1  
     9    6   11 1  
    10   13    7 2  
    11    8   10 1  
    12   12    8 2  
    13   10    9 1  
    14   11   14 1  
    15   11   15 1  
    16   11   16 1  
    17   12   13 1  
    18   14   17 1  
    19   15   18 1  
    20   16   19 1  
    21   17   20 1  
    22   17   22 1  
    23   18   20 1  
    24   18   21 1  
    25   19   21 1  
    26   19   22 1  
    27    3   23 1  
    28    5   24 1  
    29    6   25 1  
    30    6   26 1  
    31    7   27 1  
    32    8   28 1  
    33    9   29 1  
    34    9   30 1  
    35   14   31 1  
    36   14   32 1  
    37   15   33 1  
    38   15   34 1  
    39   16   35 1  
    40   16   36 1  
    41   17   37 1  
    42   18   38 1  
    43   19   39 1  
    44   20   40 1  
    45   20   41 1  
    46   21   42 1  
    47   21   43 1  
    48   22   44 1  
    49   22   45 1  
@<TRIPOS>SUBSTRUCTURE
     1 A2Y         1

