### 
### Created by X-TOOL on Mon Sep 10 21:13:12 2018
### 

@<TRIPOS>MOLECULE
2lzg_ligand
   51    54     1     0     0
SMALL
GAST_HUCK


@<TRIPOS>ATOM
      1 C1          8.1380    3.4730    0.7650 C.ar      1 13Q        -0.0573
      2 C2          7.0500    3.7920   -0.0390 C.ar      1 13Q        -0.0545
      3 C3          5.9270    2.9720   -0.0460 C.ar      1 13Q         0.0330
      4 C4          5.8960    1.8300    0.7460 C.ar      1 13Q        -0.0545
      5 C5          6.9850    1.5120    1.5520 C.ar      1 13Q        -0.0573
      6 C6          8.1050    2.3350    1.5650 C.ar      1 13Q        -0.0153
      7 C7          9.1700    2.0410    2.4100 C.3       1 13Q         0.0909
      8 N1         10.4080    1.7920    1.6370 N.am      1 13Q        -0.2560
      9 O1         12.5850    1.9630    1.3510 O.2       1 13Q        -0.3963
     10 C8         11.6080    2.2300    2.0500 C.2       1 13Q         0.1856
     11 O2         12.2480    6.3480    4.2400 O.co2     1 13Q        -0.5688
     12 C9         11.8000    2.9630    3.2180 C.3       1 13Q         0.0626
     13 C10        10.6370    2.8370    4.1920 C.3       1 13Q        -0.0151
     14 C11         9.3740    3.1630    3.4130 C.3       1 13Q         0.0281
     15 C12         8.2610    3.2700    4.2420 C.ar      1 13Q        -0.0352
     16 C13         8.1450    2.4840    5.3840 C.ar      1 13Q        -0.0597
     17 C14         7.2470    4.1630    3.9160 C.ar      1 13Q        -0.0460
     18 C15         6.1210    4.2700    4.7250 C.ar      1 13Q         0.0338
     19 O3         13.2110    4.4610    4.9260 O.co2     1 13Q        -0.5688
     20 C16         6.0070    3.4840    5.8660 C.ar      1 13Q        -0.0548
     21 C17         7.0210    2.5910    6.1950 C.ar      1 13Q        -0.0680
     22 C18        10.3510    0.8780    0.4730 C.3       1 13Q         0.0394
     23 C19        10.5030    1.7340   -0.7870 C.3       1 13Q        -0.0204
     24 C20        11.7970    1.3100   -1.4730 C.3       1 13Q        -0.0481
     25 C21        10.5050    1.4180   -2.2680 C.3       1 13Q        -0.0481
     26 C22        12.0490    4.4300    2.8530 C.3       1 13Q         0.0201
     27 C23        12.5340    5.1370    4.1210 C.2       1 13Q         0.0373
     28 CL1         4.5530    3.3980   -0.9980 Cl        1 13Q        -0.0771
     29 CL2         4.8610    5.3710    4.3070 Cl        1 13Q        -0.0725
     30 H           9.0186    4.1154    0.7688 H         1 13Q         0.0558
     31 H           7.0771    4.6847   -0.6639 H         1 13Q         0.0606
     32 H           5.0185    1.1835    0.7357 H         1 13Q         0.0606
     33 H           6.9596    0.6169    2.1735 H         1 13Q         0.0558
     34 H           8.9312    1.1290    2.9572 H         1 13Q         0.0748
     35 H          12.6695    2.5535    3.7322 H         1 13Q         0.0558
     36 H          10.7604    3.5194    5.0330 H         1 13Q         0.0320
     37 H          10.5869    1.8305    4.6074 H         1 13Q         0.0320
     38 H           9.4870    4.1284    2.9197 H         1 13Q         0.0508
     39 H           8.9377    1.7823    5.6436 H         1 13Q         0.0558
     40 H           7.3347    4.7817    3.0229 H         1 13Q         0.0562
     41 H           5.1251    3.5675    6.5011 H         1 13Q         0.0565
     42 H           6.9344    1.9744    7.0896 H         1 13Q         0.0599
     43 H           9.4044    0.3378    0.4567 H         1 13Q         0.0527
     44 H          11.1474    0.1360    0.5298 H         1 13Q         0.0527
     45 H           9.9277    2.5355   -0.3235 H         1 13Q         0.0320
     46 H          12.6111    0.6010   -1.3228 H         1 13Q         0.0269
     47 H          12.8339    1.6385   -1.5438 H         1 13Q         0.0269
     48 H          10.1553    1.8671   -3.1976 H         1 13Q         0.0269
     49 H           9.9302    0.8189   -2.9742 H         1 13Q         0.0269
     50 H          11.1349    4.8932    2.4815 H         1 13Q         0.0458
     51 H          12.7948    4.5070    2.0619 H         1 13Q         0.0458
@<TRIPOS>BOND
     1    1    2 ar 
     2    6    1 ar 
     3    2    3 ar 
     4    4    3 ar 
     5    3   28 1  
     6    5    4 ar 
     7    6    5 ar 
     8    7    6 1  
     9    8    7 1  
    10   14    7 1  
    11   10    8 am 
    12    8   22 1  
    13   10    9 2  
    14   12   10 1  
    15   27   11 ar 
    16   12   13 1  
    17   26   12 1  
    18   13   14 1  
    19   14   15 1  
    20   15   16 ar 
    21   15   17 ar 
    22   16   21 ar 
    23   17   18 ar 
    24   18   20 ar 
    25   18   29 1  
    26   27   19 ar 
    27   21   20 ar 
    28   22   23 1  
    29   23   24 1  
    30   23   25 1  
    31   25   24 1  
    32   26   27 1  
    33    1   30 1  
    34    2   31 1  
    35    4   32 1  
    36    5   33 1  
    37    7   34 1  
    38   12   35 1  
    39   13   36 1  
    40   13   37 1  
    41   14   38 1  
    42   16   39 1  
    43   17   40 1  
    44   20   41 1  
    45   21   42 1  
    46   22   43 1  
    47   22   44 1  
    48   23   45 1  
    49   24   46 1  
    50   24   47 1  
    51   25   48 1  
    52   25   49 1  
    53   26   50 1  
    54   26   51 1  
@<TRIPOS>SUBSTRUCTURE
     1 13Q         1

