### 
### Created by X-TOOL on Mon Sep 10 21:13:16 2018
### 

@<TRIPOS>MOLECULE
2m3z_ligand
   37    40     1     0     0
SMALL
GAST_HUCK


@<TRIPOS>ATOM
      1 C9         -8.8370    2.6480   34.9840 C.2       1 1HF         0.1225
      2 C10        -9.3470    3.9190   35.1290 C.2       1 1HF        -0.0019
      3 C13        -9.2000    6.0890   32.4320 C.2       1 1HF         0.0827
      4 C6         -5.7720   -0.9390   31.7740 C.2       1 1HF         0.1272
      5 C4         -5.0740   -2.7860   33.4580 C.ar      1 1HF        -0.0429
      6 C3         -4.0990   -3.7650   33.6850 C.ar      1 1HF         0.0376
      7 N1         -7.1490   -0.4770   33.7040 N.2       1 1HF        -0.2352
      8 C2         -3.0800   -4.0010   32.7430 C.ar      1 1HF        -0.0526
      9 C          -4.0240   -2.3170   31.3540 C.ar      1 1HF         0.0771
     10 C1         -3.0480   -3.2770   31.5470 C.ar      1 1HF        -0.0378
     11 C5         -4.9960   -2.0470   32.2820 C.ar      1 1HF         0.0305
     12 N          -6.7270   -0.2330   32.2960 N.2       1 1HF        -0.2485
     13 C7         -7.7740    0.5250   34.2140 C.2       1 1HF         0.2306
     14 C8         -5.1820   -0.5680   30.4580 C.2       1 1HF         0.2515
     15 O          -5.4250    0.3350   29.6730 O.2       1 1HF        -0.3636
     16 N2         -4.1670   -1.4220   30.2830 N.am      1 1HF        -0.2303
     17 S          -8.1540    2.0780   33.4890 S.3       1 1HF         0.0422
     18 C11        -9.4100    4.9020   34.2090 C.2       1 1HF         0.1131
     19 C12        -8.7710    1.6280   36.0210 C.2       1 1HF         0.2555
     20 O1         -9.1360    1.6950   37.1770 O.2       1 1HF        -0.3715
     21 N3         -8.2070    0.5450   35.5110 N.am      1 1HF        -0.1827
     22 O2         -8.9560    4.8260   32.9150 O.3       1 1HF        -0.2620
     23 C14        -9.7940    6.9150   33.3460 C.2       1 1HF        -0.0589
     24 C15        -9.9320    6.1280   34.5270 C.2       1 1HF        -0.0549
     25 S1         -4.1630   -4.6790   35.2200 S.o2      1 1HF        -0.1697
     26 O3         -3.1050   -5.6950   35.1420 O.co2     1 1HF        -0.4815
     27 O4         -3.9610   -3.6600   36.2620 O.co2     1 1HF        -0.4815
     28 O5         -5.5260   -5.2290   35.2390 O.co2     1 1HF        -0.4815
     29 H1         -9.7504    4.1604   36.1113 H         1 1HF         0.0611
     30 H2         -8.9453    6.4017   31.4204 H         1 1HF         0.1017
     31 H3         -5.8658   -2.6093   34.1770 H         1 1HF         0.0608
     32 H4         -2.3185   -4.7455   32.9451 H         1 1HF         0.0603
     33 H5         -2.2858   -3.4617   30.7986 H         1 1HF         0.0507
     34 H6         -3.5751   -1.4223   29.4770 H         1 1HF         0.2261
     35 H7         -8.0960   -0.2690   36.0812 H         1 1HF         0.2501
     36 H8        -10.0966    7.9512   33.2026 H         1 1HF         0.0367
     37 H9        -10.3611    6.4360   35.4793 H         1 1HF         0.0390
@<TRIPOS>BOND
     1    2    1 2  
     2    1   17 1  
     3    1   19 1  
     4   18    2 1  
     5   22    3 1  
     6    3   23 2  
     7    4   11 1  
     8   12    4 2  
     9    4   14 1  
    10    5    6 ar 
    11   11    5 ar 
    12    6    8 ar 
    13    6   25 1  
    14    7   12 1  
    15   13    7 2  
    16   10    8 ar 
    17    9   10 ar 
    18   11    9 ar 
    19   16    9 1  
    20   17   13 1  
    21   13   21 1  
    22   14   15 2  
    23   14   16 am 
    24   18   22 1  
    25   18   24 2  
    26   19   20 2  
    27   19   21 am 
    28   23   24 1  
    29   25   26 ar 
    30   25   27 ar 
    31   25   28 ar 
    32    2   29 1  
    33    3   30 1  
    34    5   31 1  
    35    8   32 1  
    36   10   33 1  
    37   16   34 1  
    38   21   35 1  
    39   23   36 1  
    40   24   37 1  
@<TRIPOS>SUBSTRUCTURE
     1 1HF         1

