### 
### Created by X-TOOL on Mon Sep 10 21:12:46 2018
### 

@<TRIPOS>MOLECULE
2mas_ligand
   33    34     1     0     0
SMALL
GAST_HUCK


@<TRIPOS>ATOM
      1 C1        107.1160   36.4820   81.8630 C.ar      1 PIR        -0.0663
      2 C2        106.5220   35.2020   82.0070 C.ar      1 PIR        -0.0058
      3 C3        107.0330   34.1130   81.2640 C.ar      1 PIR        -0.0663
      4 C4        107.8940   34.3480   80.1840 C.ar      1 PIR        -0.0508
      5 C5        108.4400   35.6460   80.0050 C.ar      1 PIR         0.0284
      6 N5        109.2770   35.8850   78.9900 N.pl3     1 PIR        -0.3406
      7 C6        108.1240   36.6860   80.9080 C.ar      1 PIR        -0.0508
      8 C1'       105.3330   35.0040   82.9310 C.3       1 PIR         0.0349
      9 C2'       105.1370   36.1330   83.9270 C.3       1 PIR         0.1365
     10 O2'       105.3650   35.6820   85.2530 O.3       1 PIR        -0.3815
     11 C3'       103.6700   36.5690   83.7690 C.3       1 PIR         0.1323
     12 O3'       102.8450   35.9830   84.7620 O.3       1 PIR        -0.3832
     13 C4'       103.2690   36.0990   82.3930 C.3       1 PIR         0.0318
     14 N4'       104.0380   34.8720   82.2770 N.4       1 PIR         0.2471
     15 C5'       103.5970   37.0450   81.2280 C.3       1 PIR         0.0894
     16 O5'       103.7070   36.3140   80.0080 O.3       1 PIR        -0.3894
     17 H1        106.7911   37.3035   82.4912 H         1 PIR         0.0527
     18 H2        106.7592   33.0983   81.5294 H         1 PIR         0.0527
     19 H3        108.1400   33.5489   79.4940 H         1 PIR         0.0499
     20 H4        109.6732   36.8268   78.8601 H         1 PIR         0.1698
     21 H5        109.5255   35.1273   78.3381 H         1 PIR         0.1698
     22 H6        108.6541   37.6305   80.8636 H         1 PIR         0.0499
     23 H7        105.5287   34.0769   83.4897 H         1 PIR         0.1017
     24 H8        105.8163   36.9678   83.6999 H         1 PIR         0.0699
     25 H9        104.7960   34.9439   85.4375 H         1 PIR         0.2104
     26 H10       103.5902   37.6640   83.8368 H         1 PIR         0.0681
     27 H11       103.1145   36.2921   85.6189 H         1 PIR         0.2102
     28 H12       102.1889   35.8920   82.3705 H         1 PIR         0.0900
     29 H13       103.5254   34.1196   82.7095 H         1 PIR         0.2034
     30 H14       104.1811   34.6637   81.3012 H         1 PIR         0.2034
     31 H15       104.5504   37.5542   81.4323 H         1 PIR         0.0614
     32 H16       102.7955   37.7922   81.1315 H         1 PIR         0.0614
     33 H17       102.8839   35.8749   79.8279 H         1 PIR         0.2097
@<TRIPOS>BOND
     1    1    7 ar 
     2    1    2 ar 
     3    2    8 1  
     4    2    3 ar 
     5    3    4 ar 
     6    4    5 ar 
     7    5    7 ar 
     8    5    6 1  
     9    8   14 1  
    10    8    9 1  
    11    9   11 1  
    12    9   10 1  
    13   11   13 1  
    14   11   12 1  
    15   13   15 1  
    16   13   14 1  
    17   15   16 1  
    18    1   17 1  
    19    3   18 1  
    20    4   19 1  
    21    6   20 1  
    22    6   21 1  
    23    7   22 1  
    24    8   23 1  
    25    9   24 1  
    26   10   25 1  
    27   11   26 1  
    28   12   27 1  
    29   13   28 1  
    30   14   29 1  
    31   14   30 1  
    32   15   31 1  
    33   15   32 1  
    34   16   33 1  
@<TRIPOS>SUBSTRUCTURE
     1 PIR         1

