### 
### Created by X-TOOL on Mon Sep 10 21:13:20 2018
### 

@<TRIPOS>MOLECULE
2mji_ligand
   31    33     1     0     0
SMALL
GAST_HUCK


@<TRIPOS>ATOM
      1 O3          1.2820    3.8590   -3.2450 O.co2     1 KTR        -0.5658
      2 C4         -1.0310    0.1660   -4.1390 C.2       1 KTR        -0.0714
      3 C5          0.0010    0.5080   -3.3750 C.2       1 KTR         0.0614
      4 C6          1.9780   -0.2170   -2.4140 C.3       1 KTR         0.0575
      5 N1          0.7790   -0.5840   -3.2090 N.pl3     1 KTR        -0.2605
      6 C7          1.6060    1.0060   -1.6670 C.3       1 KTR         0.0013
      7 C8          0.6280    1.6670   -2.6070 C.3       1 KTR         0.0707
      8 C9          1.3220    2.6490   -3.5540 C.2       1 KTR         0.0524
      9 C10         1.5250   -3.4770   -5.1820 C.ar      1 KTR         0.0307
     10 C11         2.3040   -2.5700   -5.8940 C.ar      1 KTR        -0.0441
     11 C12         3.0040   -2.9720   -7.0240 C.ar      1 KTR        -0.0563
     12 C13         2.9280   -4.2920   -7.4520 C.ar      1 KTR        -0.0576
     13 C14         2.1530   -5.2060   -6.7490 C.ar      1 KTR        -0.0563
     14 C15         1.4560   -4.7970   -5.6190 C.ar      1 KTR        -0.0441
     15 O1          0.5710   -3.8120   -3.0060 O.2       1 KTR        -0.3825
     16 C1          0.7550   -3.0300   -3.9390 C.2       1 KTR         0.1626
     17 C2          0.2130   -1.6020   -3.8670 C.2       1 KTR         0.1004
     18 C3         -0.8980   -1.1650   -4.4470 C.2       1 KTR        -0.0725
     19 O2          1.8750    2.1660   -4.5660 O.co2     1 KTR        -0.5658
     20 H          -1.8369    0.8231   -4.4624 H         1 KTR         0.0229
     21 H           2.8314   -0.0157   -3.0782 H         1 KTR         0.0618
     22 H           2.2387   -1.0273   -1.7172 H         1 KTR         0.0618
     23 H           2.4823    1.6463   -1.4880 H         1 KTR         0.0337
     24 H           1.1308    0.7579   -0.7065 H         1 KTR         0.0337
     25 H          -0.1412    2.2077   -2.0361 H         1 KTR         0.0657
     26 H           2.3650   -1.5395   -5.5633 H         1 KTR         0.0667
     27 H           3.6085   -2.2576   -7.5711 H         1 KTR         0.0629
     28 H           3.4731   -4.6083   -8.3339 H         1 KTR         0.0652
     29 H           2.0923   -6.2360   -7.0815 H         1 KTR         0.0629
     30 H           0.8526   -5.5126   -5.0723 H         1 KTR         0.0667
     31 H          -1.5803   -1.7554   -5.0567 H         1 KTR         0.0361
@<TRIPOS>BOND
     1    8    1 ar 
     2    3    2 2  
     3    2   18 1  
     4    5    3 1  
     5    3    7 1  
     6    5    4 1  
     7    4    6 1  
     8   17    5 1  
     9    6    7 1  
    10    7    8 1  
    11    8   19 ar 
    12    9   10 ar 
    13    9   14 ar 
    14   16    9 1  
    15   10   11 ar 
    16   11   12 ar 
    17   13   12 ar 
    18   14   13 ar 
    19   16   15 2  
    20   16   17 1  
    21   17   18 2  
    22    2   20 1  
    23    4   21 1  
    24    4   22 1  
    25    6   23 1  
    26    6   24 1  
    27    7   25 1  
    28   10   26 1  
    29   11   27 1  
    30   12   28 1  
    31   13   29 1  
    32   14   30 1  
    33   18   31 1  
@<TRIPOS>SUBSTRUCTURE
     1 KTR         1

