### 
### Created by X-TOOL on Mon Sep 10 21:13:20 2018
### 

@<TRIPOS>MOLECULE
2mlm_ligand
   48    51     1     0     0
SMALL
GAST_HUCK


@<TRIPOS>ATOM
      1 S2         20.6450   20.2940   13.6910 S.3       1 2W7        -0.1132
      2 C5         20.5830   21.2790   12.2400 C.ar      1 2W7         0.0330
      3 C6         19.3850   21.8880   11.8520 C.ar      1 2W7        -0.0440
      4 C10        21.7260   21.4370   11.4520 C.ar      1 2W7         0.0616
      5 C7         19.3310   22.6410   10.6850 C.ar      1 2W7        -0.0634
      6 C8         20.4680   22.7920    9.9010 C.ar      1 2W7        -0.0630
      7 C9         21.6620   22.1910   10.2830 C.ar      1 2W7        -0.0477
      8 C11        22.9430   20.8750   11.8370 C.2       1 2W7         0.2029
      9 O2         23.4650   21.1600   12.9210 O.2       1 2W7        -0.3884
     10 N3         23.4910   20.0500   10.9320 N.am      1 2W7        -0.2688
     11 C12        24.9470   19.9320   10.7660 C.3       1 2W7         0.1194
     12 C13        25.4000   18.4910   11.0090 C.2       1 2W7         0.1989
     13 O3         24.8160   17.7600   11.8090 O.2       1 2W7        -0.3948
     14 N4         26.4680   18.1130   10.2920 N.am      1 2W7        -0.2792
     15 C14        26.9630   16.7290   10.3470 C.3       1 2W7         0.0538
     16 C18        25.8580   15.7670    9.9510 C.3       1 2W7        -0.0242
     17 C17        26.3830   14.3400    9.9900 C.3       1 2W7        -0.0382
     18 C19        27.5450   14.1980    9.0180 C.3       1 2W7        -0.0472
     19 C23        28.6520   15.1580    9.4220 C.3       1 2W7        -0.0382
     20 C24        28.1290   16.5820    9.3870 C.3       1 2W7        -0.0242
     21 C25        29.1230   14.8320   10.8300 C.3       1 2W7        -0.0472
     22 C20        27.9630   14.9740   11.7990 C.3       1 2W7        -0.0382
     23 C26        27.4310   16.3990   11.7590 C.3       1 2W7        -0.0242
     24 C16        26.8580   14.0140   11.3990 C.3       1 2W7        -0.0472
     25 H1         20.0005   19.5242   13.6009 H         1 2W7         0.1239
     26 H2         18.4969   21.7724   12.4627 H         1 2W7         0.0577
     27 H3         18.4009   23.1109   10.3863 H         1 2W7         0.0635
     28 H4         20.4241   23.3789    8.9907 H         1 2W7         0.0572
     29 H5         22.5469   22.3098    9.6683 H         1 2W7         0.0651
     30 H6         22.8908   19.4985   10.3527 H         1 2W7         0.1871
     31 H7         25.4482   20.5951   11.4864 H         1 2W7         0.0763
     32 H8         25.2198   20.2293    9.7427 H         1 2W7         0.0763
     33 H9         26.9343   18.7810    9.7120 H         1 2W7         0.1858
     34 H10        25.5152   16.0028    8.9327 H         1 2W7         0.0293
     35 H11        25.0172   15.8667   10.6532 H         1 2W7         0.0293
     36 H12        25.5791   13.6457    9.7040 H         1 2W7         0.0302
     37 H13        27.2045   14.4363    7.9996 H         1 2W7         0.0271
     38 H14        27.9244   13.1659    9.0458 H         1 2W7         0.0271
     39 H15        29.4945   15.0594    8.7217 H         1 2W7         0.0302
     40 H16        28.9328   17.2728    9.6813 H         1 2W7         0.0293
     41 H17        27.7941   16.8223    8.3672 H         1 2W7         0.0293
     42 H18        29.9271   15.5255   11.1171 H         1 2W7         0.0271
     43 H19        29.5011   13.7995   10.8600 H         1 2W7         0.0271
     44 H20        28.3048   14.7387   12.8177 H         1 2W7         0.0302
     45 H21        26.5859   16.4942   12.4567 H         1 2W7         0.0293
     46 H22        28.2293   17.0964   12.0527 H         1 2W7         0.0293
     47 H23        27.2409   12.9832   11.4269 H         1 2W7         0.0271
     48 H24        26.0166   14.1117   12.1007 H         1 2W7         0.0271
@<TRIPOS>BOND
     1    1    2 1  
     2    2    3 ar 
     3    2    4 ar 
     4    3    5 ar 
     5    4    7 ar 
     6    4    8 1  
     7    5    6 ar 
     8    6    7 ar 
     9    8    9 2  
    10    8   10 am 
    11   10   11 1  
    12   11   12 1  
    13   12   13 2  
    14   12   14 am 
    15   14   15 1  
    16   15   16 1  
    17   15   20 1  
    18   15   23 1  
    19   16   17 1  
    20   17   18 1  
    21   17   24 1  
    22   18   19 1  
    23   19   20 1  
    24   19   21 1  
    25   21   22 1  
    26   22   23 1  
    27   22   24 1  
    28    1   25 1  
    29    3   26 1  
    30    5   27 1  
    31    6   28 1  
    32    7   29 1  
    33   10   30 1  
    34   11   31 1  
    35   11   32 1  
    36   14   33 1  
    37   16   34 1  
    38   16   35 1  
    39   17   36 1  
    40   18   37 1  
    41   18   38 1  
    42   19   39 1  
    43   20   40 1  
    44   20   41 1  
    45   21   42 1  
    46   21   43 1  
    47   22   44 1  
    48   23   45 1  
    49   23   46 1  
    50   24   47 1  
    51   24   48 1  
@<TRIPOS>SUBSTRUCTURE
     1 2W7         1

