### 
### Created by X-TOOL on Mon Sep 10 21:13:20 2018
### 

@<TRIPOS>MOLECULE
2mov_ligand
   35    35     1     0     0
SMALL
GAST_HUCK


@<TRIPOS>ATOM
      1 N          10.6880   -2.8570   -4.9460 N.4       1 IOR         0.2327
      2 CA          9.7350   -3.9290   -5.2470 C.3       1 IOR         0.0284
      3 C           9.8850   -5.0720   -4.2840 C.2       1 IOR         0.0844
      4 O           9.1480   -5.1260   -3.2940 O.co2     1 IOR        -0.5643
      5 CB         10.0790   -4.5520   -6.6640 C.3       1 IOR         0.0055
      6 CG         11.5300   -4.9870   -6.6420 C.3       1 IOR        -0.0131
      7 CD         12.4400   -4.2740   -7.5160 C.3       1 IOR         0.0628
      8 NE         11.8930   -4.5130   -8.8180 N.pl3     1 IOR        -0.2720
      9 C1         11.2810   -3.5110   -9.4570 C.cat     1 IOR         0.2948
     10 N5         11.1800   -2.2580   -8.9100 N.pl3     1 IOR        -0.2437
     11 N2         10.6600   -3.5560  -10.7200 N.pl3     1 IOR        -0.2638
     12 C4         10.2460   -1.5870   -9.7170 C.3       1 IOR         0.2101
     13 O4         10.2170   -0.1740   -9.6830 O.3       1 IOR        -0.3555
     14 C3         10.3080   -2.2270  -11.0790 C.3       1 IOR         0.1318
     15 C6         11.4740   -1.6170  -11.8710 C.3       1 IOR        -0.0228
     16 O1         10.7517   -5.9646   -4.4834 O.co2     1 IOR        -0.5643
     17 H1         10.5663   -2.1043   -5.6054 H         1 IOR         0.2010
     18 H2         11.6281   -3.2143   -5.0138 H         1 IOR         0.2010
     19 H3         10.5250   -2.5150   -4.0119 H         1 IOR         0.2010
     20 H4          8.7088   -3.5334   -5.2260 H         1 IOR         0.1024
     21 H5          9.9268   -3.7982   -7.4505 H         1 IOR         0.0340
     22 H6          9.4316   -5.4200   -6.8577 H         1 IOR         0.0340
     23 H7         11.5629   -6.0499   -6.9233 H         1 IOR         0.0302
     24 H8         11.8971   -4.8688   -5.6118 H         1 IOR         0.0302
     25 H9         13.4607   -4.6763   -7.4365 H         1 IOR         0.0689
     26 H10        12.4504   -3.1990   -7.2832 H         1 IOR         0.0689
     27 H11        11.6792   -1.8894   -8.0879 H         1 IOR         0.2668
     28 H12        10.4910   -4.4016  -11.2833 H         1 IOR         0.2647
     29 H13         9.2640   -1.8669   -9.3080 H         1 IOR         0.1089
     30 H14         9.5427    0.1421  -10.2728 H         1 IOR         0.2138
     31 H15         9.3608   -2.1597  -11.6342 H         1 IOR         0.0787
     32 H16        11.2217   -0.5859  -12.1593 H         1 IOR         0.0268
     33 H17        11.6564   -2.2163  -12.7752 H         1 IOR         0.0268
     34 H18        12.3790   -1.6118  -11.2458 H         1 IOR         0.0268
     35 H19        11.9700   -5.4425   -9.2551 H         1 IOR         0.2642
@<TRIPOS>BOND
     1    1    2 1  
     2    2    3 1  
     3    2    5 1  
     4    3    4 ar 
     5    5    6 1  
     6    6    7 1  
     7    7    8 1  
     8    8    9 ar 
     9    9   10 ar 
    10    9   11 ar 
    11   10   12 1  
    12   11   14 1  
    13   12   13 1  
    14   12   14 1  
    15   14   15 1  
    16    3   16 ar 
    17    1   17 1  
    18    1   18 1  
    19    1   19 1  
    20    2   20 1  
    21    5   21 1  
    22    5   22 1  
    23    6   23 1  
    24    6   24 1  
    25    7   25 1  
    26    7   26 1  
    27   10   27 1  
    28   11   28 1  
    29   12   29 1  
    30   13   30 1  
    31   14   31 1  
    32   15   32 1  
    33   15   33 1  
    34   15   34 1  
    35    8   35 1  
@<TRIPOS>SUBSTRUCTURE
     1 IOR         1

