### 
### Created by X-TOOL on Mon Sep 10 21:13:30 2018
### 

@<TRIPOS>MOLECULE
2n06_ligand
   74    78     1     0     0
SMALL
GAST_HUCK


@<TRIPOS>ATOM
      1 N           2.5710   10.6390  -12.5900 N.2       1 44Z        -0.3571
      2 C1         -0.7810   16.2800  -11.9470 C.2       1 44Z         0.1986
      3 O1         -1.1310   17.4320  -12.1310 O.2       1 44Z        -0.3949
      4 N1         -1.7310   15.3390  -11.8490 N.am      1 44Z        -0.2834
      5 C2         -1.4470   13.9120  -11.6680 C.3       1 44Z         0.0513
      6 C3         -0.0910   13.5140  -12.2810 C.3       1 44Z         0.0577
      7 N2          1.0160   14.3980  -11.8480 N.am      1 44Z        -0.2313
      8 C4          0.6830   15.8560  -11.8180 C.3       1 44Z         0.1240
      9 C5          2.2430   13.9770  -11.4330 C.2       1 44Z         0.3083
     10 O5          2.8850   14.6720  -10.6650 O.2       1 44Z        -0.3853
     11 N3          2.7160   12.7700  -11.8170 N.am      1 44Z        -0.1619
     12 C6          2.4210   11.8770  -12.8850 C.2       1 44Z         0.1329
     13 C7          3.1310   10.4820  -11.2240 C.3       1 44Z         0.0566
     14 C8          3.4300   11.9610  -10.8160 C.3       1 44Z         0.1243
     15 CG1         4.9310   12.2450  -10.6740 C.ar      1 44Z        -0.0081
     16 CD1         5.7280   12.6870  -11.7360 C.ar      1 44Z        -0.0568
     17 CE1         7.1200   12.7010  -11.6070 C.ar      1 44Z        -0.0545
     18 CZ1         7.7220   12.2350  -10.4370 C.ar      1 44Z         0.0330
     19 CL          9.4440   12.1190  -10.3400 Cl        1 44Z        -0.0771
     20 CE2         6.9330   11.7810   -9.3820 C.ar      1 44Z        -0.0545
     21 CD2         5.5540   11.8160   -9.5040 C.ar      1 44Z        -0.0568
     22 CG2         4.3470    9.5490  -11.1110 C.ar      1 44Z        -0.0408
     23 CD3         5.4060    9.6490  -12.0200 C.ar      1 44Z        -0.0707
     24 CE3         6.6530    9.1120  -11.7170 C.ar      1 44Z        -0.0772
     25 CZ2         6.8320    8.4130  -10.5270 C.ar      1 44Z        -0.0401
     26 CE4         5.7550    8.1840   -9.6870 C.ar      1 44Z         0.0841
     27 O4          5.9490    7.4560   -8.5360 O.3       1 44Z        -0.3230
     28 CD4         4.5220    8.7590   -9.9690 C.ar      1 44Z        -0.0315
     29 CG3         1.9790   12.2940  -14.2600 C.ar      1 44Z         0.0616
     30 CD5         1.3160   11.3320  -15.0400 C.ar      1 44Z        -0.0548
     31 CE5         0.8160   11.6360  -16.3040 C.ar      1 44Z        -0.0340
     32 CZ3         0.9640   12.9190  -16.8220 C.ar      1 44Z         0.0914
     33 CE6         1.6410   13.8750  -16.0790 C.ar      1 44Z         0.0050
     34 CD6         2.1760   13.5690  -14.8270 C.ar      1 44Z         0.1089
     35 O6          2.8960   14.5560  -14.1870 O.3       1 44Z        -0.3097
     36 C9          4.2530   14.8900  -14.5720 C.3       1 44Z         0.0782
     37 CM2         4.2850   15.7020  -15.8810 C.3       1 44Z        -0.0341
     38 CM3         4.8550   15.7170  -13.4220 C.3       1 44Z        -0.0341
     39 O3          0.4690   13.2890  -18.0590 O.3       1 44Z        -0.3182
     40 CM1        -0.3990   12.4370  -18.8440 C.3       1 44Z         0.0612
     41 CM4         5.2490    6.2020   -8.3730 C.3       1 44Z         0.0592
     42 H1         -2.6873   15.6267  -11.9024 H         1 44Z         0.1852
     43 H2         -2.2420   13.3268  -12.1532 H         1 44Z         0.0540
     44 H3         -1.4305   13.6864  -10.5915 H         1 44Z         0.0540
     45 H4         -0.1724   13.5638  -13.3768 H         1 44Z         0.0542
     46 H5          0.1431   12.4831  -11.9771 H         1 44Z         0.0542
     47 H6          1.0512   16.2521  -10.8601 H         1 44Z         0.0763
     48 H7          1.2310   16.3299  -12.6457 H         1 44Z         0.0763
     49 H8          2.3533   10.0717  -10.5631 H         1 44Z         0.0547
     50 H9          2.9788   12.1559   -9.8319 H         1 44Z         0.0832
     51 H10         5.2659   13.0186  -12.6588 H         1 44Z         0.0558
     52 H11         7.7339   13.0750  -12.4183 H         1 44Z         0.0606
     53 H12         7.3936   11.4046   -8.4758 H         1 44Z         0.0606
     54 H13         4.9425   11.5010   -8.6662 H         1 44Z         0.0558
     55 H14         5.2533   10.1496  -12.9693 H         1 44Z         0.0464
     56 H15         7.4815    9.2374  -12.4047 H         1 44Z         0.0572
     57 H16         7.8161    8.0472  -10.2571 H         1 44Z         0.0486
     58 H17         3.6870    8.5941   -9.2977 H         1 44Z         0.0478
     59 H18         1.1905   10.3289  -14.6487 H         1 44Z         0.0638
     60 H19         0.3111   10.8725  -16.8847 H         1 44Z         0.0483
     61 H20         1.7564   14.8764  -16.4776 H         1 44Z         0.0483
     62 H21         4.8339   13.9663  -14.7110 H         1 44Z         0.0650
     63 H22         5.3276   15.9367  -16.1414 H         1 44Z         0.0259
     64 H23         3.7213   16.6369  -15.7464 H         1 44Z         0.0259
     65 H24         3.8290   15.1121  -16.6897 H         1 44Z         0.0259
     66 H25         5.8897   15.9940  -13.6722 H         1 44Z         0.0259
     67 H26         4.8485   15.1197  -12.4983 H         1 44Z         0.0259
     68 H27         4.2572   16.6284  -13.2737 H         1 44Z         0.0259
     69 H28        -0.6594   12.9454  -19.7841 H         1 44Z         0.0582
     70 H29        -1.3165   12.2250  -18.2755 H         1 44Z         0.0582
     71 H30         0.1193   11.4932  -19.0690 H         1 44Z         0.0582
     72 H31         5.5174    5.7555   -7.4042 H         1 44Z         0.0577
     73 H32         5.5328    5.5155   -9.1843 H         1 44Z         0.0577
     74 H33         4.1641    6.3806   -8.4064 H         1 44Z         0.0577
@<TRIPOS>BOND
     1   12    1 2  
     2    1   13 1  
     3    2    3 2  
     4    2    4 am 
     5    8    2 1  
     6    5    4 1  
     7    6    5 1  
     8    7    6 1  
     9    7    8 1  
    10    9    7 am 
    11    9   10 2  
    12   11    9 am 
    13   11   12 1  
    14   11   14 1  
    15   12   29 1  
    16   13   14 1  
    17   13   22 1  
    18   14   15 1  
    19   15   16 ar 
    20   15   21 ar 
    21   16   17 ar 
    22   17   18 ar 
    23   18   19 1  
    24   18   20 ar 
    25   20   21 ar 
    26   22   23 ar 
    27   22   28 ar 
    28   23   24 ar 
    29   24   25 ar 
    30   25   26 ar 
    31   26   27 1  
    32   26   28 ar 
    33   27   41 1  
    34   29   30 ar 
    35   29   34 ar 
    36   30   31 ar 
    37   31   32 ar 
    38   32   33 ar 
    39   32   39 1  
    40   33   34 ar 
    41   34   35 1  
    42   35   36 1  
    43   36   37 1  
    44   36   38 1  
    45   39   40 1  
    46    4   42 1  
    47    5   43 1  
    48    5   44 1  
    49    6   45 1  
    50    6   46 1  
    51    8   47 1  
    52    8   48 1  
    53   13   49 1  
    54   14   50 1  
    55   16   51 1  
    56   17   52 1  
    57   20   53 1  
    58   21   54 1  
    59   23   55 1  
    60   24   56 1  
    61   25   57 1  
    62   28   58 1  
    63   30   59 1  
    64   31   60 1  
    65   33   61 1  
    66   36   62 1  
    67   37   63 1  
    68   37   64 1  
    69   37   65 1  
    70   38   66 1  
    71   38   67 1  
    72   38   68 1  
    73   40   69 1  
    74   40   70 1  
    75   40   71 1  
    76   41   72 1  
    77   41   73 1  
    78   41   74 1  
@<TRIPOS>SUBSTRUCTURE
     1 44Z         1

