### 
### Created by X-TOOL on Mon Sep 10 21:13:30 2018
### 

@<TRIPOS>MOLECULE
2n0u_ligand
   67    71     1     0     0
SMALL
GAST_HUCK


@<TRIPOS>ATOM
      1 N          -0.5120   13.8430  -12.4300 N.2       1 48M        -0.3457
      2 CG1         2.6790   14.2820  -11.2990 C.ar      1 48M        -0.0080
      3 CG2         0.7630   11.9730  -11.3370 C.ar      1 48M        -0.0303
      4 CG3        -0.6270   15.6620  -14.0050 C.ar      1 48M         0.0796
      5 CD1         3.2290   14.6100  -12.5450 C.ar      1 48M        -0.0567
      6 CD2         3.4740   13.6150  -10.3610 C.ar      1 48M        -0.0567
      7 CD3         0.2670   10.9770  -10.4900 C.ar      1 48M        -0.0594
      8 CD4         1.7190   11.6170  -12.2940 C.ar      1 48M        -0.0457
      9 CD5        -1.7270   15.0910  -14.6620 C.ar      1 48M        -0.0380
     10 CD6         0.0180   16.7520  -14.6170 C.ar      1 48M         0.1261
     11 CE1         4.5310   14.2280  -12.8660 C.ar      1 48M        -0.0545
     12 CE2         4.7740   13.2350  -10.6850 C.ar      1 48M        -0.0545
     13 CE3         0.7360    9.6660  -10.5780 C.ar      1 48M        -0.0680
     14 CE4         2.2360   10.3270  -12.3410 C.ar      1 48M         0.0338
     15 CE5        -2.2270   15.6320  -15.8410 C.ar      1 48M        -0.0310
     16 CE6        -0.4940   17.2960  -15.8010 C.ar      1 48M         0.0098
     17 CZ1         5.2970   13.5330  -11.9360 C.ar      1 48M         0.0330
     18 CZ2         1.7320    9.3410  -11.4970 C.ar      1 48M        -0.0548
     19 CZ3        -1.6250   16.7500  -16.4020 C.ar      1 48M         0.0928
     20 CL2         6.8990   13.0220  -12.3240 Cl        1 48M        -0.0771
     21 CL1         3.5520    9.9800  -13.4090 Cl        1 48M        -0.0725
     22 CM1        -2.1850   17.3300  -17.5970 C.1       1 48M         0.1022
     23 CM2         2.9180   16.9830  -15.8070 C.3       1 48M        -0.0341
     24 CM3         3.2300   18.4660  -13.7800 C.3       1 48M        -0.0341
     25 NM1        -2.6510   17.7770  -18.5400 N.1       1 48M        -0.3252
     26 C1         -1.0820   20.2800  -11.0640 C.2       1 48M         0.1986
     27 N1         -2.2840   19.7700  -10.7610 N.am      1 48M        -0.2834
     28 O1         -0.9530   21.4890  -11.0310 O.2       1 48M        -0.3949
     29 C2         -2.5960   18.3380  -10.7710 C.3       1 48M         0.0513
     30 N2         -0.2330   17.8580  -11.4850 N.am      1 48M        -0.2312
     31 C3         -1.6630   17.5380  -11.6990 C.3       1 48M         0.0577
     32 N3          0.6290   15.6780  -11.7410 N.am      1 48M        -0.1588
     33 C4          0.0590   19.3240  -11.4090 C.3       1 48M         0.1240
     34 C5          0.7640   16.9480  -11.2900 C.2       1 48M         0.3089
     35 O5          1.7590   17.2750  -10.6720 O.2       1 48M        -0.3851
     36 C6         -0.2310   15.0620  -12.6900 C.2       1 48M         0.1469
     37 O6          1.1960   17.2430  -14.0850 O.3       1 48M        -0.3055
     38 C7          0.2150   13.4010  -11.2190 C.3       1 48M         0.0638
     39 C8          1.2150   14.5760  -10.9580 C.3       1 48M         0.1259
     40 C9          2.2280   17.9450  -14.8190 C.3       1 48M         0.0785
     41 H1          2.6381   15.1648  -13.2648 H         1 48M         0.0558
     42 H2          3.0763   13.3929   -9.3773 H         1 48M         0.0558
     43 H3         -0.4909   11.2265   -9.7563 H         1 48M         0.0559
     44 H4          2.0614   12.3567  -13.0086 H         1 48M         0.0562
     45 H5         -2.1971   14.2093  -14.2416 H         1 48M         0.0677
     46 H6          4.9451   14.4720  -13.8376 H         1 48M         0.0606
     47 H7          5.3792   12.7051   -9.9584 H         1 48M         0.0606
     48 H8          0.3253    8.8994   -9.9309 H         1 48M         0.0599
     49 H9         -3.0871   15.1807  -16.3223 H         1 48M         0.0639
     50 H10        -0.0051   18.1507  -16.2543 H         1 48M         0.0656
     51 H11         2.1118    8.3273  -11.5543 H         1 48M         0.0565
     52 H12         3.7000   17.5241  -16.3600 H         1 48M         0.0259
     53 H13         2.1742   16.5890  -16.5151 H         1 48M         0.0259
     54 H14         3.3722   16.1497  -15.2508 H         1 48M         0.0259
     55 H15         2.7174   19.1491  -13.0867 H         1 48M         0.0259
     56 H16         4.0421   19.0038  -14.2912 H         1 48M         0.0259
     57 H17         3.6487   17.6186  -13.2173 H         1 48M         0.0259
     58 H18        -3.0139   20.4068  -10.5124 H         1 48M         0.1852
     59 H19        -3.6328   18.2052  -11.1135 H         1 48M         0.0540
     60 H20        -2.4950   17.9477   -9.7476 H         1 48M         0.0540
     61 H21        -1.9228   17.7682  -12.7428 H         1 48M         0.0542
     62 H22        -1.8154   16.4649  -11.5113 H         1 48M         0.0542
     63 H23         0.8384   19.4602  -10.6448 H         1 48M         0.0763
     64 H24         0.4510   19.6278  -12.3908 H         1 48M         0.0763
     65 H25        -0.4905   13.3767  -10.3754 H         1 48M         0.0561
     66 H26         1.1858   14.8367   -9.8897 H         1 48M         0.0834
     67 H27         1.7909   18.7872  -15.3755 H         1 48M         0.0650
@<TRIPOS>BOND
     1   36    1 2  
     2    1   38 1  
     3    2    5 ar 
     4    2    6 ar 
     5   39    2 1  
     6    3    7 ar 
     7    3    8 ar 
     8   38    3 1  
     9    4    9 ar 
    10   10    4 ar 
    11    4   36 1  
    12    5   11 ar 
    13    6   12 ar 
    14    7   13 ar 
    15    8   14 ar 
    16    9   15 ar 
    17   10   16 ar 
    18   37   10 1  
    19   11   17 ar 
    20   12   17 ar 
    21   13   18 ar 
    22   14   18 ar 
    23   14   21 1  
    24   19   15 ar 
    25   16   19 ar 
    26   17   20 1  
    27   19   22 1  
    28   22   25 3  
    29   40   23 1  
    30   40   24 1  
    31   26   27 am 
    32   26   28 2  
    33   33   26 1  
    34   29   27 1  
    35   31   29 1  
    36   30   31 1  
    37   30   33 1  
    38   34   30 am 
    39   32   34 am 
    40   36   32 1  
    41   32   39 1  
    42   34   35 2  
    43   37   40 1  
    44   38   39 1  
    45    5   41 1  
    46    6   42 1  
    47    7   43 1  
    48    8   44 1  
    49    9   45 1  
    50   11   46 1  
    51   12   47 1  
    52   13   48 1  
    53   15   49 1  
    54   16   50 1  
    55   18   51 1  
    56   23   52 1  
    57   23   53 1  
    58   23   54 1  
    59   24   55 1  
    60   24   56 1  
    61   24   57 1  
    62   27   58 1  
    63   29   59 1  
    64   29   60 1  
    65   31   61 1  
    66   31   62 1  
    67   33   63 1  
    68   33   64 1  
    69   38   65 1  
    70   39   66 1  
    71   40   67 1  
@<TRIPOS>SUBSTRUCTURE
     1 48M         1

