### 
### Created by X-TOOL on Mon Sep 10 21:13:30 2018
### 

@<TRIPOS>MOLECULE
2n0w_ligand
   70    74     1     0     0
SMALL
GAST_HUCK


@<TRIPOS>ATOM
      1 N          -0.8370   12.6370  -10.9040 N.2       1 48L        -0.3576
      2 CG1         2.4270   13.4370  -10.6390 C.ar      1 48L        -0.0082
      3 CG2         0.7650   11.4090   -9.3550 C.ar      1 48L         0.0047
      4 CG3        -1.1690   13.6150  -13.0820 C.ar      1 48L         0.0616
      5 CD1         2.6190   12.8690  -11.9050 C.ar      1 48L        -0.0568
      6 CD2         3.5320   13.6300   -9.8070 C.ar      1 48L        -0.0568
      7 CD3         1.0520   10.4370  -10.3200 C.ar      1 48L        -0.0517
      8 CD4         1.1110   11.1580   -8.0220 C.ar      1 48L         0.1370
      9 CD5        -2.2510   12.7650  -13.3630 C.ar      1 48L        -0.0548
     10 CD6        -0.6170   14.3570  -14.1430 C.ar      1 48L         0.1089
     11 CE1         3.8960   12.4900  -12.3220 C.ar      1 48L        -0.0545
     12 CE2         4.8040   13.2530  -10.2270 C.ar      1 48L        -0.0545
     13 CE3         1.7020    9.9510   -7.6530 C.ar      1 48L        -0.0320
     14 CE4         1.6680    9.2430   -9.9520 C.ar      1 48L         0.0021
     15 CE5        -2.7990   12.6860  -14.6420 C.ar      1 48L        -0.0340
     16 CE6        -1.1840   14.2730  -15.4170 C.ar      1 48L         0.0050
     17 CZ1         4.9870   12.6870  -11.4820 C.ar      1 48L         0.0330
     18 CZ2         1.9790    8.9860   -8.6190 C.ar      1 48L        -0.0610
     19 CZ3        -2.2720   13.4570  -15.6710 C.ar      1 48L         0.0914
     20 CL          6.5750   12.2410  -11.9920 Cl        1 48L        -0.0771
     21 CM1        -4.0550   12.8790  -17.3020 C.3       1 48L         0.0612
     22 CM2         2.8420   15.6370  -14.4620 C.3       1 48L        -0.0341
     23 CM3         0.9230   16.9300  -15.5120 C.3       1 48L        -0.0341
     24 C1         -1.6110   19.0420  -12.3130 C.2       1 48L         0.1986
     25 N1         -2.8460   18.6180  -12.0200 N.am      1 48L        -0.2834
     26 O1         -1.4830   20.0910  -12.9160 O.2       1 48L        -0.3949
     27 C2         -3.1100   17.3750  -11.2960 C.3       1 48L         0.0513
     28 N2         -0.6740   16.7200  -11.5910 N.am      1 48L        -0.2313
     29 C3         -2.0890   16.2770  -11.6530 C.3       1 48L         0.0577
     30 N3          0.2760   14.5930  -11.1720 N.am      1 48L        -0.1620
     31 O3         -2.7610   13.4300  -16.9610 O.3       1 48L        -0.3182
     32 C4         -0.4360   18.1680  -11.8840 C.3       1 48L         0.1240
     33 C5          0.3890   15.9410  -11.2300 C.2       1 48L         0.3083
     34 O5          1.4290   16.4770  -10.8880 O.2       1 48L        -0.3853
     35 C6         -0.6600   13.6460  -11.6720 C.2       1 48L         0.1328
     36 O6          0.5530   15.0730  -13.9590 O.3       1 48L        -0.3097
     37 C7          0.0850   12.7240   -9.7390 C.3       1 48L         0.0605
     38 C8          1.0430   13.8760  -10.1470 C.3       1 48L         0.1240
     39 C9          1.4130   15.5500  -15.0250 C.3       1 48L         0.0782
     40 BR          2.0980    7.9620  -11.2840 Br        1 48L        -0.0554
     41 F           0.8750   12.0790   -7.0690 F         1 48L        -0.1865
     42 H1          1.7712   12.7230  -12.5645 H         1 48L         0.0558
     43 H2          3.3980   14.0761   -8.8282 H         1 48L         0.0558
     44 H3          0.7940   10.6139  -11.3579 H         1 48L         0.0572
     45 H4         -2.6688   12.1575  -12.5683 H         1 48L         0.0638
     46 H5          4.0373   12.0427  -13.2993 H         1 48L         0.0606
     47 H6          5.6551   13.4016   -9.5723 H         1 48L         0.0606
     48 H7          1.9463    9.7629   -6.6138 H         1 48L         0.0592
     49 H8         -3.6355   12.0238  -14.8339 H         1 48L         0.0483
     50 H9         -0.7621   14.8603  -16.2246 H         1 48L         0.0483
     51 H10         2.4327    8.0432   -8.3355 H         1 48L         0.0576
     52 H11        -4.2189   12.9716  -18.3858 H         1 48L         0.0582
     53 H12        -4.8411   13.4291  -16.7640 H         1 48L         0.0582
     54 H13        -4.0886   11.8175  -17.0155 H         1 48L         0.0582
     55 H14         3.5239   15.9969  -15.2466 H         1 48L         0.0259
     56 H15         3.1645   14.6409  -14.1246 H         1 48L         0.0259
     57 H16         2.8595   16.3354  -13.6124 H         1 48L         0.0259
     58 H17        -0.0989   16.8373  -15.9083 H         1 48L         0.0259
     59 H18         1.5915   17.2978  -16.3043 H         1 48L         0.0259
     60 H19         0.9271   17.6385  -14.6706 H         1 48L         0.0259
     61 H20        -3.6236   19.1764  -12.3092 H         1 48L         0.1852
     62 H21        -4.1189   17.0203  -11.5535 H         1 48L         0.0540
     63 H22        -3.0558   17.5738  -10.2155 H         1 48L         0.0540
     64 H23        -2.2978   15.9310  -12.6761 H         1 48L         0.0542
     65 H24        -2.2202   15.4417  -10.9494 H         1 48L         0.0542
     66 H25        -0.0180   18.6165  -10.9707 H         1 48L         0.0763
     67 H26         0.3108   18.2145  -12.6903 H         1 48L         0.0763
     68 H27        -0.4902   13.0420   -8.8570 H         1 48L         0.0541
     69 H28         1.2018   14.5335   -9.2795 H         1 48L         0.0832
     70 H29         1.3913   14.8424  -15.8669 H         1 48L         0.0650
@<TRIPOS>BOND
     1   35    1 2  
     2    1   37 1  
     3    2    5 ar 
     4    2    6 ar 
     5   38    2 1  
     6    3    7 ar 
     7    3    8 ar 
     8   37    3 1  
     9    4    9 ar 
    10   10    4 ar 
    11    4   35 1  
    12    5   11 ar 
    13    6   12 ar 
    14    7   14 ar 
    15    8   13 ar 
    16    8   41 1  
    17    9   15 ar 
    18   10   16 ar 
    19   36   10 1  
    20   11   17 ar 
    21   12   17 ar 
    22   13   18 ar 
    23   14   18 ar 
    24   14   40 1  
    25   19   15 ar 
    26   16   19 ar 
    27   17   20 1  
    28   19   31 1  
    29   31   21 1  
    30   39   22 1  
    31   39   23 1  
    32   24   25 am 
    33   24   26 2  
    34   32   24 1  
    35   27   25 1  
    36   29   27 1  
    37   28   29 1  
    38   28   32 1  
    39   33   28 am 
    40   30   33 am 
    41   35   30 1  
    42   30   38 1  
    43   33   34 2  
    44   36   39 1  
    45   37   38 1  
    46    5   42 1  
    47    6   43 1  
    48    7   44 1  
    49    9   45 1  
    50   11   46 1  
    51   12   47 1  
    52   13   48 1  
    53   15   49 1  
    54   16   50 1  
    55   18   51 1  
    56   21   52 1  
    57   21   53 1  
    58   21   54 1  
    59   22   55 1  
    60   22   56 1  
    61   22   57 1  
    62   23   58 1  
    63   23   59 1  
    64   23   60 1  
    65   25   61 1  
    66   27   62 1  
    67   27   63 1  
    68   29   64 1  
    69   29   65 1  
    70   32   66 1  
    71   32   67 1  
    72   37   68 1  
    73   38   69 1  
    74   39   70 1  
@<TRIPOS>SUBSTRUCTURE
     1 48L         1

