### 
### Created by X-TOOL on Mon Sep 10 21:13:30 2018
### 

@<TRIPOS>MOLECULE
2n14_ligand
   70    74     1     0     0
SMALL
GAST_HUCK


@<TRIPOS>ATOM
      1 N          -1.3250   13.9540  -12.4990 N.2       1 49H        -0.3569
      2 CG1         1.7950   14.0630  -11.2850 C.ar      1 49H        -0.0081
      3 CG2        -0.4140   12.0730  -11.1000 C.ar      1 49H        -0.0314
      4 CG3        -1.0010   15.5630  -14.2630 C.ar      1 49H         0.0616
      5 CD1         2.4300   14.3170  -12.5070 C.ar      1 49H        -0.0568
      6 CD2         2.4550   13.2870  -10.3280 C.ar      1 49H        -0.0568
      7 CD3         0.3660   11.4520  -12.0810 C.ar      1 49H        -0.0458
      8 CD4        -0.9100   11.3040  -10.0430 C.ar      1 49H        -0.0595
      9 CD5        -1.9960   14.9560  -15.0460 C.ar      1 49H        -0.0548
     10 CD6        -0.2080   16.5590  -14.8640 C.ar      1 49H         0.1089
     11 CE1         3.6910   13.7900  -12.7720 C.ar      1 49H        -0.0545
     12 CE2         3.7080   12.7410  -10.6010 C.ar      1 49H        -0.0545
     13 CE3         0.6700   10.0960  -11.9880 C.ar      1 49H         0.0338
     14 CE4        -0.6380    9.9380   -9.9700 C.ar      1 49H        -0.0680
     15 CE5        -2.2540   15.3750  -16.3470 C.ar      1 49H        -0.0340
     16 CE6        -0.4820   16.9760  -16.1700 C.ar      1 49H         0.0050
     17 CZ1         4.3240   12.9970  -11.8220 C.ar      1 49H         0.0330
     18 CZ2         0.1560    9.3340  -10.9430 C.ar      1 49H        -0.0548
     19 CZ3        -1.5090   16.4060  -16.9050 C.ar      1 49H         0.0914
     20 CL1         5.8690   12.3190  -12.1820 Cl        1 49H        -0.0771
     21 CL2         1.7030    9.3570  -13.1600 Cl        1 49H        -0.0725
     22 CM1        -2.9700   16.6370  -18.8990 C.3       1 49H         0.0612
     23 CM2         2.8420   16.7030  -15.5920 C.3       1 49H        -0.0341
     24 CM3         2.8510   18.3750  -13.6880 C.3       1 49H        -0.0341
     25 C1         -3.1910   18.7830  -11.8840 C.2       1 49H         0.1986
     26 N1         -2.7440   20.0450  -11.8790 N.am      1 49H        -0.2834
     27 O1         -4.3830   18.5870  -11.7340 O.2       1 49H        -0.3949
     28 C2         -1.3300   20.3820  -12.0400 C.3       1 49H         0.0513
     29 N2         -0.7320   17.9370  -11.7150 N.am      1 49H        -0.2313
     30 C3         -0.4230   19.3420  -11.3560 C.3       1 49H         0.0577
     31 N3         -0.0280   15.6940  -11.8580 N.am      1 49H        -0.1619
     32 O3         -1.7410   16.8870  -18.1770 O.3       1 49H        -0.3182
     33 C4         -2.1670   17.6630  -12.0580 C.3       1 49H         0.1240
     34 C5          0.1850   16.9630  -11.4380 C.2       1 49H         0.3083
     35 O5          1.1630   17.2220  -10.7570 O.2       1 49H        -0.3853
     36 C6         -0.8610   15.0940  -12.8440 C.2       1 49H         0.1329
     37 O6          0.8710   17.1010  -14.1890 O.3       1 49H        -0.3097
     38 C7         -0.7660   13.5580  -11.1850 C.3       1 49H         0.0591
     39 C8          0.3870   14.5870  -10.9800 C.3       1 49H         0.1244
     40 C9          2.0140   17.7430  -14.8100 C.3       1 49H         0.0782
     41 H1          1.9356   14.9290  -13.2527 H         1 49H         0.0558
     42 H2          1.9887   13.1084   -9.3659 H         1 49H         0.0558
     43 H3          0.7366   12.0303  -12.9197 H         1 49H         0.0562
     44 H4         -1.5115   11.7737   -9.2732 H         1 49H         0.0558
     45 H5         -2.5765   14.1421  -14.6269 H         1 49H         0.0638
     46 H6          4.1784   13.9977  -13.7177 H         1 49H         0.0606
     47 H7          4.2015   12.1183   -9.8636 H         1 49H         0.0606
     48 H8         -1.0439    9.3467   -9.1571 H         1 49H         0.0599
     49 H9         -3.0364   14.8970  -16.9254 H         1 49H         0.0483
     50 H10         0.1200   17.7596  -16.6157 H         1 49H         0.0483
     51 H11         0.3727    8.2734  -10.8861 H         1 49H         0.0565
     52 H12        -2.9201   17.1199  -19.8861 H         1 49H         0.0582
     53 H13        -3.8184   17.0481  -18.3322 H         1 49H         0.0582
     54 H14        -3.1057   15.5530  -19.0276 H         1 49H         0.0582
     55 H15         3.7059   17.1984  -16.0591 H         1 49H         0.0259
     56 H16         2.2150   16.2466  -16.3721 H         1 49H         0.0259
     57 H17         3.1957   15.9223  -14.9025 H         1 49H         0.0259
     58 H18         2.2403   19.1118  -13.1456 H         1 49H         0.0259
     59 H19         3.7289   18.8753  -14.1227 H         1 49H         0.0259
     60 H20         3.1832   17.5906  -12.9920 H         1 49H         0.0259
     61 H21        -3.4036   20.7872  -11.7604 H         1 49H         0.1852
     62 H22        -1.1440   21.3691  -11.5916 H         1 49H         0.0540
     63 H23        -1.0900   20.4156  -13.1130 H         1 49H         0.0540
     64 H24        -0.5323   19.4519  -10.2670 H         1 49H         0.0542
     65 H25         0.6183   19.5504  -11.6429 H         1 49H         0.0542
     66 H26        -2.1948   17.3606  -13.1153 H         1 49H         0.0763
     67 H27        -2.4956   16.8235  -11.4277 H         1 49H         0.0763
     68 H28        -1.5230   13.7355  -10.4070 H         1 49H         0.0549
     69 H29         0.3884   14.9258   -9.9335 H         1 49H         0.0832
     70 H30         1.6715   18.5261  -15.5024 H         1 49H         0.0650
@<TRIPOS>BOND
     1   36    1 2  
     2    1   38 1  
     3    2    5 ar 
     4    2    6 ar 
     5   39    2 1  
     6    3    7 ar 
     7    3    8 ar 
     8   38    3 1  
     9    4    9 ar 
    10   10    4 ar 
    11    4   36 1  
    12    5   11 ar 
    13    6   12 ar 
    14    7   13 ar 
    15    8   14 ar 
    16    9   15 ar 
    17   10   16 ar 
    18   37   10 1  
    19   11   17 ar 
    20   12   17 ar 
    21   13   18 ar 
    22   13   21 1  
    23   14   18 ar 
    24   19   15 ar 
    25   16   19 ar 
    26   17   20 1  
    27   19   32 1  
    28   32   22 1  
    29   40   23 1  
    30   40   24 1  
    31   25   26 am 
    32   25   27 2  
    33   33   25 1  
    34   28   26 1  
    35   30   28 1  
    36   29   30 1  
    37   29   33 1  
    38   34   29 am 
    39   31   34 am 
    40   36   31 1  
    41   31   39 1  
    42   34   35 2  
    43   37   40 1  
    44   38   39 1  
    45    5   41 1  
    46    6   42 1  
    47    7   43 1  
    48    8   44 1  
    49    9   45 1  
    50   11   46 1  
    51   12   47 1  
    52   14   48 1  
    53   15   49 1  
    54   16   50 1  
    55   18   51 1  
    56   22   52 1  
    57   22   53 1  
    58   22   54 1  
    59   23   55 1  
    60   23   56 1  
    61   23   57 1  
    62   24   58 1  
    63   24   59 1  
    64   24   60 1  
    65   26   61 1  
    66   28   62 1  
    67   28   63 1  
    68   30   64 1  
    69   30   65 1  
    70   33   66 1  
    71   33   67 1  
    72   38   68 1  
    73   39   69 1  
    74   40   70 1  
@<TRIPOS>SUBSTRUCTURE
     1 49H         1

