### 
### Created by X-TOOL on Mon Sep 10 21:13:30 2018
### 

@<TRIPOS>MOLECULE
2n27_ligand
   51    51     1     0     0
SMALL
GAST_HUCK


@<TRIPOS>ATOM
      1 C1         -8.2530   -3.3390    4.6350 C.ar      1 4DY        -0.0407
      2 C2         -8.6460   -3.9040    5.8440 C.ar      1 4DY        -0.0379
      3 C3         -9.7180   -4.7910    5.8670 C.ar      1 4DY         0.1130
      4 C4        -10.3920   -5.1090    4.6940 C.ar      1 4DY         0.1091
      5 C5        -10.0000   -4.5420    3.4840 C.ar      1 4DY        -0.0481
      6 C40         4.4770   -3.7370    2.5630 C.3       1 4DY        -0.0627
      7 C38         3.6280   -4.0720    3.7900 C.3       1 4DY        -0.0467
      8 C44         4.3710   -5.0790    4.6670 C.3       1 4DY        -0.0627
      9 C37         2.2970   -4.6740    3.3360 C.3       1 4DY        -0.0507
     10 C36         0.9770   -4.0820    3.8380 C.3       1 4DY        -0.0528
     11 C33        -0.3530   -4.6400    3.3300 C.3       1 4DY        -0.0529
     12 C30        -1.4930   -3.7120    3.7540 C.3       1 4DY        -0.0510
     13 C27        -2.8040   -4.4980    3.7890 C.3       1 4DY        -0.0361
     14 C24        -3.9010   -3.6930    3.0880 C.3       1 4DY         0.0374
     15 C22        -4.8640   -3.1270    4.1350 C.2       1 4DY         0.1776
     16 O23        -4.4720   -2.8350    5.2630 O.2       1 4DY        -0.3969
     17 N21        -6.1300   -2.9870    3.7220 N.am      1 4DY        -0.2774
     18 C17        -7.1800   -2.4520    4.6010 C.3       1 4DY         0.0572
     19 C6         -8.9250   -3.6570    3.4580 C.ar      1 4DY        -0.0782
     20 O10       -11.4340   -5.9780    4.7930 O.3       1 4DY        -0.3414
     21 O12       -10.1530   -5.3840    7.0120 O.3       1 4DY        -0.3266
     22 C13       -11.2690   -4.6630    7.5370 C.3       1 4DY         0.0568
     23 H1         -8.1219   -3.6556    6.7598 H         1 4DY         0.0451
     24 H2        -10.5275   -4.7876    2.5694 H         1 4DY         0.0492
     25 H3          5.4348   -3.3039    2.8870 H         1 4DY         0.0232
     26 H4          3.9411   -3.0117    1.9332 H         1 4DY         0.0232
     27 H5          4.6659   -4.6544    1.9862 H         1 4DY         0.0232
     28 H6          3.4382   -3.1545    4.3663 H         1 4DY         0.0295
     29 H7          3.7590   -5.3188    5.5490 H         1 4DY         0.0232
     30 H8          5.3285   -4.6460    4.9919 H         1 4DY         0.0232
     31 H9          4.5602   -5.9971    4.0914 H         1 4DY         0.0232
     32 H10         2.3066   -5.7311    3.6400 H         1 4DY         0.0268
     33 H11         2.2770   -4.6084    2.2382 H         1 4DY         0.0268
     34 H12         0.9910   -3.0123    3.5822 H         1 4DY         0.0265
     35 H13         0.9727   -4.1975    4.9319 H         1 4DY         0.0265
     36 H14        -0.5173   -5.6405    3.7565 H         1 4DY         0.0265
     37 H15        -0.3260   -4.7091    2.2325 H         1 4DY         0.0265
     38 H16        -1.5802   -2.8855    3.0334 H         1 4DY         0.0267
     39 H17        -1.2823   -3.3058    4.7543 H         1 4DY         0.0267
     40 H18        -3.0943   -4.6804    4.8342 H         1 4DY         0.0290
     41 H19        -2.6686   -5.4599    3.2729 H         1 4DY         0.0290
     42 H20        -4.4529   -4.3481    2.3979 H         1 4DY         0.0502
     43 H21        -3.4455   -2.8662    2.5233 H         1 4DY         0.0502
     44 H22        -6.3683   -3.2542    2.7883 H         1 4DY         0.1875
     45 H23        -6.7778   -2.3239    5.6168 H         1 4DY         0.0661
     46 H24        -7.5202   -1.4794    4.2159 H         1 4DY         0.0661
     47 H25        -8.6109   -3.2149    2.5194 H         1 4DY         0.0437
     48 H26       -11.5360   -6.2465    5.6985 H         1 4DY         0.2420
     49 H27       -11.6159   -5.1469    8.4619 H         1 4DY         0.0573
     50 H28       -12.0835   -4.6588    6.7977 H         1 4DY         0.0573
     51 H29       -10.9670   -3.6281    7.7557 H         1 4DY         0.0573
@<TRIPOS>BOND
     1    1    2 ar 
     2   18    1 1  
     3    1   19 ar 
     4    2    3 ar 
     5    3    4 ar 
     6    3   21 1  
     7    5    4 ar 
     8    4   20 1  
     9   19    5 ar 
    10    7    6 1  
    11    7    8 1  
    12    9    7 1  
    13   10    9 1  
    14   11   10 1  
    15   12   11 1  
    16   13   12 1  
    17   14   13 1  
    18   15   14 1  
    19   15   16 2  
    20   17   15 am 
    21   17   18 1  
    22   21   22 1  
    23    2   23 1  
    24    5   24 1  
    25    6   25 1  
    26    6   26 1  
    27    6   27 1  
    28    7   28 1  
    29    8   29 1  
    30    8   30 1  
    31    8   31 1  
    32    9   32 1  
    33    9   33 1  
    34   10   34 1  
    35   10   35 1  
    36   11   36 1  
    37   11   37 1  
    38   12   38 1  
    39   12   39 1  
    40   13   40 1  
    41   13   41 1  
    42   14   42 1  
    43   14   43 1  
    44   17   44 1  
    45   18   45 1  
    46   18   46 1  
    47   19   47 1  
    48   20   48 1  
    49   22   49 1  
    50   22   50 1  
    51   22   51 1  
@<TRIPOS>SUBSTRUCTURE
     1 4DY         1

