### 
### Created by X-TOOL on Mon Sep 10 21:13:34 2018
### 

@<TRIPOS>MOLECULE
2ndo_ligand
   29    30     1     0     0
SMALL
GAST_HUCK


@<TRIPOS>ATOM
      1 O3          7.8580   -9.9300   -9.0100 O.co2     1 SFQ        -0.5662
      2 C13         8.0120  -10.5040   -7.9120 C.2       1 SFQ         0.0531
      3 O4          7.1160  -11.2600   -7.4840 O.co2     1 SFQ        -0.5662
      4 C8          9.1870  -10.3150   -7.1900 C.ar      1 SFQ         0.0262
      5 C9         10.1890   -9.5040   -7.7070 C.ar      1 SFQ        -0.0634
      6 C10        11.3790   -9.3330   -7.0050 C.ar      1 SFQ        -0.0754
      7 C11        11.5690   -9.9710   -5.7870 C.ar      1 SFQ        -0.0750
      8 C12        10.5700  -10.7780   -5.2630 C.ar      1 SFQ        -0.0414
      9 C7          9.3810  -10.9440   -5.9650 C.ar      1 SFQ         0.0780
     10 N1          8.3800  -11.6940   -5.5060 N.am      1 SFQ        -0.1833
     11 S1          8.6040  -12.4500   -4.0780 S.o2      1 SFQ         0.0916
     12 O1          7.2700  -13.0390   -3.6120 O.2       1 SFQ        -0.1440
     13 O2          9.1040  -11.4560   -3.0280 O.2       1 SFQ        -0.1440
     14 C4          9.7620  -13.7490   -4.2830 C.ar      1 SFQ         0.1169
     15 C2         10.9500  -13.7530   -3.5610 C.ar      1 SFQ        -0.0315
     16 C1         11.8590  -14.7890   -3.7320 C.ar      1 SFQ        -0.0488
     17 C3         11.5820  -15.8240   -4.6160 C.ar      1 SFQ         0.0096
     18 I1         12.9500  -17.3860   -4.8740 I         1 SFQ        -0.0493
     19 C6         10.3940  -15.8210   -5.3360 C.ar      1 SFQ        -0.0488
     20 C5          9.4840  -14.7830   -5.1690 C.ar      1 SFQ        -0.0315
     21 H1         10.0444   -9.0038   -8.6578 H         1 SFQ         0.0606
     22 H2         12.1596   -8.6997   -7.4108 H         1 SFQ         0.0480
     23 H3         12.4985   -9.8385   -5.2451 H         1 SFQ         0.0593
     24 H4         10.7152  -11.2766   -4.3115 H         1 SFQ         0.0490
     25 H5          7.5255  -11.7896   -6.0165 H         1 SFQ         0.2186
     26 H6         11.1663  -12.9495   -2.8663 H         1 SFQ         0.0644
     27 H7         12.7881  -14.7899   -3.1735 H         1 SFQ         0.0646
     28 H8         10.1766  -16.6271   -6.0274 H         1 SFQ         0.0646
     29 H9          8.5567  -14.7803   -5.7305 H         1 SFQ         0.0644
@<TRIPOS>BOND
     1    1    2 ar 
     2    2    3 ar 
     3    2    4 1  
     4    4    5 ar 
     5    4    9 ar 
     6    5    6 ar 
     7    6    7 ar 
     8    7    8 ar 
     9    8    9 ar 
    10    9   10 1  
    11   10   11 am 
    12   11   12 2  
    13   11   13 2  
    14   11   14 1  
    15   14   15 ar 
    16   14   20 ar 
    17   15   16 ar 
    18   16   17 ar 
    19   17   18 1  
    20   17   19 ar 
    21   19   20 ar 
    22    5   21 1  
    23    6   22 1  
    24    7   23 1  
    25    8   24 1  
    26   10   25 1  
    27   15   26 1  
    28   16   27 1  
    29   19   28 1  
    30   20   29 1  
@<TRIPOS>SUBSTRUCTURE
     1 SFQ         1

