### 
### Created by X-TOOL on Mon Sep 10 21:12:56 2018
### 

@<TRIPOS>MOLECULE
2nmx_ligand
   30    30     1     0     0
SMALL
GAST_HUCK


@<TRIPOS>ATOM
      1 C1        -17.1190   -0.3350  -19.2180 C.ar      1 M25         0.1009
      2 C2        -17.2670   -1.1950  -18.1260 C.ar      1 M25        -0.0419
      3 C3        -17.8370   -0.6910  -16.9680 C.ar      1 M25        -0.0584
      4 C4        -18.2630    0.6470  -16.8510 C.ar      1 M25        -0.0410
      5 C5        -18.1000    1.4990  -17.9670 C.ar      1 M25        -0.0584
      6 C6        -17.5280    1.0280  -19.1630 C.ar      1 M25        -0.0419
      7 S         -16.3990   -0.9430  -20.7100 S.o2      1 M25         0.0628
      8 O1        -16.0470    0.1710  -21.5580 O.2       1 M25        -0.1514
      9 O2        -17.3810   -1.8790  -21.2420 O.2       1 M25        -0.1514
     10 N1        -15.0290   -1.7550  -20.3310 N.am      1 M25        -0.2617
     11 C7        -18.8660    1.1360  -15.5610 C.3       1 M25         0.0011
     12 C8        -17.7940    1.6190  -14.5950 C.3       1 M25         0.0404
     13 N2        -18.4260    2.0720  -13.3570 N.am      1 M25        -0.2852
     14 C9        -18.7940    3.3740  -13.1580 C.2       1 M25         0.1730
     15 C10       -19.4340    3.6210  -11.8050 C.3       1 M25         0.0257
     16 O3        -18.6280    4.2840  -13.9800 O.2       1 M25        -0.3974
     17 H1        -16.9445   -2.2283  -18.1836 H         1 M25         0.0619
     18 H2        -17.9601   -1.3525  -16.1181 H         1 M25         0.0557
     19 H3        -18.4210    2.5322  -17.9003 H         1 M25         0.0557
     20 H4        -17.4023    1.6832  -20.0174 H         1 M25         0.0619
     21 H5        -14.4800   -2.1742  -21.0541 H         1 M25         0.1634
     22 H6        -14.7412   -1.8318  -19.3764 H         1 M25         0.1634
     23 H7        -19.4251    0.3127  -15.0925 H         1 M25         0.0446
     24 H8        -19.5520    1.9677  -15.7792 H         1 M25         0.0446
     25 H9        -17.2383    2.4523  -15.0498 H         1 M25         0.0542
     26 H10       -17.1011    0.7940  -14.3730 H         1 M25         0.0542
     27 H11       -18.5952    1.4064  -12.6301 H         1 M25         0.1852
     28 H12       -19.7029    4.6838  -11.7152 H         1 M25         0.0467
     29 H13       -18.7233    3.3541  -11.0090 H         1 M25         0.0467
     30 H14       -20.3399    3.0043  -11.7098 H         1 M25         0.0467
@<TRIPOS>BOND
     1    1    2 ar 
     2    1    6 ar 
     3    1    7 1  
     4    2    3 ar 
     5    3    4 ar 
     6    4    5 ar 
     7    4   11 1  
     8    5    6 ar 
     9    7    8 2  
    10    7    9 2  
    11    7   10 am 
    12   11   12 1  
    13   12   13 1  
    14   13   14 am 
    15   14   15 1  
    16   14   16 2  
    17    2   17 1  
    18    3   18 1  
    19    5   19 1  
    20    6   20 1  
    21   10   21 1  
    22   10   22 1  
    23   11   23 1  
    24   11   24 1  
    25   12   25 1  
    26   12   26 1  
    27   13   27 1  
    28   15   28 1  
    29   15   29 1  
    30   15   30 1  
@<TRIPOS>SUBSTRUCTURE
     1 M25         1

