### 
### Created by X-TOOL on Mon Sep 10 21:12:55 2018
### 

@<TRIPOS>MOLECULE
2nmy_ligand
  100   104     1     0     0
SMALL
GAST_HUCK


@<TRIPOS>ATOM
      1 O1         21.3160   28.0230   18.7860 O.2       1 ROC        -0.3762
      2 C1         21.7490   26.8050   18.7900 C.2       1 ROC         0.2293
      3 N1         23.3760   25.0100   19.2660 N.ar      1 ROC        -0.2737
      4 C2         22.8630   26.2350   19.5820 C.ar      1 ROC         0.1219
      5 C3         23.4120   26.9840   20.6270 C.ar      1 ROC        -0.0136
      6 C4         24.5010   26.4220   21.3230 C.ar      1 ROC        -0.0314
      7 C5         25.0350   25.1550   20.9980 C.ar      1 ROC         0.0097
      8 C6         26.1110   24.5650   21.6620 C.ar      1 ROC        -0.0444
      9 C7         26.5900   23.3250   21.3010 C.ar      1 ROC        -0.0546
     10 C8         26.0060   22.6300   20.2570 C.ar      1 ROC        -0.0545
     11 C9R        24.9460   23.1980   19.5950 C.ar      1 ROC        -0.0370
     12 C10        24.4350   24.4580   19.9370 C.ar      1 ROC         0.0527
     13 N2         21.1920   25.9130   17.9020 N.am      1 ROC        -0.2600
     14 C11        19.9340   26.1320   17.0460 C.3       1 ROC         0.1473
     15 C12        18.8800   24.9880   17.2750 C.2       1 ROC         0.2045
     16 O2         18.8350   23.9360   16.5710 O.2       1 ROC        -0.3943
     17 C13        20.2840   26.2720   15.5030 C.3       1 ROC         0.0773
     18 C14        21.2790   27.3910   15.3910 C.2       1 ROC         0.1780
     19 O3         22.5290   27.1740   15.1770 O.2       1 ROC        -0.3970
     20 N3         20.8740   28.6270   15.5050 N.am      1 ROC        -0.3007
     21 C15        15.6590   24.7940   18.4730 C.3       1 ROC         0.1194
     22 O4         15.3100   25.8970   19.3130 O.3       1 ROC        -0.3840
     23 C16        17.0730   24.2490   18.8020 C.3       1 ROC         0.0823
     24 N4         18.1020   25.1880   18.3350 N.am      1 ROC        -0.2772
     25 C17        17.2550   23.9090   20.3430 C.3       1 ROC         0.0066
     26 C18        18.7020   23.6360   20.7300 C.ar      1 ROC        -0.0408
     27 C19        19.3300   22.4280   20.3850 C.ar      1 ROC        -0.0603
     28 C20        19.4280   24.5580   21.4450 C.ar      1 ROC        -0.0603
     29 C21        20.6250   22.1710   20.7480 C.ar      1 ROC        -0.0686
     30 C22        20.7280   24.3030   21.8100 C.ar      1 ROC        -0.0686
     31 C23        21.3710   23.1000   21.4740 C.ar      1 ROC        -0.0687
     32 N5         14.4650   22.9930   17.2080 N.4       1 ROC         0.2562
     33 C24        14.5760   23.7260   18.4630 C.3       1 ROC        -0.0008
     34 C25        13.8350   21.6460   17.3150 C.3       1 ROC         0.0688
     35 C26        14.5280   20.7830   18.3590 C.2       1 ROC         0.2251
     36 O5         15.7260   20.5630   18.2430 O.2       1 ROC        -0.3909
     37 C27        13.8440   20.9340   15.9790 C.3       1 ROC         0.0113
     38 C28        13.1820   21.7180   14.8750 C.3       1 ROC        -0.0261
     39 C29        13.2990   21.0840   13.4710 C.3       1 ROC        -0.0494
     40 C30        14.7250   21.2020   12.9000 C.3       1 ROC        -0.0528
     41 C31        15.0460   22.6730   12.7470 C.3       1 ROC        -0.0526
     42 C32        15.0920   23.2290   14.1710 C.3       1 ROC        -0.0451
     43 C33        13.7210   23.1660   14.8180 C.3       1 ROC         0.0024
     44 C34        13.7230   23.7890   16.1940 C.3       1 ROC        -0.0266
     45 N6         13.7430   20.1270   19.2750 N.am      1 ROC        -0.2771
     46 C35        14.1900   19.1990   20.3240 C.3       1 ROC         0.0448
     47 C36        12.9740   18.7690   21.0910 C.3       1 ROC        -0.0396
     48 C37        15.1320   19.9730   21.2380 C.3       1 ROC        -0.0396
     49 C38        14.9270   18.0370   19.6990 C.3       1 ROC        -0.0396
     50 H1         23.0160   27.9579   20.8913 H         1 ROC         0.0729
     51 H2         24.9452   26.9824   22.1376 H         1 ROC         0.0774
     52 H3         26.5815   25.0954   22.4820 H         1 ROC         0.0657
     53 H4         27.4272   22.8923   21.8366 H         1 ROC         0.0652
     54 H5         26.3788   21.6543   19.9669 H         1 ROC         0.0657
     55 H6         24.4874   22.6525   18.7782 H         1 ROC         0.0653
     56 H7         21.6534   25.0313   17.8035 H         1 ROC         0.1882
     57 H8         19.4757   27.0782   17.3696 H         1 ROC         0.0826
     58 H9         19.3773   26.5109   14.9279 H         1 ROC         0.0551
     59 H10        20.7213   25.3357   15.1261 H         1 ROC         0.0551
     60 H11        21.5311   29.3772   15.4315 H         1 ROC         0.1814
     61 H12        19.9068   28.8234   15.6658 H         1 ROC         0.1814
     62 H13        15.7123   25.1856   17.4464 H         1 ROC         0.0672
     63 H14        15.3200   25.6177   20.2210 H         1 ROC         0.2101
     64 H15        17.2012   23.3094   18.2447 H         1 ROC         0.0606
     65 H16        18.2260   26.0363   18.8498 H         1 ROC         0.1857
     66 H17        16.6561   23.0165   20.5773 H         1 ROC         0.0449
     67 H18        16.8898   24.7614   20.9346 H         1 ROC         0.0449
     68 H19        18.7788   21.6847   19.8204 H         1 ROC         0.0557
     69 H20        18.9689   25.4993   21.7249 H         1 ROC         0.0557
     70 H21        21.0792   21.2280   20.4660 H         1 ROC         0.0599
     71 H22        21.2731   25.0517   22.3734 H         1 ROC         0.0599
     72 H23        22.3966   22.9031   21.7646 H         1 ROC         0.0559
     73 H24        15.4041   22.8551   16.8688 H         1 ROC         0.2057
     74 H25        13.6104   24.2132   18.6634 H         1 ROC         0.0841
     75 H26        14.7962   23.0051   19.2641 H         1 ROC         0.0841
     76 H27        12.7888   21.7857   17.6248 H         1 ROC         0.1100
     77 H28        13.3148   19.9763   16.0914 H         1 ROC         0.0348
     78 H29        14.8890   20.7442   15.6927 H         1 ROC         0.0348
     79 H30        12.1108   21.7665   15.1203 H         1 ROC         0.0309
     80 H31        12.6012   21.5952   12.7915 H         1 ROC         0.0268
     81 H32        13.0309   20.0193   13.5389 H         1 ROC         0.0268
     82 H33        14.7774   20.7045   11.9204 H         1 ROC         0.0265
     83 H34        15.4431   20.7327   13.5885 H         1 ROC         0.0265
     84 H35        14.2640   23.1787   12.1615 H         1 ROC         0.0265
     85 H36        16.0188   22.8051   12.2507 H         1 ROC         0.0265
     86 H37        15.4279   24.2760   14.1388 H         1 ROC         0.0270
     87 H38        15.8000   22.6349   14.7675 H         1 ROC         0.0270
     88 H39        13.0340   23.7516   14.1894 H         1 ROC         0.0355
     89 H40        14.1880   24.7835   16.1245 H         1 ROC         0.0818
     90 H41        12.6807   23.8941   16.5294 H         1 ROC         0.0818
     91 H42        12.7594   20.2994   19.2228 H         1 ROC         0.1859
     92 H43        13.2709   18.0711   21.8877 H         1 ROC         0.0254
     93 H44        12.2687   18.2698   20.4103 H         1 ROC         0.0254
     94 H45        12.4911   19.6508   21.5373 H         1 ROC         0.0254
     95 H46        15.4905   19.3112   22.0402 H         1 ROC         0.0254
     96 H47        14.5961   20.8265   21.6789 H         1 ROC         0.0254
     97 H48        15.9894   20.3400   20.6548 H         1 ROC         0.0254
     98 H49        15.2590   17.3463   20.4881 H         1 ROC         0.0254
     99 H50        15.8021   18.4116   19.1477 H         1 ROC         0.0254
    100 H51        14.2564   17.5073   19.0064 H         1 ROC         0.0254
@<TRIPOS>BOND
     1    2    1 2  
     2    2    4 1  
     3   13    2 am 
     4    4    3 ar 
     5    3   12 ar 
     6    4    5 ar 
     7    5    6 ar 
     8    6    7 ar 
     9    7    8 ar 
    10   12    7 ar 
    11    8    9 ar 
    12   10    9 ar 
    13   11   10 ar 
    14   12   11 ar 
    15   14   13 1  
    16   15   14 1  
    17   14   17 1  
    18   15   16 2  
    19   24   15 am 
    20   17   18 1  
    21   18   19 2  
    22   18   20 am 
    23   21   22 1  
    24   23   21 1  
    25   21   33 1  
    26   23   24 1  
    27   23   25 1  
    28   25   26 1  
    29   26   27 ar 
    30   26   28 ar 
    31   27   29 ar 
    32   28   30 ar 
    33   29   31 ar 
    34   30   31 ar 
    35   33   32 1  
    36   32   34 1  
    37   32   44 1  
    38   34   35 1  
    39   34   37 1  
    40   35   36 2  
    41   35   45 am 
    42   37   38 1  
    43   38   39 1  
    44   38   43 1  
    45   39   40 1  
    46   40   41 1  
    47   41   42 1  
    48   42   43 1  
    49   43   44 1  
    50   45   46 1  
    51   46   47 1  
    52   46   48 1  
    53   46   49 1  
    54    5   50 1  
    55    6   51 1  
    56    8   52 1  
    57    9   53 1  
    58   10   54 1  
    59   11   55 1  
    60   13   56 1  
    61   14   57 1  
    62   17   58 1  
    63   17   59 1  
    64   20   60 1  
    65   20   61 1  
    66   21   62 1  
    67   22   63 1  
    68   23   64 1  
    69   24   65 1  
    70   25   66 1  
    71   25   67 1  
    72   27   68 1  
    73   28   69 1  
    74   29   70 1  
    75   30   71 1  
    76   31   72 1  
    77   32   73 1  
    78   33   74 1  
    79   33   75 1  
    80   34   76 1  
    81   37   77 1  
    82   37   78 1  
    83   38   79 1  
    84   39   80 1  
    85   39   81 1  
    86   40   82 1  
    87   40   83 1  
    88   41   84 1  
    89   41   85 1  
    90   42   86 1  
    91   42   87 1  
    92   43   88 1  
    93   44   89 1  
    94   44   90 1  
    95   45   91 1  
    96   47   92 1  
    97   47   93 1  
    98   47   94 1  
    99   48   95 1  
   100   48   96 1  
   101   48   97 1  
   102   49   98 1  
   103   49   99 1  
   104   49  100 1  
@<TRIPOS>SUBSTRUCTURE
     1 ROC         1

