### 
### Created by X-TOOL on Mon Sep 10 21:12:55 2018
### 

@<TRIPOS>MOLECULE
2nmz_ligand
  100   104     1     0     0
SMALL
GAST_HUCK


@<TRIPOS>ATOM
      1 O1         18.8080   35.1930   19.1060 O.2       1 ROC        -0.3762
      2 C1         19.4420   35.7070   18.0870 C.2       1 ROC         0.2293
      3 N1         20.5190   37.5130   16.8160 N.ar      1 ROC        -0.2737
      4 C2         20.3810   36.8550   18.0380 C.ar      1 ROC         0.1219
      5 C3         21.0610   37.3250   19.1550 C.ar      1 ROC        -0.0136
      6 C4         21.9900   38.3620   19.0420 C.ar      1 ROC        -0.0314
      7 C5         22.0520   39.0840   17.8470 C.ar      1 ROC         0.0097
      8 C6         22.8740   40.2130   17.7490 C.ar      1 ROC        -0.0444
      9 C7         22.8750   40.9410   16.5830 C.ar      1 ROC        -0.0546
     10 C8         22.2200   40.4090   15.5010 C.ar      1 ROC        -0.0545
     11 C9R        21.5670   39.2210   15.4910 C.ar      1 ROC        -0.0370
     12 C10        21.3480   38.6040   16.7390 C.ar      1 ROC         0.0527
     13 N2         19.1240   35.1770   16.9000 N.am      1 ROC        -0.2600
     14 C11        18.3220   33.9500   16.7130 C.3       1 ROC         0.1473
     15 C12        19.1400   32.9980   15.8530 C.2       1 ROC         0.2045
     16 O2         19.1080   33.1340   14.6100 O.2       1 ROC        -0.3943
     17 C13        16.9670   34.1710   16.1770 C.3       1 ROC         0.0773
     18 C14        16.2190   35.0510   17.1230 C.2       1 ROC         0.1780
     19 O3         15.9560   36.2410   16.8850 O.2       1 ROC        -0.3970
     20 N3         15.8500   34.5260   18.1580 N.am      1 ROC        -0.3007
     21 C15        20.1470   29.7160   16.0930 C.3       1 ROC         0.1194
     22 O4         20.3780   29.4140   17.4620 O.3       1 ROC        -0.3840
     23 C16        20.6840   31.1000   15.7290 C.3       1 ROC         0.0823
     24 N4         19.8940   32.0840   16.4740 N.am      1 ROC        -0.2772
     25 C17        22.1470   31.3120   16.0740 C.3       1 ROC         0.0066
     26 C18        22.5950   32.7250   16.1290 C.ar      1 ROC        -0.0408
     27 C19        22.8400   33.4010   14.9200 C.ar      1 ROC        -0.0603
     28 C20        22.7840   33.3930   17.3260 C.ar      1 ROC        -0.0603
     29 C21        23.2900   34.6910   14.9660 C.ar      1 ROC        -0.0686
     30 C22        23.1740   34.7100   17.3230 C.ar      1 ROC        -0.0686
     31 C23        23.4750   35.3600   16.1490 C.ar      1 ROC        -0.0687
     32 N5         19.8250   28.6180   13.9350 N.4       1 ROC         0.2562
     33 C24        20.5760   28.5920   15.1630 C.3       1 ROC        -0.0008
     34 C25        20.5310   28.0220   12.7960 C.3       1 ROC         0.0688
     35 C26        21.8210   28.7490   12.3920 C.2       1 ROC         0.2251
     36 O5         21.7120   29.9440   12.1960 O.2       1 ROC        -0.3909
     37 C27        19.7080   28.1670   11.5340 C.3       1 ROC         0.0113
     38 C28        18.3780   27.4230   11.6980 C.3       1 ROC        -0.0261
     39 C29        17.4920   27.6600   10.4740 C.3       1 ROC        -0.0494
     40 C30        17.0860   29.1530   10.3250 C.3       1 ROC        -0.0528
     41 C31        16.1960   29.4130   11.5460 C.3       1 ROC        -0.0526
     42 C32        17.1140   29.3220   12.7320 C.3       1 ROC        -0.0451
     43 C33        17.6670   27.9340   12.9730 C.3       1 ROC         0.0024
     44 C34        18.5950   27.8430   14.1640 C.3       1 ROC        -0.0266
     45 N6         22.8690   27.9140   12.2830 N.am      1 ROC        -0.2771
     46 C35        24.2190   28.2970   11.8940 C.3       1 ROC         0.0448
     47 C36        25.0000   27.0040   11.7370 C.3       1 ROC        -0.0396
     48 C37        24.4880   29.4030   12.7460 C.3       1 ROC        -0.0396
     49 C38        24.1310   29.0940   10.5730 C.3       1 ROC        -0.0396
     50 H1         20.8683   36.8818   20.1253 H         1 ROC         0.0729
     51 H2         22.6512   38.6025   19.8667 H         1 ROC         0.0774
     52 H3         23.5015   40.5092   18.5818 H         1 ROC         0.0657
     53 H4         23.3752   41.9007   16.5205 H         1 ROC         0.0652
     54 H5         22.2251   40.9838   14.5820 H         1 ROC         0.0657
     55 H6         21.2292   38.7670   14.5665 H         1 ROC         0.0653
     56 H7         19.4530   35.6453   16.0800 H         1 ROC         0.1882
     57 H8         18.1937   33.4865   17.7023 H         1 ROC         0.0826
     58 H9         16.4462   33.2073   16.0768 H         1 ROC         0.0551
     59 H10        17.0325   34.6566   15.1922 H         1 ROC         0.0551
     60 H11        15.3435   35.0588   18.8360 H         1 ROC         0.1814
     61 H12        16.0535   33.5621   18.3299 H         1 ROC         0.1814
     62 H13        19.0552   29.7850   15.9784 H         1 ROC         0.0672
     63 H14        20.0341   28.5502   17.6570 H         1 ROC         0.2101
     64 H15        20.5537   31.2553   14.6479 H         1 ROC         0.0606
     65 H16        19.9192   32.0719   17.4736 H         1 ROC         0.1857
     66 H17        22.7520   30.7947   15.3149 H         1 ROC         0.0449
     67 H18        22.3310   30.8602   17.0599 H         1 ROC         0.0449
     68 H19        22.6749   32.9078   13.9689 H         1 ROC         0.0557
     69 H20        22.6243   32.8770   18.2659 H         1 ROC         0.0557
     70 H21        23.5081   35.2028   14.0356 H         1 ROC         0.0599
     71 H22        23.2458   35.2463   18.2623 H         1 ROC         0.0599
     72 H23        23.8497   36.3772   16.1584 H         1 ROC         0.0559
     73 H24        19.5964   29.5738   13.7110 H         1 ROC         0.2057
     74 H25        20.4097   27.6275   15.6650 H         1 ROC         0.0841
     75 H26        21.6455   28.7056   14.9321 H         1 ROC         0.0841
     76 H27        20.7382   26.9656   13.0218 H         1 ROC         0.1100
     77 H28        20.2627   27.7419   10.6845 H         1 ROC         0.0348
     78 H29        19.5103   29.2327   11.3465 H         1 ROC         0.0348
     79 H30        18.5739   26.3452   11.7980 H         1 ROC         0.0309
     80 H31        16.5801   27.0529   10.5735 H         1 ROC         0.0268
     81 H32        18.0420   27.3506    9.5730 H         1 ROC         0.0268
     82 H33        16.5278   29.3161    9.3913 H         1 ROC         0.0265
     83 H34        17.9727   29.8038   10.3406 H         1 ROC         0.0265
     84 H35        15.4029   28.6537   11.6135 H         1 ROC         0.0265
     85 H36        15.7420   30.4131   11.4860 H         1 ROC         0.0265
     86 H37        16.5555   29.6327   13.6272 H         1 ROC         0.0270
     87 H38        17.9584   30.0081   12.5701 H         1 ROC         0.0270
     88 H39        16.8123   27.2716   13.1747 H         1 ROC         0.0355
     89 H40        18.0804   28.2390   15.0519 H         1 ROC         0.0818
     90 H41        18.8603   26.7890   14.3335 H         1 ROC         0.0818
     91 H42        22.7078   26.9482   12.4862 H         1 ROC         0.1859
     92 H43        26.0344   27.2340   11.4418 H         1 ROC         0.0254
     93 H44        24.5275   26.3819   10.9626 H         1 ROC         0.0254
     94 H45        25.0040   26.4596   12.6928 H         1 ROC         0.0254
     95 H46        25.4987   29.7859   12.5416 H         1 ROC         0.0254
     96 H47        24.4232   29.0814   13.7959 H         1 ROC         0.0254
     97 H48        23.7503   30.1974   12.5596 H         1 ROC         0.0254
     98 H49        25.1412   29.3950   10.2584 H         1 ROC         0.0254
     99 H50        23.5124   29.9906   10.7262 H         1 ROC         0.0254
    100 H51        23.6769   28.4638    9.7941 H         1 ROC         0.0254
@<TRIPOS>BOND
     1    2    1 2  
     2    2    4 1  
     3   13    2 am 
     4    4    3 ar 
     5    3   12 ar 
     6    4    5 ar 
     7    5    6 ar 
     8    6    7 ar 
     9    7    8 ar 
    10   12    7 ar 
    11    8    9 ar 
    12   10    9 ar 
    13   11   10 ar 
    14   12   11 ar 
    15   14   13 1  
    16   15   14 1  
    17   14   17 1  
    18   15   16 2  
    19   24   15 am 
    20   17   18 1  
    21   18   19 2  
    22   18   20 am 
    23   21   22 1  
    24   23   21 1  
    25   21   33 1  
    26   23   24 1  
    27   23   25 1  
    28   25   26 1  
    29   26   27 ar 
    30   26   28 ar 
    31   27   29 ar 
    32   28   30 ar 
    33   29   31 ar 
    34   30   31 ar 
    35   33   32 1  
    36   32   34 1  
    37   32   44 1  
    38   34   35 1  
    39   34   37 1  
    40   35   36 2  
    41   35   45 am 
    42   37   38 1  
    43   38   39 1  
    44   38   43 1  
    45   39   40 1  
    46   40   41 1  
    47   41   42 1  
    48   42   43 1  
    49   43   44 1  
    50   45   46 1  
    51   46   47 1  
    52   46   48 1  
    53   46   49 1  
    54    5   50 1  
    55    6   51 1  
    56    8   52 1  
    57    9   53 1  
    58   10   54 1  
    59   11   55 1  
    60   13   56 1  
    61   14   57 1  
    62   17   58 1  
    63   17   59 1  
    64   20   60 1  
    65   20   61 1  
    66   21   62 1  
    67   22   63 1  
    68   23   64 1  
    69   24   65 1  
    70   25   66 1  
    71   25   67 1  
    72   27   68 1  
    73   28   69 1  
    74   29   70 1  
    75   30   71 1  
    76   31   72 1  
    77   32   73 1  
    78   33   74 1  
    79   33   75 1  
    80   34   76 1  
    81   37   77 1  
    82   37   78 1  
    83   38   79 1  
    84   39   80 1  
    85   39   81 1  
    86   40   82 1  
    87   40   83 1  
    88   41   84 1  
    89   41   85 1  
    90   42   86 1  
    91   42   87 1  
    92   43   88 1  
    93   44   89 1  
    94   44   90 1  
    95   45   91 1  
    96   47   92 1  
    97   47   93 1  
    98   47   94 1  
    99   48   95 1  
   100   48   96 1  
   101   48   97 1  
   102   49   98 1  
   103   49   99 1  
   104   49  100 1  
@<TRIPOS>SUBSTRUCTURE
     1 ROC         1

