### 
### Created by X-TOOL on Mon Sep 10 21:12:55 2018
### 

@<TRIPOS>MOLECULE
2nn1_ligand
   25    25     1     0     0
SMALL
GAST_HUCK


@<TRIPOS>ATOM
      1 C1        -17.2850   -0.1480  -19.5040 C.ar      1 M28         0.1009
      2 C2        -17.8840    1.1500  -19.6590 C.ar      1 M28        -0.0419
      3 C3        -18.4910    1.7660  -18.5530 C.ar      1 M28        -0.0584
      4 C4        -18.5120    1.1130  -17.2980 C.ar      1 M28        -0.0413
      5 C5        -17.8940   -0.1620  -17.1970 C.ar      1 M28        -0.0584
      6 C6        -17.2860   -0.7990  -18.2620 C.ar      1 M28        -0.0419
      7 S         -16.5200   -0.9610  -20.8420 S.o2      1 M28         0.0628
      8 O1        -16.1010    0.0900  -21.7320 O.2       1 M28        -0.1514
      9 O2        -17.4980   -1.9070  -21.3580 O.2       1 M28        -0.1514
     10 N3        -15.2840   -1.7440  -20.2100 N.am      1 M28        -0.2617
     11 C7        -19.1420    1.7170  -16.1040 C.3       1 M28        -0.0076
     12 C8        -18.1470    1.4970  -14.9570 C.3       1 M28         0.0099
     13 C9        -18.3600    2.0250  -13.5650 C.2       1 M28         0.0367
     14 O4        -19.0640    3.0400  -13.3820 O.co2     1 M28        -0.5688
     15 O5        -17.8010    1.4650  -12.5880 O.co2     1 M28        -0.5688
     16 H1        -17.8671    1.6486  -20.6214 H         1 M28         0.0619
     17 H2        -18.9448    2.7445  -18.6609 H         1 M28         0.0557
     18 H3        -17.8996   -0.6611  -16.2348 H         1 M28         0.0557
     19 H4        -16.8240   -1.7721  -18.1410 H         1 M28         0.0619
     20 H5        -14.6867   -2.2917  -20.7959 H         1 M28         0.1634
     21 H6        -15.1058   -1.6876  -19.2276 H         1 M28         0.1634
     22 H7        -20.0989    1.2216  -15.8826 H         1 M28         0.0444
     23 H8        -19.3136    2.7919  -16.2626 H         1 M28         0.0444
     24 H9        -17.1933    1.9253  -15.2990 H         1 M28         0.0453
     25 H10       -18.0431    0.4069  -14.8531 H         1 M28         0.0453
@<TRIPOS>BOND
     1    1    2 ar 
     2    1    6 ar 
     3    1    7 1  
     4    2    3 ar 
     5    3    4 ar 
     6    4    5 ar 
     7    4   11 1  
     8    5    6 ar 
     9    7    8 2  
    10    7    9 2  
    11    7   10 am 
    12   11   12 1  
    13   12   13 1  
    14   13   14 ar 
    15   13   15 ar 
    16    2   16 1  
    17    3   17 1  
    18    5   18 1  
    19    6   19 1  
    20   10   20 1  
    21   10   21 1  
    22   11   22 1  
    23   11   23 1  
    24   12   24 1  
    25   12   25 1  
@<TRIPOS>SUBSTRUCTURE
     1 M28         1

