### 
### Created by X-TOOL on Mon Sep 10 21:12:56 2018
### 

@<TRIPOS>MOLECULE
2nn7_ligand
   32    32     1     0     0
SMALL
GAST_HUCK


@<TRIPOS>ATOM
      1 C1        -17.3450   -0.0940  -19.4520 C.ar      1 M29         0.1009
      2 C2        -18.0990    1.1180  -19.6320 C.ar      1 M29        -0.0419
      3 C3        -18.7530    1.7170  -18.5300 C.ar      1 M29        -0.0583
      4 C4        -18.6730    1.1350  -17.2430 C.ar      1 M29        -0.0406
      5 C5        -17.9350   -0.0430  -17.0520 C.ar      1 M29        -0.0583
      6 C6        -17.2660   -0.6640  -18.1590 C.ar      1 M29        -0.0419
      7 S         -16.5430   -0.8610  -20.8190 S.o2      1 M29         0.0628
      8 O1        -16.2170    0.2080  -21.7320 O.2       1 M29        -0.1514
      9 O2        -17.5190   -1.8370  -21.2900 O.2       1 M29        -0.1514
     10 N         -15.2320   -1.6140  -20.2810 N.am      1 M29        -0.2617
     11 C7        -19.3900    1.7510  -16.0770 C.3       1 M29        -0.0009
     12 C8        -18.7590    3.0130  -15.5280 C.3       1 M29         0.0583
     13 C9        -19.4590    3.6790  -14.3620 C.2       1 M29         0.2357
     14 O3        -18.8600    4.8420  -13.9480 O.3       1 M29        -0.2770
     15 O4        -20.4620    3.2100  -13.8950 O.2       1 M29        -0.3702
     16 C10       -19.4960    5.5630  -12.8580 C.3       1 M29         0.0740
     17 C11       -18.7570    6.8890  -12.7570 C.3       1 M29        -0.0371
     18 H1        -18.1660    1.5729  -20.6137 H         1 M29         0.0619
     19 H2        -19.3202    2.6296  -18.6728 H         1 M29         0.0557
     20 H3        -17.8701   -0.4855  -16.0646 H         1 M29         0.0557
     21 H4        -16.6975   -1.5739  -18.0043 H         1 M29         0.0619
     22 H5        -14.6436   -2.1108  -20.9189 H         1 M29         0.1634
     23 H6        -15.0035   -1.5864  -19.3078 H         1 M29         0.1634
     24 H7        -19.4248    1.0075  -15.2671 H         1 M29         0.0452
     25 H8        -20.4143    1.9935  -16.3964 H         1 M29         0.0452
     26 H9        -18.7112    3.7444  -16.3483 H         1 M29         0.0541
     27 H10       -17.7392    2.7599  -15.2024 H         1 M29         0.0541
     28 H11       -19.4022    4.9989  -11.9183 H         1 M29         0.0610
     29 H12       -20.5601    5.7326  -13.0793 H         1 M29         0.0610
     30 H13       -19.1912    7.4897  -11.9443 H         1 M29         0.0255
     31 H14       -18.8517    7.4349  -13.7073 H         1 M29         0.0255
     32 H15       -17.6938    6.7012  -12.5464 H         1 M29         0.0255
@<TRIPOS>BOND
     1    1    2 ar 
     2    1    6 ar 
     3    1    7 1  
     4    2    3 ar 
     5    3    4 ar 
     6    4    5 ar 
     7    4   11 1  
     8    5    6 ar 
     9    7    8 2  
    10    7    9 2  
    11    7   10 am 
    12   11   12 1  
    13   12   13 1  
    14   13   14 1  
    15   13   15 2  
    16   14   16 1  
    17   16   17 1  
    18    2   18 1  
    19    3   19 1  
    20    5   20 1  
    21    6   21 1  
    22   10   22 1  
    23   10   23 1  
    24   11   24 1  
    25   11   25 1  
    26   12   26 1  
    27   12   27 1  
    28   16   28 1  
    29   16   29 1  
    30   17   30 1  
    31   17   31 1  
    32   17   32 1  
@<TRIPOS>SUBSTRUCTURE
     1 M29         1

