### 
### Created by X-TOOL on Sun Sep  9 21:50:33 2018
### 

@<TRIPOS>MOLECULE
2nn8_ligand
   45    46     1     0     0
SMALL
GAST_HUCK


@<TRIPOS>ATOM
      1 C1         20.2520   37.6300   32.8210 C.3       1 NON         0.1884
      2 C2         18.7740   38.0010   32.7830 C.3       1 NON         0.1341
      3 C3         17.9010   36.7820   33.0530 C.3       1 NON         0.1141
      4 C4         18.2970   35.6230   32.1550 C.3       1 NON         0.1119
      5 C5         19.7890   35.3500   32.3000 C.3       1 NON         0.1130
      6 C6         20.2490   34.2170   31.3990 C.3       1 NON         0.0730
      7 O1         21.0060   38.7560   32.3800 O.3       1 NON        -0.3401
      8 O2         18.5190   38.9840   33.7920 O.3       1 NON        -0.3841
      9 O3         16.5300   37.1130   32.8200 O.3       1 NON        -0.3864
     10 O4         17.9690   35.9540   30.7930 O.3       1 NON        -0.3865
     11 O5         20.5220   36.5290   31.9490 O.3       1 NON        -0.3405
     12 O6         21.6570   34.0580   31.5740 O.3       1 NON        -0.3924
     13 C1'        25.0600   39.8950   32.7080 C.3       1 NON         0.1854
     14 C2'        24.6360   39.0970   31.4720 C.3       1 NON         0.1339
     15 C3'        23.1200   39.1070   31.3010 C.3       1 NON         0.1144
     16 C4'        22.4180   38.6520   32.5770 C.3       1 NON         0.1184
     17 C5'        22.8980   39.5070   33.7630 C.3       1 NON         0.1134
     18 C6'        22.3130   39.0650   35.1050 C.3       1 NON         0.0730
     19 O1'        26.4560   39.6730   32.9310 O.3       1 NON        -0.3649
     20 O2'        25.2510   39.6350   30.2970 O.3       1 NON        -0.3841
     21 O3'        22.7690   38.2560   30.2060 O.3       1 NON        -0.3864
     22 O5'        24.3300   39.4410   33.8570 O.3       1 NON        -0.3407
     23 O6'        22.5920   37.6770   35.3410 O.3       1 NON        -0.3924
     24 H1         20.5391   37.3635   33.8489 H         1 NON         0.0938
     25 H2         18.5277   38.4126   31.7931 H         1 NON         0.0671
     26 H3         18.0267   36.4794   34.1031 H         1 NON         0.0648
     27 H4         17.7377   34.7236   32.4522 H         1 NON         0.0647
     28 H5         20.0004   35.0837   33.3461 H         1 NON         0.0647
     29 H6         20.0286   34.4617   30.3495 H         1 NON         0.0584
     30 H7         19.7311   33.2867   31.6752 H         1 NON         0.0584
     31 H8         19.0596   39.7485   33.6315 H         1 NON         0.2101
     32 H9         16.4156   37.3613   31.9102 H         1 NON         0.2100
     33 H10        17.0362   36.1202   30.7245 H         1 NON         0.2100
     34 H11        22.0976   34.8656   31.3373 H         1 NON         0.2095
     35 H12        24.8690   40.9660   32.5451 H         1 NON         0.0935
     36 H13        24.9677   38.0560   31.6000 H         1 NON         0.0671
     37 H14        22.7966   40.1332   31.0724 H         1 NON         0.0648
     38 H15        22.6721   37.6006   32.7767 H         1 NON         0.0651
     39 H16        22.5959   40.5484   33.5783 H         1 NON         0.0647
     40 H17        21.2239   39.2186   35.0936 H         1 NON         0.0584
     41 H18        22.7597   39.6663   35.9105 H         1 NON         0.0584
     42 H19        26.6105   38.7452   33.0652 H         1 NON         0.2126
     43 H20        24.9522   40.5270   30.1647 H         1 NON         0.2101
     44 H21        23.0317   37.3644   30.4025 H         1 NON         0.2100
     45 H22        23.5322   37.5418   35.3537 H         1 NON         0.2095
@<TRIPOS>BOND
     1    1    2 1  
     2    7    1 1  
     3    1   11 1  
     4    2    3 1  
     5    2    8 1  
     6    3    4 1  
     7    3    9 1  
     8    5    4 1  
     9    4   10 1  
    10    5    6 1  
    11   11    5 1  
    12    6   12 1  
    13   16    7 1  
    14   14   13 1  
    15   13   19 1  
    16   13   22 1  
    17   15   14 1  
    18   14   20 1  
    19   15   16 1  
    20   15   21 1  
    21   16   17 1  
    22   17   18 1  
    23   17   22 1  
    24   18   23 1  
    25    1   24 1  
    26    2   25 1  
    27    3   26 1  
    28    4   27 1  
    29    5   28 1  
    30    6   29 1  
    31    6   30 1  
    32    8   31 1  
    33    9   32 1  
    34   10   33 1  
    35   12   34 1  
    36   13   35 1  
    37   14   36 1  
    38   15   37 1  
    39   16   38 1  
    40   17   39 1  
    41   18   40 1  
    42   18   41 1  
    43   19   42 1  
    44   20   43 1  
    45   21   44 1  
    46   23   45 1  
@<TRIPOS>SUBSTRUCTURE
     1 NON         1

