### 
### Created by X-TOOL on Mon Sep 10 21:12:55 2018
### 

@<TRIPOS>MOLECULE
2nnd_ligand
   26    26     1     0     0
SMALL
GAST_HUCK


@<TRIPOS>ATOM
      1 N1         50.2220   22.7330   42.6440 N.ar      1 PRZ        -0.2838
      2 C2         50.2270   23.4220   41.4790 C.ar      1 PRZ         0.0890
      3 C3         51.3990   23.4670   40.7230 C.ar      1 PRZ         0.1984
      4 N4         52.4990   22.8350   41.1810 N.ar      1 PRZ        -0.2574
      5 C5         52.4750   22.1470   42.3280 C.ar      1 PRZ         0.0210
      6 C6         51.3130   22.1010   43.0850 C.ar      1 PRZ         0.0196
      7 C21        48.9370   24.0740   41.0140 C.3       1 PRZ         0.0043
      8 C22        48.8530   25.5790   41.1280 C.3       1 PRZ        -0.0350
      9 C23        48.6560   26.0310   42.5680 C.3       1 PRZ        -0.0607
     10 C24        47.6780   26.0350   40.2720 C.3       1 PRZ        -0.0607
     11 O31        51.4490   24.1800   39.5540 O.3       1 PRZ        -0.2980
     12 C31        52.6300   24.2120   38.7450 C.3       1 PRZ         0.0635
     13 H1         53.3632   21.6255   42.6660 H         1 PRZ         0.0821
     14 H2         51.2909   21.5585   44.0233 H         1 PRZ         0.0795
     15 H3         48.1159   23.6491   41.6100 H         1 PRZ         0.0454
     16 H4         48.7950   23.8123   39.9551 H         1 PRZ         0.0454
     17 H5         49.7831   26.0232   40.7438 H         1 PRZ         0.0320
     18 H6         48.6006   27.1290   42.6033 H         1 PRZ         0.0234
     19 H7         49.5031   25.6868   43.1795 H         1 PRZ         0.0234
     20 H8         47.7220   25.6039   42.9619 H         1 PRZ         0.0234
     21 H9         47.8300   25.7036   39.2342 H         1 PRZ         0.0234
     22 H10        47.6081   27.1324   40.2999 H         1 PRZ         0.0234
     23 H11        46.7476   25.5982   40.6638 H         1 PRZ         0.0234
     24 H12        52.4509   24.8395   37.8594 H         1 PRZ         0.0584
     25 H13        52.8833   23.1904   38.4253 H         1 PRZ         0.0584
     26 H14        53.4630   24.6308   39.3286 H         1 PRZ         0.0584
@<TRIPOS>BOND
     1    1    2 ar 
     2    1    6 ar 
     3    2    3 ar 
     4    2    7 1  
     5    3    4 ar 
     6    3   11 1  
     7    4    5 ar 
     8    5    6 ar 
     9    7    8 1  
    10    8    9 1  
    11    8   10 1  
    12   11   12 1  
    13    5   13 1  
    14    6   14 1  
    15    7   15 1  
    16    7   16 1  
    17    8   17 1  
    18    9   18 1  
    19    9   19 1  
    20    9   20 1  
    21   10   21 1  
    22   10   22 1  
    23   10   23 1  
    24   12   24 1  
    25   12   25 1  
    26   12   26 1  
@<TRIPOS>SUBSTRUCTURE
     1 PRZ         1

