### 
### Created by X-TOOL on Mon Sep 10 21:12:55 2018
### 

@<TRIPOS>MOLECULE
2nng_ligand
   26    26     1     0     0
SMALL
GAST_HUCK


@<TRIPOS>ATOM
      1 C1         -5.2110    2.2850   15.7470 C.ar      1 ZYX         0.1009
      2 C2         -3.8580    2.2760   15.4320 C.ar      1 ZYX        -0.0419
      3 C3         -3.3380    3.3490   14.7060 C.ar      1 ZYX        -0.0583
      4 C4         -4.1320    4.4050   14.2860 C.ar      1 ZYX        -0.0379
      5 C5         -5.4890    4.3670   14.5920 C.ar      1 ZYX        -0.0583
      6 C6         -6.0230    3.3260   15.3110 C.ar      1 ZYX        -0.0419
      7 S          -5.8950    0.9400   16.7130 S.o2      1 ZYX         0.0628
      8 O1         -7.3120    1.0580   16.5550 O.2       1 ZYX        -0.1514
      9 O2         -5.3200    1.1250   18.0250 O.2       1 ZYX        -0.1514
     10 N1         -5.3770   -0.4270   16.0610 N.am      1 ZYX        -0.2617
     11 C7         -3.6430    5.5140   13.3710 C.3       1 ZYX         0.0211
     12 C8         -2.5690    6.4240   13.8810 C.3       1 ZYX        -0.0258
     13 N2         -2.1560    7.1920   12.6700 N.4       1 ZYX         0.2200
     14 H1         -3.2213    1.4555   15.7425 H         1 ZYX         0.0619
     15 H2         -2.2815    3.3567   14.4633 H         1 ZYX         0.0557
     16 H3         -6.1343    5.1713   14.2577 H         1 ZYX         0.0557
     17 H4         -7.0826    3.3158   15.5397 H         1 ZYX         0.0619
     18 H5         -5.6490   -1.3042   16.4566 H         1 ZYX         0.1634
     19 H6         -4.7814   -0.4038   15.2581 H         1 ZYX         0.1634
     20 H7         -4.5123    6.1408   13.1233 H         1 ZYX         0.0478
     21 H8         -3.2611    5.0383   12.4557 H         1 ZYX         0.0478
     22 H9         -1.7251    5.8469   14.2868 H         1 ZYX         0.0837
     23 H10        -2.9605    7.0968   14.6582 H         1 ZYX         0.0837
     24 H11        -1.4252    7.8410   12.9168 H         1 ZYX         0.1996
     25 H12        -2.9479    7.6997   12.3078 H         1 ZYX         0.1996
     26 H13        -1.8158    6.5542   11.9675 H         1 ZYX         0.1996
@<TRIPOS>BOND
     1    1    2 ar 
     2    1    6 ar 
     3    1    7 1  
     4    2    3 ar 
     5    3    4 ar 
     6    4    5 ar 
     7    4   11 1  
     8    5    6 ar 
     9    7    8 2  
    10    7    9 2  
    11    7   10 am 
    12   11   12 1  
    13   12   13 1  
    14    2   14 1  
    15    3   15 1  
    16    5   16 1  
    17    6   17 1  
    18   10   18 1  
    19   10   19 1  
    20   11   20 1  
    21   11   21 1  
    22   12   22 1  
    23   12   23 1  
    24   13   24 1  
    25   13   25 1  
    26   13   26 1  
@<TRIPOS>SUBSTRUCTURE
     1 ZYX         1

