### 
### Created by X-TOOL on Mon Sep 10 21:12:55 2018
### 

@<TRIPOS>MOLECULE
2nnk_ligand
  100   104     1     0     0
SMALL
GAST_HUCK


@<TRIPOS>ATOM
      1 O1         20.7520   27.7130   18.5390 O.2       1 ROC        -0.3762
      2 C1         21.2350   26.5690   18.5810 C.2       1 ROC         0.2293
      3 N1         23.0660   25.0510   19.1090 N.ar      1 ROC        -0.2737
      4 C2         22.3650   26.1700   19.4590 C.ar      1 ROC         0.1219
      5 C3         22.7380   26.8830   20.5950 C.ar      1 ROC        -0.0136
      6 C4         23.7990   26.4250   21.3900 C.ar      1 ROC        -0.0314
      7 C5         24.5230   25.3050   20.9890 C.ar      1 ROC         0.0097
      8 C6         25.5870   24.8350   21.7410 C.ar      1 ROC        -0.0444
      9 C7         26.3160   23.7440   21.3650 C.ar      1 ROC        -0.0546
     10 C8         25.9150   23.0790   20.2240 C.ar      1 ROC        -0.0545
     11 C9R        24.8420   23.5020   19.4800 C.ar      1 ROC        -0.0370
     12 C10        24.1230   24.6100   19.8580 C.ar      1 ROC         0.0527
     13 N2         20.7680   25.6410   17.7360 N.am      1 ROC        -0.2600
     14 C11        19.6000   25.8650   16.8840 C.3       1 ROC         0.1473
     15 C12        18.6340   24.6930   17.0990 C.2       1 ROC         0.2045
     16 O2         18.8200   23.6130   16.5490 O.2       1 ROC        -0.3943
     17 C13        20.0530   25.9160   15.4530 C.3       1 ROC         0.0773
     18 C14        20.9810   27.0640   15.2760 C.2       1 ROC         0.1780
     19 O3         22.1990   26.9220   15.1310 O.2       1 ROC        -0.3970
     20 N3         20.4550   28.2320   15.2580 N.am      1 ROC        -0.3007
     21 C15        15.2740   24.5680   17.8620 C.3       1 ROC         0.1194
     22 O4         14.9060   25.6440   18.7270 O.3       1 ROC        -0.3840
     23 C16        16.6230   23.9700   18.2590 C.3       1 ROC         0.0823
     24 N4         17.6060   24.9810   17.9200 N.am      1 ROC        -0.2772
     25 C17        16.6840   23.6100   19.7430 C.3       1 ROC         0.0066
     26 C18        18.1080   23.4300   20.2500 C.ar      1 ROC        -0.0408
     27 C19        18.8030   22.2210   20.2010 C.ar      1 ROC        -0.0603
     28 C20        18.7530   24.4880   20.8280 C.ar      1 ROC        -0.0603
     29 C21        20.1080   22.1350   20.6080 C.ar      1 ROC        -0.0686
     30 C22        20.0490   24.3880   21.2570 C.ar      1 ROC        -0.0686
     31 C23        20.7130   23.2070   21.2230 C.ar      1 ROC        -0.0687
     32 N5         14.2430   22.7720   16.5400 N.4       1 ROC         0.2562
     33 C24        14.1900   23.5300   17.7680 C.3       1 ROC        -0.0008
     34 C25        13.6250   21.4220   16.6740 C.3       1 ROC         0.0688
     35 C26        14.3350   20.5970   17.7830 C.2       1 ROC         0.2251
     36 O5         15.5800   20.5990   17.8190 O.2       1 ROC        -0.3909
     37 C27        13.8440   20.6440   15.3820 C.3       1 ROC         0.0113
     38 C28        13.2420   21.3920   14.1810 C.3       1 ROC        -0.0261
     39 C29        13.5470   20.7180   12.8440 C.3       1 ROC        -0.0494
     40 C30        14.9950   20.8020   12.4310 C.3       1 ROC        -0.0528
     41 C31        15.4650   22.2280   12.3140 C.3       1 ROC        -0.0526
     42 C32        15.2600   22.8590   13.6820 C.3       1 ROC        -0.0451
     43 C33        13.8290   22.8080   14.1250 C.3       1 ROC         0.0024
     44 C34        13.6130   23.5110   15.4540 C.3       1 ROC        -0.0266
     45 N6         13.5260   19.9540   18.6370 N.am      1 ROC        -0.2771
     46 C35        13.9170   19.0820   19.7280 C.3       1 ROC         0.0448
     47 C36        12.6610   18.4930   20.3080 C.3       1 ROC        -0.0396
     48 C37        14.6470   19.8590   20.7790 C.3       1 ROC        -0.0396
     49 C38        14.7350   17.9450   19.1770 C.3       1 ROC        -0.0396
     50 H1         22.2096   27.7903   20.8646 H         1 ROC         0.0729
     51 H2         24.0535   26.9391   22.3098 H         1 ROC         0.0774
     52 H3         25.8493   25.3503   22.6579 H         1 ROC         0.0657
     53 H4         27.1743   23.4136   21.9387 H         1 ROC         0.0652
     54 H5         26.4624   22.1987   19.9069 H         1 ROC         0.0657
     55 H6         24.5594   22.9572   18.5865 H         1 ROC         0.0653
     56 H7         21.2367   24.7591   17.6853 H         1 ROC         0.1882
     57 H8         19.1075   26.8113   17.1521 H         1 ROC         0.0826
     58 H9         19.1807   26.0430   14.7950 H         1 ROC         0.0551
     59 H10        20.5720   24.9804   15.1975 H         1 ROC         0.0551
     60 H11        21.0337   29.0392   15.1417 H         1 ROC         0.1814
     61 H12        19.4657   28.3365   15.3603 H         1 ROC         0.1814
     62 H13        15.3964   24.9922   16.8545 H         1 ROC         0.0672
     63 H14        14.0656   25.9939   18.4555 H         1 ROC         0.2101
     64 H15        16.8091   23.0582   17.6725 H         1 ROC         0.0606
     65 H16        17.5195   25.9019   18.3000 H         1 ROC         0.1857
     66 H17        16.1343   22.6701   19.8992 H         1 ROC         0.0449
     67 H18        16.2052   24.4151   20.3196 H         1 ROC         0.0449
     68 H19        18.3007   21.3333   19.8340 H         1 ROC         0.0557
     69 H20        18.2260   25.4275   20.9493 H         1 ROC         0.0557
     70 H21        20.6658   21.2199   20.4452 H         1 ROC         0.0599
     71 H22        20.5543   25.2709   21.6314 H         1 ROC         0.0599
     72 H23        21.6961   23.1093   21.6691 H         1 ROC         0.0559
     73 H24        15.2144   22.6409   16.3052 H         1 ROC         0.2057
     74 H25        13.2145   24.0348   17.8270 H         1 ROC         0.0841
     75 H26        14.2951   22.8351   18.6142 H         1 ROC         0.0841
     76 H27        12.5521   21.5225   16.8947 H         1 ROC         0.1100
     77 H28        13.3637   19.6583   15.4696 H         1 ROC         0.0348
     78 H29        14.9240   20.5126   15.2196 H         1 ROC         0.0348
     79 H30        12.1513   21.4471   14.3126 H         1 ROC         0.0309
     80 H31        12.9370   21.2006   12.0662 H         1 ROC         0.0268
     81 H32        13.2703   19.6562   12.9208 H         1 ROC         0.0268
     82 H33        15.1159   20.3069   11.4562 H         1 ROC         0.0265
     83 H34        15.6097   20.2858   13.1832 H         1 ROC         0.0265
     84 H35        14.8742   22.7627   11.5557 H         1 ROC         0.0265
     85 H36        16.5292   22.2567   12.0371 H         1 ROC         0.0265
     86 H37        15.5789   23.9108   13.6375 H         1 ROC         0.0270
     87 H38        15.8766   22.3196   14.4160 H         1 ROC         0.0270
     88 H39        13.2519   23.3607   13.3691 H         1 ROC         0.0355
     89 H40        14.0496   24.5194   15.4034 H         1 ROC         0.0818
     90 H41        12.5333   23.5883   15.6495 H         1 ROC         0.0818
     91 H42        12.5439   20.0908   18.5074 H         1 ROC         0.1859
     92 H43        12.9208   17.8236   21.1413 H         1 ROC         0.0254
     93 H44        12.1308   17.9226   19.5312 H         1 ROC         0.0254
     94 H45        12.0126   19.3018   20.6759 H         1 ROC         0.0254
     95 H46        14.9365   19.1848   21.5986 H         1 ROC         0.0254
     96 H47        13.9922   20.6516   21.1702 H         1 ROC         0.0254
     97 H48        15.5487   20.3114   20.3406 H         1 ROC         0.0254
     98 H49        15.0360   17.2782   19.9984 H         1 ROC         0.0254
     99 H50        15.6322   18.3449   18.6819 H         1 ROC         0.0254
    100 H51        14.1346   17.3809   18.4481 H         1 ROC         0.0254
@<TRIPOS>BOND
     1    2    1 2  
     2    2    4 1  
     3   13    2 am 
     4    4    3 ar 
     5    3   12 ar 
     6    4    5 ar 
     7    5    6 ar 
     8    6    7 ar 
     9    7    8 ar 
    10   12    7 ar 
    11    8    9 ar 
    12   10    9 ar 
    13   11   10 ar 
    14   12   11 ar 
    15   14   13 1  
    16   15   14 1  
    17   14   17 1  
    18   15   16 2  
    19   24   15 am 
    20   17   18 1  
    21   18   19 2  
    22   18   20 am 
    23   21   22 1  
    24   23   21 1  
    25   21   33 1  
    26   23   24 1  
    27   23   25 1  
    28   25   26 1  
    29   26   27 ar 
    30   26   28 ar 
    31   27   29 ar 
    32   28   30 ar 
    33   29   31 ar 
    34   30   31 ar 
    35   33   32 1  
    36   32   34 1  
    37   32   44 1  
    38   34   35 1  
    39   34   37 1  
    40   35   36 2  
    41   35   45 am 
    42   37   38 1  
    43   38   39 1  
    44   38   43 1  
    45   39   40 1  
    46   40   41 1  
    47   41   42 1  
    48   42   43 1  
    49   43   44 1  
    50   45   46 1  
    51   46   47 1  
    52   46   48 1  
    53   46   49 1  
    54    5   50 1  
    55    6   51 1  
    56    8   52 1  
    57    9   53 1  
    58   10   54 1  
    59   11   55 1  
    60   13   56 1  
    61   14   57 1  
    62   17   58 1  
    63   17   59 1  
    64   20   60 1  
    65   20   61 1  
    66   21   62 1  
    67   22   63 1  
    68   23   64 1  
    69   24   65 1  
    70   25   66 1  
    71   25   67 1  
    72   27   68 1  
    73   28   69 1  
    74   29   70 1  
    75   30   71 1  
    76   31   72 1  
    77   32   73 1  
    78   33   74 1  
    79   33   75 1  
    80   34   76 1  
    81   37   77 1  
    82   37   78 1  
    83   38   79 1  
    84   39   80 1  
    85   39   81 1  
    86   40   82 1  
    87   40   83 1  
    88   41   84 1  
    89   41   85 1  
    90   42   86 1  
    91   42   87 1  
    92   43   88 1  
    93   44   89 1  
    94   44   90 1  
    95   45   91 1  
    96   47   92 1  
    97   47   93 1  
    98   47   94 1  
    99   48   95 1  
   100   48   96 1  
   101   48   97 1  
   102   49   98 1  
   103   49   99 1  
   104   49  100 1  
@<TRIPOS>SUBSTRUCTURE
     1 ROC         1

