### 
### Created by X-TOOL on Mon Sep 10 21:12:55 2018
### 

@<TRIPOS>MOLECULE
2nno_ligand
   25    25     1     0     0
SMALL
GAST_HUCK


@<TRIPOS>ATOM
      1 C1         -5.2250    2.2620   15.7630 C.ar      1 M28         0.1009
      2 C2         -6.0360    3.3290   15.3740 C.ar      1 M28        -0.0419
      3 C3         -5.5100    4.3470   14.6030 C.ar      1 M28        -0.0584
      4 C4         -4.1730    4.3810   14.2540 C.ar      1 M28        -0.0413
      5 C5         -3.3800    3.3140   14.6600 C.ar      1 M28        -0.0584
      6 C6         -3.8870    2.2390   15.3770 C.ar      1 M28        -0.0419
      7 S          -5.9090    0.9430   16.7400 S.o2      1 M28         0.0628
      8 O1         -7.3410    1.0560   16.6070 O.2       1 M28        -0.1514
      9 O2         -5.3450    1.1320   18.0680 O.2       1 M28        -0.1514
     10 N3         -5.4050   -0.4380   16.1190 N.am      1 M28        -0.2617
     11 C7         -3.6750    5.5010   13.4070 C.3       1 M28        -0.0076
     12 C8         -2.3920    6.1030   13.8980 C.3       1 M28         0.0099
     13 C9         -1.7880    7.2010   13.0550 C.2       1 M28         0.0367
     14 O4         -0.5620    7.2180   12.8070 O.co2     1 M28        -0.5688
     15 O5         -2.5090    8.1280   12.6510 O.co2     1 M28        -0.5688
     16 H1         -7.0766    3.3587   15.6763 H         1 M28         0.0619
     17 H2         -6.1639    5.1415   14.2621 H         1 M28         0.0557
     18 H3         -2.3259    3.3217   14.4072 H         1 M28         0.0557
     19 H4         -3.2533    1.3972   15.6318 H         1 M28         0.0619
     20 H5         -5.6852   -1.3042   16.5329 H         1 M28         0.1634
     21 H6         -4.8090   -0.4372   15.3160 H         1 M28         0.1634
     22 H7         -4.4426    6.2886   13.3860 H         1 M28         0.0444
     23 H8         -3.5124    5.1202   12.3879 H         1 M28         0.0444
     24 H9         -1.6509    5.2934   13.9704 H         1 M28         0.0453
     25 H10        -2.5808    6.5179   14.8991 H         1 M28         0.0453
@<TRIPOS>BOND
     1    1    2 ar 
     2    1    6 ar 
     3    1    7 1  
     4    2    3 ar 
     5    3    4 ar 
     6    4    5 ar 
     7    4   11 1  
     8    5    6 ar 
     9    7    8 2  
    10    7    9 2  
    11    7   10 am 
    12   11   12 1  
    13   12   13 1  
    14   13   14 ar 
    15   13   15 ar 
    16    2   16 1  
    17    3   17 1  
    18    5   18 1  
    19    6   19 1  
    20   10   20 1  
    21   10   21 1  
    22   11   22 1  
    23   11   23 1  
    24   12   24 1  
    25   12   25 1  
@<TRIPOS>SUBSTRUCTURE
     1 M28         1

