### 
### Created by X-TOOL on Mon Sep 10 21:12:55 2018
### 

@<TRIPOS>MOLECULE
2nnp_ligand
  100   104     1     0     0
SMALL
GAST_HUCK


@<TRIPOS>ATOM
      1 O1         19.2130   35.3340   19.1760 O.2       1 ROC        -0.3762
      2 C1         19.6520   35.8120   18.0950 C.2       1 ROC         0.2293
      3 N1         20.7250   37.6540   16.9300 N.ar      1 ROC        -0.2737
      4 C2         20.5790   36.9510   18.0970 C.ar      1 ROC         0.1219
      5 C3         21.2810   37.3230   19.2450 C.ar      1 ROC        -0.0136
      6 C4         22.1180   38.4300   19.2200 C.ar      1 ROC        -0.0314
      7 C5         22.3380   39.0670   17.9960 C.ar      1 ROC         0.0097
      8 C6         23.1350   40.2280   17.9540 C.ar      1 ROC        -0.0444
      9 C7         23.1890   40.9060   16.7690 C.ar      1 ROC        -0.0546
     10 C8         22.5000   40.5200   15.6420 C.ar      1 ROC        -0.0545
     11 C9R        21.6180   39.4490   15.7010 C.ar      1 ROC        -0.0370
     12 C10        21.6120   38.6860   16.8650 C.ar      1 ROC         0.0527
     13 N2         19.2770   35.3430   16.8750 N.am      1 ROC        -0.2600
     14 C11        18.4250   34.1510   16.7170 C.3       1 ROC         0.1473
     15 C12        19.1610   33.2060   15.7870 C.2       1 ROC         0.2045
     16 O2         19.1310   33.3780   14.5640 O.2       1 ROC        -0.3943
     17 C13        17.0750   34.4030   16.1670 C.3       1 ROC         0.0773
     18 C14        16.3920   35.3830   17.0430 C.2       1 ROC         0.1780
     19 O3         16.1310   36.5780   16.9070 O.2       1 ROC        -0.3970
     20 N3         15.9670   34.9310   18.1090 N.am      1 ROC        -0.3007
     21 C15        20.0820   29.8420   15.9690 C.3       1 ROC         0.1194
     22 O4         20.2620   29.4040   17.3020 O.3       1 ROC        -0.3840
     23 C16        20.5930   31.2410   15.6580 C.3       1 ROC         0.0823
     24 N4         19.8350   32.1880   16.4250 N.am      1 ROC        -0.2772
     25 C17        22.1030   31.2830   15.9690 C.3       1 ROC         0.0066
     26 C18        22.6140   32.7060   16.0370 C.ar      1 ROC        -0.0408
     27 C19        23.0940   33.3330   14.8950 C.ar      1 ROC        -0.0603
     28 C20        22.6810   33.3020   17.2540 C.ar      1 ROC        -0.0603
     29 C21        23.5410   34.6510   14.9970 C.ar      1 ROC        -0.0686
     30 C22        23.0320   34.6400   17.3190 C.ar      1 ROC        -0.0686
     31 C23        23.4640   35.3070   16.1770 C.ar      1 ROC        -0.0687
     32 N5         19.6790   28.8880   13.8150 N.4       1 ROC         0.2562
     33 C24        20.4330   28.7430   15.0020 C.3       1 ROC        -0.0008
     34 C25        20.4260   28.2850   12.6950 C.3       1 ROC         0.0688
     35 C26        21.7720   28.9420   12.4620 C.2       1 ROC         0.2251
     36 O5         21.8210   30.1690   12.4790 O.2       1 ROC        -0.3909
     37 C27        19.6140   28.4870   11.4260 C.3       1 ROC         0.0113
     38 C28        18.2880   27.7230   11.5340 C.3       1 ROC        -0.0261
     39 C29        17.3780   27.9210   10.3320 C.3       1 ROC        -0.0494
     40 C30        17.0190   29.3830   10.1110 C.3       1 ROC        -0.0528
     41 C31        16.1590   29.7490   11.2960 C.3       1 ROC        -0.0526
     42 C32        17.0600   29.6330   12.5160 C.3       1 ROC        -0.0451
     43 C33        17.5370   28.2340   12.7700 C.3       1 ROC         0.0024
     44 C34        18.3920   28.2070   13.9830 C.3       1 ROC        -0.0266
     45 N6         22.7670   28.0770   12.2290 N.am      1 ROC        -0.2771
     46 C35        24.1380   28.4400   11.9330 C.3       1 ROC         0.0448
     47 C36        24.9070   27.1140   11.7270 C.3       1 ROC        -0.0396
     48 C37        24.7830   29.1180   13.1130 C.3       1 ROC        -0.0396
     49 C38        24.2390   29.3070   10.7090 C.3       1 ROC        -0.0396
     50 H1         21.1723   36.7468   20.1567 H         1 ROC         0.0729
     51 H2         22.5890   38.7912   20.1271 H         1 ROC         0.0774
     52 H3         23.6824   40.5691   18.8253 H         1 ROC         0.0657
     53 H4         23.8071   41.7948   16.7137 H         1 ROC         0.0652
     54 H5         22.6457   41.0517   14.7087 H         1 ROC         0.0657
     55 H6         20.9593   39.2161   14.8721 H         1 ROC         0.0653
     56 H7         19.5904   35.8239   16.0561 H         1 ROC         0.1882
     57 H8         18.3053   33.6797   17.7037 H         1 ROC         0.0826
     58 H9         16.5023   33.4642   16.1417 H         1 ROC         0.0551
     59 H10        17.1582   34.8094   15.1482 H         1 ROC         0.0551
     60 H11        15.4941   35.5317   18.7537 H         1 ROC         0.1814
     61 H12        16.0953   33.9639   18.3286 H         1 ROC         0.1814
     62 H13        18.9923   29.9492   15.8636 H         1 ROC         0.0672
     63 H14        21.1887   29.4017   17.5110 H         1 ROC         0.2101
     64 H15        20.4470   31.4577   14.5895 H         1 ROC         0.0606
     65 H16        19.7962   32.1090   17.4211 H         1 ROC         0.1857
     66 H17        22.6463   30.7452   15.1781 H         1 ROC         0.0449
     67 H18        22.2828   30.7917   16.9366 H         1 ROC         0.0449
     68 H19        23.1209   32.8105   13.9456 H         1 ROC         0.0557
     69 H20        22.4643   32.7424   18.1567 H         1 ROC         0.0557
     70 H21        23.9515   35.1508   14.1271 H         1 ROC         0.0599
     71 H22        22.9700   35.1695   18.2629 H         1 ROC         0.0599
     72 H23        23.7392   36.3540   16.2332 H         1 ROC         0.0559
     73 H24        19.5217   29.8660   13.6282 H         1 ROC         0.2057
     74 H25        20.2083   27.7685   15.4601 H         1 ROC         0.0841
     75 H26        21.5051   28.7969   14.7620 H         1 ROC         0.0841
     76 H27        20.5709   27.2126   12.8921 H         1 ROC         0.1100
     77 H28        20.1836   28.1107   10.5635 H         1 ROC         0.0348
     78 H29        19.4083   29.5590   11.2901 H         1 ROC         0.0348
     79 H30        18.5055   26.6503   11.6439 H         1 ROC         0.0309
     80 H31        16.4515   27.3501   10.4924 H         1 ROC         0.0268
     81 H32        17.8906   27.5436    9.4349 H         1 ROC         0.0268
     82 H33        16.4593   29.5075    9.1722 H         1 ROC         0.0265
     83 H34        17.9257   30.0052   10.0827 H         1 ROC         0.0265
     84 H35        15.3091   29.0559   11.3807 H         1 ROC         0.0265
     85 H36        15.7842   30.7781   11.1936 H         1 ROC         0.0265
     86 H37        16.4995   29.9763   13.3980 H         1 ROC         0.0270
     87 H38        17.9374   30.2790   12.3648 H         1 ROC         0.0270
     88 H39        16.6657   27.5853   12.9435 H         1 ROC         0.0355
     89 H40        17.8456   28.6955   14.8033 H         1 ROC         0.0818
     90 H41        18.5870   27.1570   14.2464 H         1 ROC         0.0818
     91 H42        22.5462   27.1022   12.2619 H         1 ROC         0.1859
     92 H43        25.9604   27.3329   11.4980 H         1 ROC         0.0254
     93 H44        24.4585   26.5560   10.8919 H         1 ROC         0.0254
     94 H45        24.8491   26.5102   12.6446 H         1 ROC         0.0254
     95 H46        25.8208   29.3823   12.8618 H         1 ROC         0.0254
     96 H47        24.7770   28.4361   13.9761 H         1 ROC         0.0254
     97 H48        24.2224   30.0308   13.3630 H         1 ROC         0.0254
     98 H49        25.2939   29.5572   10.5229 H         1 ROC         0.0254
     99 H50        23.6651   30.2321   10.8665 H         1 ROC         0.0254
    100 H51        23.8320   28.7661    9.8419 H         1 ROC         0.0254
@<TRIPOS>BOND
     1    2    1 2  
     2    2    4 1  
     3   13    2 am 
     4    4    3 ar 
     5    3   12 ar 
     6    4    5 ar 
     7    5    6 ar 
     8    6    7 ar 
     9    7    8 ar 
    10   12    7 ar 
    11    8    9 ar 
    12   10    9 ar 
    13   11   10 ar 
    14   12   11 ar 
    15   14   13 1  
    16   15   14 1  
    17   14   17 1  
    18   15   16 2  
    19   24   15 am 
    20   17   18 1  
    21   18   19 2  
    22   18   20 am 
    23   21   22 1  
    24   23   21 1  
    25   21   33 1  
    26   23   24 1  
    27   23   25 1  
    28   25   26 1  
    29   26   27 ar 
    30   26   28 ar 
    31   27   29 ar 
    32   28   30 ar 
    33   29   31 ar 
    34   30   31 ar 
    35   33   32 1  
    36   32   34 1  
    37   32   44 1  
    38   34   35 1  
    39   34   37 1  
    40   35   36 2  
    41   35   45 am 
    42   37   38 1  
    43   38   39 1  
    44   38   43 1  
    45   39   40 1  
    46   40   41 1  
    47   41   42 1  
    48   42   43 1  
    49   43   44 1  
    50   45   46 1  
    51   46   47 1  
    52   46   48 1  
    53   46   49 1  
    54    5   50 1  
    55    6   51 1  
    56    8   52 1  
    57    9   53 1  
    58   10   54 1  
    59   11   55 1  
    60   13   56 1  
    61   14   57 1  
    62   17   58 1  
    63   17   59 1  
    64   20   60 1  
    65   20   61 1  
    66   21   62 1  
    67   22   63 1  
    68   23   64 1  
    69   24   65 1  
    70   25   66 1  
    71   25   67 1  
    72   27   68 1  
    73   28   69 1  
    74   29   70 1  
    75   30   71 1  
    76   31   72 1  
    77   32   73 1  
    78   33   74 1  
    79   33   75 1  
    80   34   76 1  
    81   37   77 1  
    82   37   78 1  
    83   38   79 1  
    84   39   80 1  
    85   39   81 1  
    86   40   82 1  
    87   40   83 1  
    88   41   84 1  
    89   41   85 1  
    90   42   86 1  
    91   42   87 1  
    92   43   88 1  
    93   44   89 1  
    94   44   90 1  
    95   45   91 1  
    96   47   92 1  
    97   47   93 1  
    98   47   94 1  
    99   48   95 1  
   100   48   96 1  
   101   48   97 1  
   102   49   98 1  
   103   49   99 1  
   104   49  100 1  
@<TRIPOS>SUBSTRUCTURE
     1 ROC         1

