### 
### Created by X-TOOL on Mon Sep 10 21:12:55 2018
### 

@<TRIPOS>MOLECULE
2nnq_ligand
   61    65     1     0     0
SMALL
GAST_HUCK


@<TRIPOS>ATOM
      1 C1          2.3600   10.6210   15.5130 C.ar      1 T4B        -0.0238
      2 C2          6.0970   10.0740   16.3860 C.ar      1 T4B        -0.0277
      3 C3          6.4370    8.6900   16.2580 C.ar      1 T4B        -0.0276
      4 C7          4.9160   11.7070   14.8380 C.ar      1 T4B        -0.0574
      5 C8          3.7310   12.2490   14.2720 C.ar      1 T4B        -0.0677
      6 C9          6.9200    5.7870   16.8350 C.3       1 T4B         0.1224
      7 C10         6.7200    5.2070   15.4380 C.2       1 T4B         0.0653
      8 C11         7.5930    8.1560   16.9270 C.ar      1 T4B         0.0925
      9 C12         8.4080    9.0190   17.7190 C.ar      1 T4B        -0.0338
     10 C13         8.0780   10.4000   17.8420 C.ar      1 T4B        -0.0709
     11 C14         6.9260   10.9280   17.1780 C.ar      1 T4B        -0.0667
     12 C15         3.3590    6.9490   14.4400 C.3       1 T4B        -0.0503
     13 C16         2.5280    5.5810   18.2210 C.ar      1 T4B        -0.0401
     14 C19         3.0490    6.9750   17.9580 C.2       1 T4B         0.0136
     15 C20         2.8930    7.7040   16.8070 C.2       1 T4B         0.1031
     16 C21         2.2770    7.1780   15.5020 C.3       1 T4B         0.0141
     17 C22         2.9070    3.2440   18.9290 C.ar      1 T4B        -0.0692
     18 C24         4.1060    6.6740   22.5750 C.ar      1 T4B        -0.0619
     19 C27         4.3410    7.5550   20.2760 C.ar      1 T4B        -0.0144
     20 C30         1.1270    5.2900   18.0640 C.ar      1 T4B        -0.0653
     21 C           2.4560   11.7100   14.6080 C.ar      1 T4B        -0.0653
     22 C4          5.6860    7.9410   20.5700 C.ar      1 T4B        -0.0548
     23 C5          3.5450   10.0610   16.0900 C.ar      1 T4B         0.1223
     24 C6          4.8400   10.6120   15.7530 C.ar      1 T4B         0.0171
     25 O           7.2750    5.7190   14.4680 O.co2     1 T4B        -0.5662
     26 O1          5.9360    4.1630   15.2630 O.co2     1 T4B        -0.5662
     27 O2          7.9380    6.8180   16.8020 O.3       1 T4B        -0.3043
     28 C17         3.4130    4.5430   18.6550 C.ar      1 T4B        -0.0653
     29 N           3.4580    8.9580   16.9990 N.pl3     1 T4B        -0.1520
     30 N1          3.9960    9.0000   18.3230 N.2       1 T4B        -0.2035
     31 C18         3.7940    7.8620   18.9220 C.2       1 T4B         0.0416
     32 C23         3.5500    6.9180   21.2880 C.ar      1 T4B        -0.0548
     33 C25         5.4470    7.0620   22.8580 C.ar      1 T4B        -0.0624
     34 C26         6.2380    7.6950   21.8610 C.ar      1 T4B        -0.0619
     35 C28         1.5210    2.9690   18.7680 C.ar      1 T4B        -0.0688
     36 C29         0.6320    3.9900   18.3350 C.ar      1 T4B        -0.0692
     37 H1          1.3887   10.2127   15.7677 H         1 T4B         0.0587
     38 H2          5.8182    8.0384   15.6517 H         1 T4B         0.0533
     39 H3          5.8808   12.1254   14.5750 H         1 T4B         0.0607
     40 H4          3.7977   13.0796   13.5787 H         1 T4B         0.0561
     41 H5          7.2346    4.9862   17.5204 H         1 T4B         0.0784
     42 H6          5.9731    6.2212   17.1883 H         1 T4B         0.0784
     43 H7          9.2796    8.6235   18.2279 H         1 T4B         0.0536
     44 H8          8.7024   11.0529   18.4411 H         1 T4B         0.0587
     45 H9          6.6808   11.9794   17.2758 H         1 T4B         0.0521
     46 H10         2.8932    6.5732   13.5171 H         1 T4B         0.0258
     47 H11         4.0860    6.2113   14.8104 H         1 T4B         0.0258
     48 H12         3.8740    7.8982   14.2306 H         1 T4B         0.0258
     49 H13         1.7634    6.2265   15.7040 H         1 T4B         0.0489
     50 H14         1.5514    7.9133   15.1242 H         1 T4B         0.0489
     51 H15         3.5788    2.4609   19.2615 H         1 T4B         0.0598
     52 H16         3.5085    6.1925   23.3406 H         1 T4B         0.0616
     53 H17         0.4475    6.0687   17.7370 H         1 T4B         0.0555
     54 H18         1.5579   12.1322   14.1719 H         1 T4B         0.0603
     55 H19         6.2883    8.4226   19.8081 H         1 T4B         0.0617
     56 H20         4.4706    4.7483   18.7748 H         1 T4B         0.0555
     57 H21         2.5294    6.6225   21.0730 H         1 T4B         0.0617
     58 H22         5.8668    6.8734   23.8395 H         1 T4B         0.0612
     59 H23         7.2576    7.9897   22.0817 H         1 T4B         0.0616
     60 H24         1.1406    1.9756   18.9766 H         1 T4B         0.0558
     61 H25        -0.4233    3.7746   18.2122 H         1 T4B         0.0598
@<TRIPOS>BOND
     1    1   21 ar 
     2   23    1 ar 
     3    2    3 ar 
     4    2   11 ar 
     5   24    2 1  
     6    3    8 ar 
     7    4    5 ar 
     8   24    4 ar 
     9   21    5 ar 
    10    6    7 1  
    11   27    6 1  
    12    7   25 ar 
    13    7   26 ar 
    14    8    9 ar 
    15    8   27 1  
    16   10    9 ar 
    17   11   10 ar 
    18   16   12 1  
    19   14   13 1  
    20   13   20 ar 
    21   13   28 ar 
    22   15   14 2  
    23   14   31 1  
    24   15   16 1  
    25   29   15 1  
    26   28   17 ar 
    27   17   35 ar 
    28   32   18 ar 
    29   18   33 ar 
    30   19   22 ar 
    31   31   19 1  
    32   19   32 ar 
    33   20   36 ar 
    34   22   34 ar 
    35   23   24 ar 
    36   23   29 1  
    37   29   30 1  
    38   30   31 2  
    39   33   34 ar 
    40   35   36 ar 
    41    1   37 1  
    42    3   38 1  
    43    4   39 1  
    44    5   40 1  
    45    6   41 1  
    46    6   42 1  
    47    9   43 1  
    48   10   44 1  
    49   11   45 1  
    50   12   46 1  
    51   12   47 1  
    52   12   48 1  
    53   16   49 1  
    54   16   50 1  
    55   17   51 1  
    56   18   52 1  
    57   20   53 1  
    58   21   54 1  
    59   22   55 1  
    60   28   56 1  
    61   32   57 1  
    62   33   58 1  
    63   34   59 1  
    64   35   60 1  
    65   36   61 1  
@<TRIPOS>SUBSTRUCTURE
     1 T4B         1

