### 
### Created by X-TOOL on Mon Sep 10 21:12:55 2018
### 

@<TRIPOS>MOLECULE
2nns_ligand
   30    30     1     0     0
SMALL
GAST_HUCK


@<TRIPOS>ATOM
      1 C1         -5.2600    2.3770   15.8070 C.ar      1 M25         0.1009
      2 C2         -3.9210    2.3780   15.4430 C.ar      1 M25        -0.0419
      3 C3         -3.4410    3.4560   14.6950 C.ar      1 M25        -0.0584
      4 C4         -4.2500    4.5320   14.3150 C.ar      1 M25        -0.0410
      5 C5         -5.5810    4.4890   14.6740 C.ar      1 M25        -0.0584
      6 C6         -6.1250    3.4340   15.4180 C.ar      1 M25        -0.0419
      7 S          -5.9350    1.0310   16.7740 S.o2      1 M25         0.0628
      8 O1         -7.3830    1.1150   16.6540 O.2       1 M25        -0.1514
      9 O2         -5.3640    1.2050   18.1200 O.2       1 M25        -0.1514
     10 N1         -5.4740   -0.3460   16.1150 N.am      1 M25        -0.2617
     11 C7         -3.7190    5.6270   13.4330 C.3       1 M25         0.0011
     12 C8         -2.7680    6.5660   14.2060 C.3       1 M25         0.0404
     13 N2         -2.3670    7.6970   13.3740 N.am      1 M25        -0.2852
     14 C9         -1.5950    8.6890   13.8210 C.2       1 M25         0.1730
     15 C10        -1.3000    9.7870   12.8460 C.3       1 M25         0.0257
     16 O3         -1.1370    8.6790   14.9770 O.2       1 M25        -0.3974
     17 H1         -3.2652    1.5644   15.7312 H         1 M25         0.0619
     18 H2         -2.3988    3.4587   14.3969 H         1 M25         0.0557
     19 H3         -6.2303    5.3018   14.3691 H         1 M25         0.0557
     20 H4         -7.1746    3.4247   15.6886 H         1 M25         0.0619
     21 H5         -5.7576   -1.2145   16.5215 H         1 M25         0.1634
     22 H6         -4.9013   -0.3410   15.2953 H         1 M25         0.1634
     23 H7         -4.5640    6.2148   13.0451 H         1 M25         0.0446
     24 H8         -3.1704    5.1752   12.5934 H         1 M25         0.0446
     25 H9         -1.8716    6.0038   14.5066 H         1 M25         0.0542
     26 H10        -3.2826    6.9423   15.1024 H         1 M25         0.0542
     27 H11        -2.6854    7.7294   12.4266 H         1 M25         0.1852
     28 H12        -0.6595   10.5414   13.3262 H         1 M25         0.0467
     29 H13        -2.2421   10.2560   12.5259 H         1 M25         0.0467
     30 H14        -0.7817    9.3700   11.9699 H         1 M25         0.0467
@<TRIPOS>BOND
     1    1    2 ar 
     2    1    6 ar 
     3    1    7 1  
     4    2    3 ar 
     5    3    4 ar 
     6    4    5 ar 
     7    4   11 1  
     8    5    6 ar 
     9    7    8 2  
    10    7    9 2  
    11    7   10 am 
    12   11   12 1  
    13   12   13 1  
    14   13   14 am 
    15   14   15 1  
    16   14   16 2  
    17    2   17 1  
    18    3   18 1  
    19    5   19 1  
    20    6   20 1  
    21   10   21 1  
    22   10   22 1  
    23   11   23 1  
    24   11   24 1  
    25   12   25 1  
    26   12   26 1  
    27   13   27 1  
    28   15   28 1  
    29   15   29 1  
    30   15   30 1  
@<TRIPOS>SUBSTRUCTURE
     1 M25         1

