### 
### Created by X-TOOL on Mon Sep 10 21:12:55 2018
### 

@<TRIPOS>MOLECULE
2nnv_ligand
   32    32     1     0     0
SMALL
GAST_HUCK


@<TRIPOS>ATOM
      1 C1         -5.2710    2.0670   15.7360 C.ar      1 M29         0.1009
      2 C2         -6.0940    3.1360   15.3350 C.ar      1 M29        -0.0419
      3 C3         -5.5850    4.1650   14.5640 C.ar      1 M29        -0.0583
      4 C4         -4.2540    4.1700   14.1930 C.ar      1 M29        -0.0406
      5 C5         -3.4240    3.1340   14.5770 C.ar      1 M29        -0.0583
      6 C6         -3.9400    2.0620   15.3330 C.ar      1 M29        -0.0419
      7 S          -5.9400    0.7540   16.7160 S.o2      1 M29         0.0628
      8 O1         -7.3820    0.8790   16.5920 O.2       1 M29        -0.1514
      9 O2         -5.3730    0.9660   18.0400 O.2       1 M29        -0.1514
     10 N          -5.4500   -0.6540   16.1030 N.am      1 M29        -0.2617
     11 C7         -3.7100    5.3030   13.3840 C.3       1 M29        -0.0009
     12 C8         -2.7570    6.1460   14.1930 C.3       1 M29         0.0583
     13 C9         -2.1760    7.3640   13.5430 C.2       1 M29         0.2357
     14 O3         -1.3150    8.0500   14.3360 O.3       1 M29        -0.2770
     15 O4         -2.4870    7.6810   12.4410 O.2       1 M29        -0.3702
     16 C10        -0.8950    9.3320   13.8310 C.3       1 M29         0.0740
     17 C11        -0.1230    9.9800   14.9710 C.3       1 M29        -0.0371
     18 H1         -7.1361    3.1529   15.6331 H         1 M29         0.0619
     19 H2         -6.2347    4.9733   14.2485 H         1 M29         0.0557
     20 H3         -2.3768    3.1457   14.2970 H         1 M29         0.0557
     21 H4         -3.2974    1.2312   15.6011 H         1 M29         0.0619
     22 H5         -5.7336   -1.5118   16.5317 H         1 M29         0.1634
     23 H6         -4.8624   -0.6697   15.2940 H         1 M29         0.1634
     24 H7         -4.5447    5.9331   13.0431 H         1 M29         0.0452
     25 H8         -3.1770    4.8969   12.5116 H         1 M29         0.0452
     26 H9         -1.9172    5.4998   14.4882 H         1 M29         0.0541
     27 H10        -3.2964    6.4798   15.0917 H         1 M29         0.0541
     28 H11        -1.7679    9.9441   13.5601 H         1 M29         0.0610
     29 H12        -0.2480    9.2060   12.9504 H         1 M29         0.0610
     30 H13         0.2324   10.9721   14.6558 H         1 M29         0.0255
     31 H14         0.7383    9.3491   15.2358 H         1 M29         0.0255
     32 H15        -0.7816   10.0873   15.8455 H         1 M29         0.0255
@<TRIPOS>BOND
     1    1    2 ar 
     2    1    6 ar 
     3    1    7 1  
     4    2    3 ar 
     5    3    4 ar 
     6    4    5 ar 
     7    4   11 1  
     8    5    6 ar 
     9    7    8 2  
    10    7    9 2  
    11    7   10 am 
    12   11   12 1  
    13   12   13 1  
    14   13   14 1  
    15   13   15 2  
    16   14   16 1  
    17   16   17 1  
    18    2   18 1  
    19    3   19 1  
    20    5   20 1  
    21    6   21 1  
    22   10   22 1  
    23   10   23 1  
    24   11   24 1  
    25   11   25 1  
    26   12   26 1  
    27   12   27 1  
    28   16   28 1  
    29   16   29 1  
    30   17   30 1  
    31   17   31 1  
    32   17   32 1  
@<TRIPOS>SUBSTRUCTURE
     1 M29         1

