### 
### Created by X-TOOL on Mon Sep 10 21:12:56 2018
### 

@<TRIPOS>MOLECULE
2no3_ligand
   39    41     1     0     0
SMALL
GAST_HUCK


@<TRIPOS>ATOM
      1 C1         17.7710  107.5350   51.0610 C.ar      1 859         0.1954
      2 N2         18.8810  107.0790   50.4700 N.ar      1 859        -0.2339
      3 C3         18.8750  106.6660   49.1930 C.ar      1 859         0.1358
      4 C4         17.6950  106.6990   48.4520 C.ar      1 859        -0.0012
      5 C5         16.5550  107.1920   49.1190 C.ar      1 859         0.0015
      6 N6         16.5960  107.6020   50.4200 N.ar      1 859        -0.2685
      7 N7         20.0360  106.1830   48.6480 N.pl3     1 859        -0.2515
      8 C8         21.3420  106.0370   49.1580 C.ar      1 859         0.0850
      9 C9         22.3420  105.4330   48.3300 C.ar      1 859         0.0727
     10 C10        23.6630  105.2640   48.8230 C.ar      1 859        -0.0512
     11 C11        24.0200  105.6940   50.1180 C.ar      1 859        -0.0675
     12 C12        23.0610  106.2830   50.9430 C.ar      1 859        -0.0669
     13 C13        21.7580  106.4510   50.4680 C.ar      1 859        -0.0320
     14 N14        17.8210  107.9340   52.3720 N.pl3     1 859        -0.2468
     15 C15        18.9080  108.0340   53.2260 C.ar      1 859         0.0562
     16 C16        18.9030  109.0960   54.1600 C.ar      1 859        -0.0492
     17 C17        19.9660  109.2770   55.0740 C.ar      1 859        -0.0798
     18 C18        21.0750  108.3880   55.0720 C.ar      1 859        -0.0449
     19 C19        21.1100  107.3220   54.1530 C.ar      1 859         0.0781
     20 C20        20.0380  107.1510   53.2480 C.ar      1 859        -0.0109
     21 O21        22.1910  106.4510   54.1380 O.3       1 859        -0.3361
     22 C22        22.0170  104.9470   46.9660 C.2       1 859         0.1959
     23 N23        23.0100  104.3640   46.2730 N.am      1 859        -0.3021
     24 O24        20.9050  105.0460   46.4600 O.2       1 859        -0.3914
     25 H1         17.6560  106.3647   47.4216 H         1 859         0.0586
     26 H2         15.6155  107.2472   48.5811 H         1 859         0.0849
     27 H3         19.9342  105.8638   47.6740 H         1 859         0.2184
     28 H4         24.4105  104.7961   48.1927 H         1 859         0.0639
     29 H5         25.0369  105.5672   50.4715 H         1 859         0.0533
     30 H6         23.3246  106.6072   51.9432 H         1 859         0.0623
     31 H7         21.0267  106.9158   51.1193 H         1 859         0.0550
     32 H8         16.9149  108.1991   52.7838 H         1 859         0.2175
     33 H9         18.0667  109.7855   54.1753 H         1 859         0.0446
     34 H10        19.9352  110.0986   55.7805 H         1 859         0.0561
     35 H11        21.8889  108.5299   55.7738 H         1 859         0.0448
     36 H12        20.0709  106.3248   52.5470 H         1 859         0.0455
     37 H13        22.8144  106.7102   54.8063 H         1 859         0.2478
     38 H14        22.8403  104.0203   45.3494 H         1 859         0.1804
     39 H15        23.9185  104.2739   46.6810 H         1 859         0.1804
@<TRIPOS>BOND
     1    1    2 ar 
     2    1    6 ar 
     3    1   14 1  
     4    2    3 ar 
     5    3    4 ar 
     6    3    7 1  
     7    4    5 ar 
     8    5    6 ar 
     9    7    8 1  
    10    8    9 ar 
    11    8   13 ar 
    12    9   10 ar 
    13    9   22 1  
    14   10   11 ar 
    15   11   12 ar 
    16   12   13 ar 
    17   14   15 1  
    18   15   16 ar 
    19   15   20 ar 
    20   16   17 ar 
    21   17   18 ar 
    22   18   19 ar 
    23   19   20 ar 
    24   19   21 1  
    25   22   23 am 
    26   22   24 2  
    27    4   25 1  
    28    5   26 1  
    29    7   27 1  
    30   10   28 1  
    31   11   29 1  
    32   12   30 1  
    33   13   31 1  
    34   14   32 1  
    35   16   33 1  
    36   17   34 1  
    37   18   35 1  
    38   20   36 1  
    39   21   37 1  
    40   23   38 1  
    41   23   39 1  
@<TRIPOS>SUBSTRUCTURE
     1 859         1

