### 
### Created by X-TOOL on Mon Sep 10 21:12:55 2018
### 

@<TRIPOS>MOLECULE
2np8_ligand
   48    51     1     0     0
SMALL
GAST_HUCK


@<TRIPOS>ATOM
      1 O27        -0.9040   34.5510   -1.7140 O.2       1 CC3        -0.3846
      2 C26        -0.8280   35.3640   -2.6320 C.2       1 CC3         0.2065
      3 C28         0.0680   36.5680   -2.4840 C.3       1 CC3         0.0548
      4 C30        -0.7350   37.8680   -2.5400 C.3       1 CC3        -0.0304
      5 C29        -0.2580   37.3210   -1.1990 C.3       1 CC3        -0.0304
      6 N25        -1.4820   35.2480   -3.7990 N.am      1 CC3        -0.2363
      7 C21        -2.2700   34.2020   -4.1850 C.ar      1 CC3         0.0563
      8 C20        -2.4740   34.0020   -5.5470 C.ar      1 CC3        -0.0192
      9 C22        -2.9030   33.3450   -3.2800 C.ar      1 CC3        -0.0526
     10 C23        -3.7110   32.3040   -3.7290 C.ar      1 CC3        -0.0844
     11 C24        -3.9020   32.1200   -5.1000 C.ar      1 CC3        -0.0534
     12 C19        -3.2850   32.9700   -6.0170 C.ar      1 CC3         0.0513
     13 N18        -3.4200   32.8550   -7.3630 N.pl3     1 CC3        -0.2478
     14 C16        -4.0990   31.9260   -8.0810 C.ar      1 CC3         0.1950
     15 N15        -4.0400   32.0200   -9.4300 N.ar      1 CC3        -0.2688
     16 C14        -4.6800   31.1470  -10.2170 C.ar      1 CC3         0.0012
     17 C13        -5.4290   30.1220   -9.6510 C.ar      1 CC3        -0.0017
     18 N17        -4.8220   30.9330   -7.5060 N.ar      1 CC3        -0.2345
     19 C12        -5.4950   30.0260   -8.2620 C.ar      1 CC3         0.1344
     20 N11        -6.2360   29.0230   -7.7240 N.pl3     1 CC3        -0.2504
     21 C1         -6.5000   28.8060   -6.4070 C.ar      1 CC3         0.0934
     22 C6         -7.2420   27.6750   -6.0750 C.ar      1 CC3        -0.0089
     23 C5         -7.5480   27.3850   -4.7440 C.ar      1 CC3         0.0378
     24 C7         -8.3450   26.1460   -4.4140 C.3       1 CC3         0.3738
     25 F10        -9.1930   25.8600   -5.3980 F         1 CC3        -0.2206
     26 F9         -7.4890   25.1440   -4.2830 F         1 CC3        -0.2206
     27 F8         -9.0250   26.3110   -3.2820 F         1 CC3        -0.2206
     28 C4         -7.1010   28.2380   -3.7280 C.ar      1 CC3        -0.0417
     29 C3         -6.3590   29.3710   -4.0500 C.ar      1 CC3        -0.0398
     30 C2         -6.0650   29.6490   -5.3820 C.ar      1 CC3        -0.0086
     31 H1          1.0805   36.4465   -2.8964 H         1 CC3         0.0543
     32 H2         -1.8047   37.8435   -2.7951 H         1 CC3         0.0294
     33 H3         -0.2795   38.7786   -2.9562 H         1 CC3         0.0294
     34 H4          0.5409   37.8382   -0.6475 H         1 CC3         0.0294
     35 H5         -0.9843   36.9031   -0.4864 H         1 CC3         0.0294
     36 H6         -1.3821   36.0014   -4.4489 H         1 CC3         0.2254
     37 H7         -1.9918   34.6631   -6.2580 H         1 CC3         0.0412
     38 H8         -2.7630   33.4929   -2.2153 H         1 CC3         0.0411
     39 H9         -4.1893   31.6399   -3.0182 H         1 CC3         0.0550
     40 H10        -4.5330   31.3124   -5.4531 H         1 CC3         0.0413
     41 H11        -2.9379   33.5763   -7.9182 H         1 CC3         0.2173
     42 H12        -4.6143   31.2392  -11.2951 H         1 CC3         0.0849
     43 H13        -5.9525   29.4099  -10.2787 H         1 CC3         0.0584
     44 H14        -6.6445   28.3502   -8.3884 H         1 CC3         0.2164
     45 H15        -7.5863   27.0115   -6.8600 H         1 CC3         0.0752
     46 H16        -7.3322   28.0167   -2.6923 H         1 CC3         0.0768
     47 H17        -6.0114   30.0344   -3.2663 H         1 CC3         0.0673
     48 H18        -5.4892   30.5340   -5.6276 H         1 CC3         0.0789
@<TRIPOS>BOND
     1    1    2 2  
     2    2    3 1  
     3    2    6 am 
     4    3    4 1  
     5    3    5 1  
     6    4    5 1  
     7    6    7 1  
     8    7    8 ar 
     9    7    9 ar 
    10    8   12 ar 
    11    9   10 ar 
    12   10   11 ar 
    13   11   12 ar 
    14   12   13 1  
    15   13   14 1  
    16   14   15 ar 
    17   14   18 ar 
    18   15   16 ar 
    19   16   17 ar 
    20   17   19 ar 
    21   18   19 ar 
    22   19   20 1  
    23   20   21 1  
    24   21   22 ar 
    25   21   30 ar 
    26   22   23 ar 
    27   23   24 1  
    28   23   28 ar 
    29   24   25 1  
    30   24   26 1  
    31   24   27 1  
    32   28   29 ar 
    33   29   30 ar 
    34    3   31 1  
    35    4   32 1  
    36    4   33 1  
    37    5   34 1  
    38    5   35 1  
    39    6   36 1  
    40    8   37 1  
    41    9   38 1  
    42   10   39 1  
    43   11   40 1  
    44   13   41 1  
    45   16   42 1  
    46   17   43 1  
    47   20   44 1  
    48   22   45 1  
    49   28   46 1  
    50   29   47 1  
    51   30   48 1  
@<TRIPOS>SUBSTRUCTURE
     1 CC3         1

