### 
### Created by X-TOOL on Mon Sep 10 21:12:53 2018
### 

@<TRIPOS>MOLECULE
2nq6_ligand
   38    39     1     0     0
SMALL
GAST_HUCK


@<TRIPOS>ATOM
      1 S          46.6490   17.7760   36.4070 S.3       1 HM4         0.0111
      2 N1         46.5630   19.5820   34.7430 N.2       1 HM4        -0.3233
      3 N2         45.0780   20.0020   36.4810 N.am      1 HM4        -0.1943
      4 N3         43.4430   21.8760   37.4730 N.ar      1 HM4        -0.2924
      5 N4         44.2400   20.0750   40.5390 N.am      1 HM4        -0.1969
      6 C1         47.6650   17.5820   35.1110 C.2       1 HM4        -0.0078
      7 C2         47.4810   18.7030   34.2760 C.2       1 HM4        -0.0465
      8 C3         46.0140   19.2520   35.8630 C.2       1 HM4         0.2053
      9 C4         44.8070   19.8850   37.7920 C.2       1 HM4         0.2528
     10 C5         43.9560   20.9590   38.3470 C.ar      1 HM4         0.1503
     11 C6         42.6480   22.8880   37.8300 C.ar      1 HM4         0.0008
     12 C7         42.3130   23.0380   39.1760 C.ar      1 HM4        -0.0434
     13 C8         42.7950   22.1450   40.1500 C.ar      1 HM4        -0.0154
     14 C9         43.6720   21.0260   39.7240 C.ar      1 HM4         0.1182
     15 C10        44.1660   19.9120   41.8960 C.2       1 HM4         0.3553
     16 C11        44.9300   18.5210   43.8040 C.3       1 HM4         0.0911
     17 C12        45.8310   17.3250   43.7690 C.3       1 HM4        -0.0320
     18 C13        43.4540   18.0670   44.2760 C.3       1 HM4        -0.0320
     19 C14        45.6970   19.5330   44.6540 C.3       1 HM4        -0.0320
     20 O1         45.2950   18.9690   38.4750 O.2       1 HM4        -0.3712
     21 O2         43.5450   20.6400   42.5860 O.2       1 HM4        -0.3650
     22 O3         44.8570   18.8740   42.4100 O.3       1 HM4        -0.2524
     23 H1         44.5659   20.6711   35.9424 H         1 HM4         0.2403
     24 H2         44.7963   19.3932   40.0640 H         1 HM4         0.2333
     25 H3         48.3442   16.7485   34.9380 H         1 HM4         0.0574
     26 H4         48.0254   18.8481   33.3441 H         1 HM4         0.0498
     27 H5         42.2696   23.5807   37.0870 H         1 HM4         0.0711
     28 H6         41.6699   23.8572   39.4765 H         1 HM4         0.0698
     29 H7         42.5305   22.2719   41.1936 H         1 HM4         0.0637
     30 H8         45.9755   16.9448   44.7910 H         1 HM4         0.0260
     31 H9         46.8041   17.6113   43.3433 H         1 HM4         0.0260
     32 H10        45.3752   16.5406   43.1470 H         1 HM4         0.0260
     33 H11        42.7913   18.9446   44.3021 H         1 HM4         0.0260
     34 H12        43.5111   17.6207   45.2798 H         1 HM4         0.0260
     35 H13        43.0541   17.3265   43.5677 H         1 HM4         0.0260
     36 H14        46.6766   19.7304   44.1941 H         1 HM4         0.0260
     37 H15        45.8422   19.1268   45.6659 H         1 HM4         0.0260
     38 H16        45.1245   20.4703   44.7138 H         1 HM4         0.0260
@<TRIPOS>BOND
     1    1    6 1  
     2    8    1 1  
     3    2    7 1  
     4    8    2 2  
     5    3    8 1  
     6    9    3 am 
     7   10    4 ar 
     8    4   11 ar 
     9    5   14 1  
    10   15    5 am 
    11    7    6 2  
    12   10    9 1  
    13    9   20 2  
    14   14   10 ar 
    15   12   11 ar 
    16   13   12 ar 
    17   14   13 ar 
    18   15   21 2  
    19   22   15 1  
    20   16   17 1  
    21   16   18 1  
    22   16   19 1  
    23   16   22 1  
    24    3   23 1  
    25    5   24 1  
    26    6   25 1  
    27    7   26 1  
    28   11   27 1  
    29   12   28 1  
    30   13   29 1  
    31   17   30 1  
    32   17   31 1  
    33   17   32 1  
    34   18   33 1  
    35   18   34 1  
    36   18   35 1  
    37   19   36 1  
    38   19   37 1  
    39   19   38 1  
@<TRIPOS>SUBSTRUCTURE
     1 HM4         1

