### 
### Created by X-TOOL on Mon Sep 10 21:12:54 2018
### 

@<TRIPOS>MOLECULE
2nq7_ligand
   37    38     1     0     0
SMALL
GAST_HUCK


@<TRIPOS>ATOM
      1 S          10.7210   33.2170   23.2850 S.3       1 HM5         0.0111
      2 N1          9.1330   31.2470   23.1770 N.2       1 HM5        -0.3232
      3 N2         11.1600   30.9660   21.9780 N.am      1 HM5        -0.1942
      4 N3         12.3460   29.1710   20.3630 N.ar      1 HM5        -0.2918
      5 N4         15.1410   31.5840   20.7510 N.am      1 HM5        -0.2209
      6 C1          9.2390   33.3520   24.1420 C.2       1 HM5        -0.0078
      7 C2          8.5330   32.1990   23.9600 C.2       1 HM5        -0.0465
      8 C3         10.3020   31.6580   22.7710 C.2       1 HM5         0.2053
      9 C4         12.4330   31.2930   21.5980 C.2       1 HM5         0.2532
     10 C5         13.0930   30.2700   20.7270 C.ar      1 HM5         0.1511
     11 C6         12.9790   28.2100   19.5390 C.ar      1 HM5         0.0013
     12 C7         14.2300   28.2730   19.1160 C.ar      1 HM5        -0.0429
     13 C8         15.0090   29.4070   19.4960 C.ar      1 HM5        -0.0147
     14 C9         14.4600   30.4490   20.3150 C.ar      1 HM5         0.1174
     15 C10        16.4400   32.0900   20.5970 C.2       1 HM5         0.2316
     16 C11        16.6900   33.5730   21.0280 C.3       1 HM5         0.0492
     17 C12        15.4100   34.2580   21.5550 C.3       1 HM5        -0.0532
     18 C13        17.2360   34.3890   19.8290 C.3       1 HM5        -0.0532
     19 C14        17.7450   33.5860   22.1550 C.3       1 HM5        -0.0532
     20 O1         12.9780   32.3100   21.9730 O.2       1 HM5        -0.3710
     21 O2         17.3410   31.4070   20.1640 O.2       1 HM5        -0.3321
     22 H1         10.8137   30.0977   21.6228 H         1 HM5         0.2404
     23 H2         14.5645   32.1818   21.3080 H         1 HM5         0.2327
     24 H3          8.9179   34.2106   24.7298 H         1 HM5         0.0574
     25 H4          7.5530   32.0443   24.4091 H         1 HM5         0.0498
     26 H5         12.3908   27.3535   19.2299 H         1 HM5         0.0715
     27 H6         14.6513   27.4873   18.4993 H         1 HM5         0.0700
     28 H7         16.0365   29.4824   19.1588 H         1 HM5         0.0641
     29 H8         15.6407   35.2943   21.8430 H         1 HM5         0.0221
     30 H9         15.0344   33.7090   22.4311 H         1 HM5         0.0221
     31 H10        14.6432   34.2588   20.7663 H         1 HM5         0.0221
     32 H11        18.1487   33.9101   19.4448 H         1 HM5         0.0221
     33 H12        17.4695   35.4124   20.1579 H         1 HM5         0.0221
     34 H13        16.4774   34.4237   19.0332 H         1 HM5         0.0221
     35 H14        17.3709   33.0098   23.0141 H         1 HM5         0.0221
     36 H15        17.9374   34.6236   22.4653 H         1 HM5         0.0221
     37 H16        18.6784   33.1337   21.7887 H         1 HM5         0.0221
@<TRIPOS>BOND
     1    1    6 1  
     2    8    1 1  
     3    2    7 1  
     4    8    2 2  
     5    3    8 1  
     6    9    3 am 
     7   10    4 ar 
     8    4   11 ar 
     9   14    5 1  
    10    5   15 am 
    11    7    6 2  
    12   10    9 1  
    13    9   20 2  
    14   10   14 ar 
    15   11   12 ar 
    16   12   13 ar 
    17   13   14 ar 
    18   15   16 1  
    19   15   21 2  
    20   16   17 1  
    21   16   18 1  
    22   16   19 1  
    23    3   22 1  
    24    5   23 1  
    25    6   24 1  
    26    7   25 1  
    27   11   26 1  
    28   12   27 1  
    29   13   28 1  
    30   17   29 1  
    31   17   30 1  
    32   17   31 1  
    33   18   32 1  
    34   18   33 1  
    35   18   34 1  
    36   19   35 1  
    37   19   36 1  
    38   19   37 1  
@<TRIPOS>SUBSTRUCTURE
     1 HM5         1

