### 
### Created by X-TOOL on Mon Sep 10 21:12:55 2018
### 

@<TRIPOS>MOLECULE
2nqg_ligand
   84    85     1     0     0
SMALL
GAST_HUCK


@<TRIPOS>ATOM
      1 CAA         5.9300    4.0790  -22.5620 C.3       1 NQG        -0.0371
      2 CAS         7.2660    4.8280  -22.6210 C.3       1 NQG         0.0740
      3 OBE         8.5460    4.1020  -22.3080 O.3       1 NQG        -0.2769
      4 CBL         9.2830    4.8060  -21.3920 C.2       1 NQG         0.2386
      5 OAK         8.6710    5.4580  -20.5380 O.2       1 NQG        -0.3701
      6 CBT        10.8430    4.7560  -21.3980 C.3       1 NQG         0.0919
      7 CBS        11.4420    6.1980  -21.3220 C.3       1 NQG         0.1614
      8 OAL        11.0790    6.9900  -22.4680 O.3       1 NQG        -0.3689
      9 CBK        12.9690    6.1880  -21.1610 C.2       1 NQG         0.2096
     10 OAJ        13.4760    6.0900  -20.0550 O.2       1 NQG        -0.3939
     11 N          13.6910    6.3070  -22.2720 N.am      1 NQG        -0.2633
     12 CA         15.1800    6.3010  -22.2860 C.3       1 NQG         0.1329
     13 CB         15.6770    5.1940  -23.2520 C.3       1 NQG         0.0113
     14 CAT        15.2680    3.7420  -22.8700 C.3       1 NQG         0.0769
     15 CAM        15.6480    3.3190  -21.5080 C.1       1 NQG         0.0899
     16 NAC        15.9020    3.0960  -20.4130 N.1       1 NQG        -0.3036
     17 C          15.7020    7.7070  -22.7100 C.2       1 NQG         0.2040
     18 O          14.9440    8.4780  -23.3020 O.2       1 NQG        -0.3944
     19 NBA        16.9720    8.0670  -22.4210 N.am      1 NQG        -0.2637
     20 CBQ        18.0500    7.3100  -21.7120 C.3       1 NQG         0.1311
     21 CAX        18.7890    6.3290  -22.6730 C.3       1 NQG        -0.0092
     22 CAU        19.2720    4.9790  -22.0920 C.3       1 NQG        -0.0156
     23 CAV        19.8470    4.0220  -23.1850 C.3       1 NQG         0.0627
     24 NAZ        18.8280    3.8670  -24.2450 N.pl3     1 NQG        -0.2723
     25 CBG        18.5260    2.7900  -25.0060 C.cat     1 NQG         0.2882
     26 NAE        17.5220    2.9290  -25.8740 N.pl3     1 NQG        -0.2849
     27 NAD        19.1690    1.6160  -24.9330 N.pl3     1 NQG        -0.2849
     28 CBJ        19.0170    8.3870  -21.1230 C.2       1 NQG         0.2040
     29 OAI        20.2460    8.3080  -21.2450 O.2       1 NQG        -0.3944
     30 NBB        18.4060    9.3940  -20.4820 N.am      1 NQG        -0.2627
     31 CBR        19.1120   10.5320  -19.8480 C.3       1 NQG         0.1348
     32 CBH        20.0930   10.0610  -18.7270 C.2       1 NQG         0.2004
     33 OAG        19.7270    9.3290  -17.8030 O.2       1 NQG        -0.3946
     34 NAF        21.3500   10.5000  -18.8420 N.am      1 NQG        -0.2989
     35 CAY        18.0440   11.4950  -19.2960 C.3       1 NQG         0.0042
     36 CBM        17.6310   12.5800  -20.3080 C.2       1 NQG        -0.0418
     37 CBO        16.9270   12.4230  -21.5100 C.ar      1 NQG        -0.0214
     38 CAQ        16.3880   11.3230  -22.1910 C.ar      1 NQG        -0.0747
     39 CAO        15.7300   11.5170  -23.4100 C.ar      1 NQG        -0.0792
     40 CAN        15.6050   12.7990  -23.9580 C.ar      1 NQG        -0.0768
     41 CAP        16.1400   13.8980  -23.2820 C.ar      1 NQG        -0.0443
     42 CBN        16.8010   13.7080  -22.0600 C.ar      1 NQG         0.0603
     43 NBD        17.3950   14.5620  -21.2150 N.pl3     1 NQG        -0.2890
     44 CAR        17.8870   13.8870  -20.1670 C.2       1 NQG         0.0167
     45 H1          5.1119    4.7677  -22.8196 H         1 NQG         0.0255
     46 H2          5.7736    3.6876  -21.5460 H         1 NQG         0.0255
     47 H3          5.9457    3.2442  -23.2782 H         1 NQG         0.0255
     48 H4          7.1932    5.6651  -21.9111 H         1 NQG         0.0610
     49 H5          7.3653    5.2217  -23.6433 H         1 NQG         0.0610
     50 H6         11.1853    4.2712  -22.3242 H         1 NQG         0.0570
     51 H7         11.1891    4.1750  -20.5304 H         1 NQG         0.0570
     52 H8         11.0156    6.6819  -20.4309 H         1 NQG         0.0864
     53 H9         11.4599    7.8564  -22.3863 H         1 NQG         0.2135
     54 H10        13.2089    6.4056  -23.1426 H         1 NQG         0.1883
     55 H11        15.5493    6.0787  -21.2740 H         1 NQG         0.0800
     56 H12        16.7756    5.2398  -23.2842 H         1 NQG         0.0333
     57 H13        15.2716    5.4088  -24.2517 H         1 NQG         0.0333
     58 H14        15.7446    3.0551  -23.5848 H         1 NQG         0.0558
     59 H15        14.1745    3.6623  -22.9582 H         1 NQG         0.0558
     60 H16        17.2317    8.9822  -22.7291 H         1 NQG         0.1883
     61 H17        17.6095    6.7250  -20.8912 H         1 NQG         0.0800
     62 H18        19.6737    6.8544  -23.0618 H         1 NQG         0.0313
     63 H19        18.1029    6.1027  -23.5025 H         1 NQG         0.0313
     64 H20        18.4215    4.4825  -21.6021 H         1 NQG         0.0301
     65 H21        20.0586    5.1771  -21.3490 H         1 NQG         0.0301
     66 H22        20.0736    3.0419  -22.7401 H         1 NQG         0.0689
     67 H23        20.7652    4.4524  -23.6112 H         1 NQG         0.0689
     68 H24        18.2619    4.7068  -24.4326 H         1 NQG         0.2642
     69 H25        17.2505    2.1401  -26.4780 H         1 NQG         0.2615
     70 H26        17.0186    3.8252  -25.9399 H         1 NQG         0.2615
     71 H27        19.9458    1.4948  -24.2675 H         1 NQG         0.2615
     72 H28        18.8863    0.8352  -25.5424 H         1 NQG         0.2615
     73 H29        17.4076    9.3757  -20.4283 H         1 NQG         0.1884
     74 H30        19.6999   11.0558  -20.6161 H         1 NQG         0.0815
     75 H31        22.0348   10.2397  -18.1613 H         1 NQG         0.1815
     76 H32        21.6058   11.0888  -19.6087 H         1 NQG         0.1815
     77 H33        18.4465   11.9877  -18.3987 H         1 NQG         0.0397
     78 H34        17.1521   10.9111  -19.0248 H         1 NQG         0.0397
     79 H35        16.4806   10.3263  -21.7749 H         1 NQG         0.0540
     80 H36        15.3126   10.6658  -23.9357 H         1 NQG         0.0510
     81 H37        15.0946   12.9384  -24.9041 H         1 NQG         0.0530
     82 H38        16.0446   14.8935  -23.7002 H         1 NQG         0.0541
     83 H39        17.4629   15.5808  -21.3503 H         1 NQG         0.2216
     84 H40        18.4158   14.3343  -19.3266 H         1 NQG         0.0795
@<TRIPOS>BOND
     1    1    2 1  
     2    2    3 1  
     3    3    4 1  
     4    4    5 2  
     5    4    6 1  
     6    6    7 1  
     7    7    8 1  
     8    7    9 1  
     9    9   10 2  
    10    9   11 am 
    11   11   12 1  
    12   12   13 1  
    13   12   17 1  
    14   13   14 1  
    15   14   15 1  
    16   15   16 3  
    17   17   18 2  
    18   17   19 am 
    19   19   20 1  
    20   20   21 1  
    21   20   28 1  
    22   21   22 1  
    23   22   23 1  
    24   23   24 1  
    25   24   25 ar 
    26   25   26 ar 
    27   25   27 ar 
    28   28   29 2  
    29   28   30 am 
    30   30   31 1  
    31   31   32 1  
    32   31   35 1  
    33   32   33 2  
    34   32   34 am 
    35   35   36 1  
    36   36   37 1  
    37   36   44 2  
    38   37   38 ar 
    39   37   42 ar 
    40   38   39 ar 
    41   39   40 ar 
    42   40   41 ar 
    43   41   42 ar 
    44   42   43 1  
    45   43   44 1  
    46    1   45 1  
    47    1   46 1  
    48    1   47 1  
    49    2   48 1  
    50    2   49 1  
    51    6   50 1  
    52    6   51 1  
    53    7   52 1  
    54    8   53 1  
    55   11   54 1  
    56   12   55 1  
    57   13   56 1  
    58   13   57 1  
    59   14   58 1  
    60   14   59 1  
    61   19   60 1  
    62   20   61 1  
    63   21   62 1  
    64   21   63 1  
    65   22   64 1  
    66   22   65 1  
    67   23   66 1  
    68   23   67 1  
    69   24   68 1  
    70   26   69 1  
    71   26   70 1  
    72   27   71 1  
    73   27   72 1  
    74   30   73 1  
    75   31   74 1  
    76   34   75 1  
    77   34   76 1  
    78   35   77 1  
    79   35   78 1  
    80   38   79 1  
    81   39   80 1  
    82   40   81 1  
    83   41   82 1  
    84   43   83 1  
    85   44   84 1  
@<TRIPOS>SUBSTRUCTURE
     1 NQG         1

