### 
### Created by X-TOOL on Mon Sep 10 21:12:55 2018
### 

@<TRIPOS>MOLECULE
2nqi_ligand
   84    85     1     0     0
SMALL
GAST_HUCK


@<TRIPOS>ATOM
      1 CAB         6.3540    4.5090  -22.7670 C.3       1 NQI        -0.0371
      2 CAS         7.5920    5.3840  -22.9910 C.3       1 NQI         0.0740
      3 OBD         8.9390    4.7740  -22.7130 O.3       1 NQI        -0.2769
      4 CBK         9.3960    5.3260  -21.5390 C.2       1 NQI         0.2386
      5 OAK         8.5840    5.7750  -20.7310 O.2       1 NQI        -0.3701
      6 CBS        10.8790    5.3630  -21.1580 C.3       1 NQI         0.0919
      7 CBR        11.7840    5.8820  -22.2850 C.3       1 NQI         0.1615
      8 OAL        11.2900    7.1170  -22.8240 O.3       1 NQI        -0.3689
      9 CBJ        13.1980    6.1310  -21.7570 C.2       1 NQI         0.2097
     10 OAJ        13.4090    6.9240  -20.8390 O.2       1 NQI        -0.3939
     11 N          14.1550    5.4420  -22.3750 N.am      1 NQI        -0.2613
     12 CA         15.5730    5.6050  -22.0090 C.3       1 NQI         0.1410
     13 CB         16.2970    4.2800  -21.7630 C.3       1 NQI         0.0156
     14 CAM        15.4580    3.1870  -21.6830 C.2       1 NQI        -0.0848
     15 CAA        15.7050    2.1400  -22.5390 C.2       1 NQI        -0.1173
     16 C          16.2700    6.2770  -23.1760 C.2       1 NQI         0.2063
     17 O          16.4560    5.6020  -24.1850 O.2       1 NQI        -0.3942
     18 NAZ        16.6820    7.5560  -23.0860 N.am      1 NQI        -0.2636
     19 CBP        16.5390    8.5470  -21.9960 C.3       1 NQI         0.1311
     20 CAW        17.8700    8.6680  -21.1930 C.3       1 NQI        -0.0092
     21 CAT        18.9520    9.5700  -21.8050 C.3       1 NQI        -0.0156
     22 CAU        19.3720   10.6550  -20.7950 C.3       1 NQI         0.0627
     23 NAY        19.9950   11.8120  -21.4860 N.pl3     1 NQI        -0.2723
     24 CBF        21.3240   11.8890  -21.7070 C.cat     1 NQI         0.2882
     25 NAE        22.1530   10.9140  -21.3090 N.pl3     1 NQI        -0.2849
     26 NAD        21.8380   12.9470  -22.3320 N.pl3     1 NQI        -0.2849
     27 CBI        15.9940    9.8640  -22.6690 C.2       1 NQI         0.2040
     28 OAI        15.3680    9.7640  -23.7380 O.2       1 NQI        -0.3944
     29 NBB        16.2260   11.0480  -22.0490 N.am      1 NQI        -0.2627
     30 CBQ        15.7810   12.4040  -22.5420 C.3       1 NQI         0.1348
     31 CBG        14.2500   12.6050  -22.3830 C.2       1 NQI         0.2004
     32 OAG        13.4400   11.8710  -22.9550 O.2       1 NQI        -0.3946
     33 NAF        13.8990   13.6320  -21.6000 N.am      1 NQI        -0.2989
     34 CAX        16.1990   12.7290  -24.0130 C.3       1 NQI         0.0042
     35 CBL        16.5640   14.2170  -24.2590 C.2       1 NQI        -0.0418
     36 CBN        15.7990   15.2000  -24.9090 C.ar      1 NQI        -0.0214
     37 CAQ        14.5280   15.2100  -25.5100 C.ar      1 NQI        -0.0747
     38 CAO        14.0320   16.3920  -26.0830 C.ar      1 NQI        -0.0792
     39 CAN        14.8010   17.5680  -26.0600 C.ar      1 NQI        -0.0768
     40 CAP        16.0670   17.5630  -25.4630 C.ar      1 NQI        -0.0443
     41 CBM        16.5610   16.3810  -24.8870 C.ar      1 NQI         0.0603
     42 NBC        17.7090   16.0950  -24.2660 N.pl3     1 NQI        -0.2890
     43 CAR        17.7100   14.8060  -23.8910 C.2       1 NQI         0.0167
     44 H1          5.4490    5.0853  -23.0094 H         1 NQI         0.0255
     45 H2          6.3153    4.1910  -21.7147 H         1 NQI         0.0255
     46 H3          6.4091    3.6227  -23.4162 H         1 NQI         0.0255
     47 H4          7.4915    6.2674  -22.3434 H         1 NQI         0.0610
     48 H5          7.5853    5.6992  -24.0449 H         1 NQI         0.0610
     49 H6         11.1976    4.3432  -20.8963 H         1 NQI         0.0570
     50 H7         10.9985    6.0201  -20.2840 H         1 NQI         0.0570
     51 H8         11.8202    5.1274  -23.0846 H         1 NQI         0.0864
     52 H9         11.8686    7.4127  -23.5170 H         1 NQI         0.2135
     53 H10        13.9067    4.8014  -23.1017 H         1 NQI         0.1885
     54 H11        15.6432    6.2300  -21.1065 H         1 NQI         0.0827
     55 H12        16.8519    4.3598  -20.8166 H         1 NQI         0.0490
     56 H13        17.0036    4.1135  -22.5894 H         1 NQI         0.0490
     57 H14        14.6344    3.1553  -20.9712 H         1 NQI         0.0674
     58 H15        15.0707    1.2551  -22.5142 H         1 NQI         0.0290
     59 H16        16.5349    2.1955  -23.2419 H         1 NQI         0.0290
     60 H17        17.1670    7.8935  -23.8928 H         1 NQI         0.1883
     61 H18        15.7732    8.1926  -21.2904 H         1 NQI         0.0800
     62 H19        18.2935    7.6579  -21.0912 H         1 NQI         0.0313
     63 H20        17.6259    9.0655  -20.1968 H         1 NQI         0.0313
     64 H21        18.5548   10.0509  -22.7110 H         1 NQI         0.0301
     65 H22        19.8283    8.9594  -22.0681 H         1 NQI         0.0301
     66 H23        20.0963   10.2263  -20.0868 H         1 NQI         0.0689
     67 H24        18.4829   10.9996  -20.2466 H         1 NQI         0.0689
     68 H25        19.3920   12.5825  -21.8078 H         1 NQI         0.2642
     69 H26        23.1643   10.9929  -21.4878 H         1 NQI         0.2615
     70 H27        21.7788   10.0858  -20.8243 H         1 NQI         0.2615
     71 H28        21.2208   13.7090  -22.6472 H         1 NQI         0.2615
     72 H29        22.8526   13.0032  -22.5001 H         1 NQI         0.2615
     73 H30        16.7368   11.0203  -21.1897 H         1 NQI         0.1884
     74 H31        16.2775   13.1455  -21.8988 H         1 NQI         0.0815
     75 H32        12.9322   13.8334  -21.4429 H         1 NQI         0.1815
     76 H33        14.6036   14.1980  -21.1720 H         1 NQI         0.1815
     77 H34        15.3612   12.4658  -24.6754 H         1 NQI         0.0397
     78 H35        17.0744   12.1131  -24.2665 H         1 NQI         0.0397
     79 H36        13.9311   14.3054  -25.5310 H         1 NQI         0.0540
     80 H37        13.0515   16.3974  -26.5452 H         1 NQI         0.0510
     81 H38        14.4141   18.4780  -26.5041 H         1 NQI         0.0530
     82 H39        16.6638   18.4677  -25.4453 H         1 NQI         0.0541
     83 H40        18.4763   16.7619  -24.1003 H         1 NQI         0.2216
     84 H41        18.5242   14.3107  -23.3640 H         1 NQI         0.0795
@<TRIPOS>BOND
     1    1    2 1  
     2    2    3 1  
     3    3    4 1  
     4    4    5 2  
     5    4    6 1  
     6    6    7 1  
     7    7    8 1  
     8    7    9 1  
     9    9   10 2  
    10    9   11 am 
    11   11   12 1  
    12   12   13 1  
    13   12   16 1  
    14   13   14 1  
    15   14   15 2  
    16   16   17 2  
    17   16   18 am 
    18   18   19 1  
    19   19   20 1  
    20   19   27 1  
    21   20   21 1  
    22   21   22 1  
    23   22   23 1  
    24   23   24 ar 
    25   24   25 ar 
    26   24   26 ar 
    27   27   28 2  
    28   27   29 am 
    29   29   30 1  
    30   30   31 1  
    31   30   34 1  
    32   31   32 2  
    33   31   33 am 
    34   34   35 1  
    35   35   36 1  
    36   35   43 2  
    37   36   37 ar 
    38   36   41 ar 
    39   37   38 ar 
    40   38   39 ar 
    41   39   40 ar 
    42   40   41 ar 
    43   41   42 1  
    44   42   43 1  
    45    1   44 1  
    46    1   45 1  
    47    1   46 1  
    48    2   47 1  
    49    2   48 1  
    50    6   49 1  
    51    6   50 1  
    52    7   51 1  
    53    8   52 1  
    54   11   53 1  
    55   12   54 1  
    56   13   55 1  
    57   13   56 1  
    58   14   57 1  
    59   15   58 1  
    60   15   59 1  
    61   18   60 1  
    62   19   61 1  
    63   20   62 1  
    64   20   63 1  
    65   21   64 1  
    66   21   65 1  
    67   22   66 1  
    68   22   67 1  
    69   23   68 1  
    70   25   69 1  
    71   25   70 1  
    72   26   71 1  
    73   26   72 1  
    74   29   73 1  
    75   30   74 1  
    76   33   75 1  
    77   33   76 1  
    78   34   77 1  
    79   34   78 1  
    80   37   79 1  
    81   38   80 1  
    82   39   81 1  
    83   40   82 1  
    84   42   83 1  
    85   43   84 1  
@<TRIPOS>SUBSTRUCTURE
     1 NQI         1

