### 
### Created by X-TOOL on Mon Sep 10 21:12:54 2018
### 

@<TRIPOS>MOLECULE
2nsx_ligand
   24    24     1     0     0
SMALL
GAST_HUCK


@<TRIPOS>ATOM
      1 O4         10.8720  -12.0990   39.6530 O.3       1 IFM        -0.3885
      2 C4         10.8210  -10.8350   40.2930 C.3       1 IFM         0.0958
      3 C3         12.2240  -10.3220   40.6370 C.3       1 IFM         0.1209
      4 O3         12.8950  -11.2290   41.5170 O.3       1 IFM        -0.3839
      5 C2         12.1170   -8.9760   41.3250 C.3       1 IFM        -0.0045
      6 N          11.2170   -8.1220   40.5420 N.4       1 IFM         0.2292
      7 C1          9.9040   -8.5670   40.0790 C.3       1 IFM        -0.0261
      8 C5         10.0890   -9.8890   39.3520 C.3       1 IFM         0.0507
      9 C6          8.7370  -10.4570   38.8760 C.3       1 IFM         0.0543
     10 O6          7.9790  -10.8460   40.0370 O.3       1 IFM        -0.3945
     11 H1         11.2896  -12.7280   40.2296 H         1 IFM         0.2099
     12 H2         10.2492  -10.9265   41.2282 H         1 IFM         0.0626
     13 H3         12.8063  -10.2166   39.7098 H         1 IFM         0.0673
     14 H4         12.9731  -12.0772   41.0963 H         1 IFM         0.2101
     15 H5         13.1116   -8.5100   41.3848 H         1 IFM         0.0840
     16 H6         11.7127   -9.1090   42.3393 H         1 IFM         0.0840
     17 H7         11.7303   -7.8618   39.7144 H         1 IFM         0.2014
     18 H8         11.0504   -7.3030   41.1055 H         1 IFM         0.2014
     19 H9          9.4763   -7.8203   39.3938 H         1 IFM         0.0818
     20 H10         9.2312   -8.7040   40.9384 H         1 IFM         0.0818
     21 H11        10.7168   -9.7220   38.4644 H         1 IFM         0.0401
     22 H12         8.9068  -11.3322   38.2317 H         1 IFM         0.0562
     23 H13         8.1875   -9.6882   38.3129 H         1 IFM         0.0562
     24 H14         8.4597  -11.5075   40.5206 H         1 IFM         0.2094
@<TRIPOS>BOND
     1    1    2 1  
     2    2    3 1  
     3    2    8 1  
     4    3    4 1  
     5    3    5 1  
     6    5    6 1  
     7    6    7 1  
     8    7    8 1  
     9    8    9 1  
    10    9   10 1  
    11    1   11 1  
    12    2   12 1  
    13    3   13 1  
    14    4   14 1  
    15    5   15 1  
    16    5   16 1  
    17    6   17 1  
    18    6   18 1  
    19    7   19 1  
    20    7   20 1  
    21    8   21 1  
    22    9   22 1  
    23    9   23 1  
    24   10   24 1  
@<TRIPOS>SUBSTRUCTURE
     1 IFM         1

