### 
### Created by X-TOOL on Mon Sep 10 21:12:56 2018
### 

@<TRIPOS>MOLECULE
2nt7_ligand
   63    67     1     0     0
SMALL
GAST_HUCK


@<TRIPOS>ATOM
      1 S1         44.8920   13.7100    0.4730 S.3       1 902        -0.0393
      2 C2         44.9350   15.0810    1.4460 C.2       1 902         0.0863
      3 C3         45.7820   14.8400    2.5380 C.2       1 902         0.1025
      4 C4         46.3610   13.5470    2.5380 C.2       1 902         0.0461
      5 C5         45.9340   12.7760    1.4070 C.2       1 902         0.0434
      6 C6         44.1870   16.3180    1.1490 C.2       1 902         0.1403
      7 N7         43.7040   16.5980   -0.0870 N.2       1 902        -0.1621
      8 N8         43.8520   17.3430    1.9750 N.2       1 902        -0.1826
      9 C9         46.2610   11.3970    0.9810 C.ar      1 902        -0.0182
     10 C10        47.5870   10.8860    1.0620 C.ar      1 902        -0.0370
     11 C11        47.8480    9.5490    0.6440 C.ar      1 902         0.0377
     12 C12        46.7770    8.7110    0.1580 C.ar      1 902        -0.0445
     13 C13        45.4430    9.2220    0.0780 C.ar      1 902        -0.0727
     14 C14        45.1910   10.5650    0.5000 C.ar      1 902        -0.0662
     15 BR19       47.5540   12.9350    3.8880 Br        1 902        -0.0667
     16 O20        46.0390   15.8070    3.5740 O.3       1 902        -0.3134
     17 C21        47.3170   16.4660    3.4630 C.3       1 902         0.1198
     18 C22        47.7040   17.2290    4.7460 C.2       1 902         0.0649
     19 O25        46.9340   17.2730    5.7050 O.co2     1 902        -0.5663
     20 O26        48.7950   17.7890    4.7820 O.co2     1 902        -0.5663
     21 N28        49.1470    9.1080    0.7490 N.pl3     1 902        -0.3202
     22 C29        49.5760    7.9110    1.4930 C.3       1 902         0.0379
     23 C30        48.9940    7.8160    2.9230 C.3       1 902        -0.0135
     24 C31        49.3360    6.4290    3.4980 C.3       1 902         0.0314
     25 N32        50.7820    6.0670    3.3900 N.am      1 902        -0.2365
     26 C33        51.5820    6.5500    2.2190 C.3       1 902         0.0314
     27 C34        51.1060    7.8900    1.6070 C.3       1 902        -0.0135
     28 S44        51.4680    5.1050    4.5450 S.o2      1 902         0.0512
     29 O45        50.6800    5.2250    5.7320 O.2       1 902        -0.1532
     30 O46        52.8620    5.4920    4.6340 O.2       1 902        -0.1532
     31 C47        51.4210    3.3930    4.0570 C.3       1 902         0.1181
     32 C48        51.9420    2.4850    5.1490 C.ar      1 902        -0.0204
     33 C51        51.0210    1.9750    6.1270 C.ar      1 902        -0.0587
     34 C52        51.4940    1.1140    7.1660 C.ar      1 902        -0.0685
     35 C53        52.8890    0.7720    7.2140 C.ar      1 902        -0.0687
     36 C54        53.8190    1.2770    6.2420 C.ar      1 902        -0.0685
     37 C55        53.3410    2.1400    5.2010 C.ar      1 902        -0.0587
     38 N61        43.1630   18.2600    1.2490 N.2       1 902        -0.0559
     39 N62        43.0700   17.7980   -0.0310 N.pl3     1 902        -0.1121
     40 H1         48.3909   11.5082    1.4382 H         1 902         0.0510
     41 H2         46.9844    7.6917   -0.1471 H         1 902         0.0517
     42 H3         44.6368    8.6015   -0.2962 H         1 902         0.0584
     43 H4         44.1825   10.9602    0.4569 H         1 902         0.0515
     44 H5         47.2737   17.1805    2.6278 H         1 902         0.0781
     45 H6         48.0875   15.7083    3.2578 H         1 902         0.0781
     46 H7         49.8756    9.6569    0.2707 H         1 902         0.1755
     47 H8         49.2457    7.0270    0.9279 H         1 902         0.0548
     48 H9         47.9021    7.9445    2.8886 H         1 902         0.0303
     49 H10        49.4357    8.5995    3.5563 H         1 902         0.0303
     50 H11        48.7488    5.6745    2.9541 H         1 902         0.0479
     51 H12        49.0545    6.4161    4.5613 H         1 902         0.0479
     52 H13        51.5353    5.7811    1.4338 H         1 902         0.0479
     53 H14        52.6243    6.6763    2.5470 H         1 902         0.0479
     54 H15        51.4331    8.7194    2.2513 H         1 902         0.0303
     55 H16        51.5459    8.0079    0.6057 H         1 902         0.0303
     56 H17        52.0412    3.2615    3.1581 H         1 902         0.0682
     57 H18        50.3812    3.1158    3.8289 H         1 902         0.0682
     58 H19        49.9716    2.2420    6.0773 H         1 902         0.0557
     59 H20        50.8081    0.7236    7.9091 H         1 902         0.0599
     60 H21        53.2476    0.1185    8.0010 H         1 902         0.0559
     61 H22        54.8681    1.0092    6.2948 H         1 902         0.0599
     62 H23        54.0271    2.5304    4.4581 H         1 902         0.0557
     63 H24        42.6023   18.2743   -0.8154 H         1 902         0.2906
@<TRIPOS>BOND
     1    1    2 1  
     2    1    5 1  
     3    2    3 2  
     4    2    6 1  
     5    3    4 1  
     6    3   16 1  
     7    4    5 2  
     8    4   15 1  
     9    5    9 1  
    10    6    7 2  
    11    6    8 1  
    12    7   39 1  
    13    8   38 2  
    14    9   10 ar 
    15    9   14 ar 
    16   10   11 ar 
    17   11   12 ar 
    18   11   21 1  
    19   12   13 ar 
    20   13   14 ar 
    21   16   17 1  
    22   17   18 1  
    23   18   19 ar 
    24   18   20 ar 
    25   21   22 1  
    26   22   23 1  
    27   22   27 1  
    28   23   24 1  
    29   24   25 1  
    30   25   26 1  
    31   25   28 am 
    32   26   27 1  
    33   28   29 2  
    34   28   30 2  
    35   28   31 1  
    36   31   32 1  
    37   32   33 ar 
    38   32   37 ar 
    39   33   34 ar 
    40   34   35 ar 
    41   35   36 ar 
    42   36   37 ar 
    43   38   39 1  
    44   10   40 1  
    45   12   41 1  
    46   13   42 1  
    47   14   43 1  
    48   17   44 1  
    49   17   45 1  
    50   21   46 1  
    51   22   47 1  
    52   23   48 1  
    53   23   49 1  
    54   24   50 1  
    55   24   51 1  
    56   26   52 1  
    57   26   53 1  
    58   27   54 1  
    59   27   55 1  
    60   31   56 1  
    61   31   57 1  
    62   33   58 1  
    63   34   59 1  
    64   35   60 1  
    65   36   61 1  
    66   37   62 1  
    67   39   63 1  
@<TRIPOS>SUBSTRUCTURE
     1 902         1

