### 
### Created by X-TOOL on Mon Sep 10 21:12:56 2018
### 

@<TRIPOS>MOLECULE
2nta_ligand
   29    31     1     0     0
SMALL
GAST_HUCK


@<TRIPOS>ATOM
      1 C1         29.3880  -32.5530    1.0090 C.ar      1 521        -0.0637
      2 C2         30.6440  -33.1950    0.8630 C.ar      1 521        -0.0633
      3 C3         31.6890  -32.5660    0.1400 C.ar      1 521        -0.0558
      4 C4         31.5080  -31.2850   -0.4540 C.ar      1 521        -0.0117
      5 C5         30.2240  -30.6420   -0.2950 C.ar      1 521        -0.0558
      6 C6         29.1760  -31.2740    0.4320 C.ar      1 521        -0.0633
      7 C7         32.6380  -30.6330   -1.1980 C.2       1 521         0.0426
      8 N1         34.4570  -28.5230   -3.7480 N.am      1 521        -0.1546
      9 N2         35.2790  -27.4970   -5.8570 N.am      1 521        -0.1355
     10 C9         34.0330  -29.3960   -2.6930 C.2       1 521         0.0647
     11 C8         32.6840  -29.8010   -2.3520 C.2       1 521         0.0586
     12 C10        34.9290  -29.9600   -1.7990 C.2       1 521        -0.0052
     13 S1         34.2240  -30.9190   -0.5970 S.3       1 521        -0.0659
     14 C11        34.4820  -27.0380   -3.6310 C.3       1 521         0.1418
     15 C12        34.9910  -26.4730   -4.9340 C.2       1 521         0.2218
     16 O1         35.1320  -25.2890   -5.1600 O.2       1 521        -0.3930
     17 S2         34.9860  -29.0670   -5.2940 S.o2      1 521         0.1604
     18 O2         36.2560  -29.7620   -5.1660 O.2       1 521        -0.1256
     19 O3         33.8730  -29.6300   -6.0370 O.2       1 521        -0.1256
     20 CL1        31.3030  -29.3360   -3.2630 Cl        1 521        -0.0907
     21 H1         28.5911  -33.0385    1.5605 H         1 521         0.0601
     22 H2         30.8059  -34.1710    1.3061 H         1 521         0.0612
     23 H3         32.6433  -33.0698    0.0377 H         1 521         0.0607
     24 H4         30.0565  -29.6656   -0.7351 H         1 521         0.0607
     25 H5         28.2180  -30.7793    0.5446 H         1 521         0.0612
     26 H6         35.6298  -27.3112   -6.7748 H         1 521         0.2164
     27 H7         36.0039  -29.7984   -1.8651 H         1 521         0.0425
     28 H8         35.1499  -26.7400   -2.8094 H         1 521         0.0785
     29 H9         33.4672  -26.6626   -3.4331 H         1 521         0.0785
@<TRIPOS>BOND
     1    2    1 ar 
     2    6    1 ar 
     3    3    2 ar 
     4    4    3 ar 
     5    4    5 ar 
     6    7    4 1  
     7    5    6 ar 
     8   11    7 2  
     9    7   13 1  
    10   10    8 1  
    11    8   14 1  
    12    8   17 am 
    13    9   15 am 
    14   17    9 am 
    15   10   11 1  
    16   10   12 2  
    17   11   20 1  
    18   12   13 1  
    19   14   15 1  
    20   15   16 2  
    21   17   18 2  
    22   17   19 2  
    23    1   21 1  
    24    2   22 1  
    25    3   23 1  
    26    5   24 1  
    27    6   25 1  
    28    9   26 1  
    29   12   27 1  
    30   14   28 1  
    31   14   29 1  
@<TRIPOS>SUBSTRUCTURE
     1 521         1

