### 
### Created by X-TOOL on Mon Sep 10 21:12:56 2018
### 

@<TRIPOS>MOLECULE
2ntf_ligand
   49    49     1     0     0
SMALL
GAST_HUCK


@<TRIPOS>ATOM
      1 C21       -34.8950   17.6830    2.6130 C.3       1 OHM        -0.0653
      2 C20       -33.3840   17.4540    2.9500 C.3       1 OHM        -0.0559
      3 C19       -32.8630   16.0950    2.3420 C.3       1 OHM        -0.0533
      4 C18       -31.3020   15.8110    2.5610 C.3       1 OHM        -0.0531
      5 C17       -30.9410   14.3350    2.0730 C.3       1 OHM        -0.0531
      6 C16       -29.4530   14.0980    1.7010 C.3       1 OHM        -0.0529
      7 C15       -29.1890   12.7500    0.9920 C.3       1 OHM        -0.0509
      8 C14       -28.8660   11.6030    1.9810 C.3       1 OHM        -0.0370
      9 C13       -27.9070   10.4950    1.4700 C.3       1 OHM         0.0234
     10 C11       -28.6590    9.2220    0.9930 C.2       1 OHM         0.1240
     11 O12       -29.0070    8.3400    1.7740 O.2       1 OHM        -0.3882
     12 C10       -28.9650    9.1260   -0.5040 C.3       1 OHM         0.1103
     13 C8        -29.3540    7.7520   -0.9790 C.2       1 OHM         0.1965
     14 O9        -28.5240    6.9140   -1.3120 O.2       1 OHM        -0.3934
     15 N7        -30.6430    7.5490   -1.0360 N.am      1 OHM        -0.2636
     16 C1        -31.1610    6.2820   -1.5390 C.3       1 OHM         0.1327
     17 C5        -31.3490    5.2560   -0.4530 C.3       1 OHM         0.0078
     18 C4        -32.6060    4.5190   -0.9460 C.3       1 OHM         0.0352
     19 N3        -33.3910    5.5510   -1.6450 N.am      1 OHM        -0.2848
     20 C2        -32.5880    6.5500   -1.9820 C.2       1 OHM         0.2017
     21 O6        -32.9530    7.5760   -2.5620 O.2       1 OHM        -0.3945
     22 H1        -35.2276   18.6363    3.0496 H         1 OHM         0.0230
     23 H2        -35.4928   16.8598    3.0312 H         1 OHM         0.0230
     24 H3        -35.0266   17.7140    1.5214 H         1 OHM         0.0230
     25 H4        -33.2600   17.4290    4.0427 H         1 OHM         0.0263
     26 H5        -32.7938   18.2832    2.5328 H         1 OHM         0.0263
     27 H6        -33.0591   16.1077    1.2597 H         1 OHM         0.0265
     28 H7        -33.4279   15.2739    2.8074 H         1 OHM         0.0265
     29 H8        -31.0602   15.9105    3.6295 H         1 OHM         0.0265
     30 H9        -30.7147   16.5395    1.9827 H         1 OHM         0.0265
     31 H10       -31.5514   14.1130    1.1853 H         1 OHM         0.0265
     32 H11       -31.2030   13.6373    2.8820 H         1 OHM         0.0265
     33 H12       -28.8569   14.1253    2.6251 H         1 OHM         0.0265
     34 H13       -29.1302   14.9095    1.0323 H         1 OHM         0.0265
     35 H14       -28.3367   12.8741    0.3078 H         1 OHM         0.0267
     36 H15       -30.0847   12.4749    0.4158 H         1 OHM         0.0267
     37 H16       -29.8161   11.1215    2.2556 H         1 OHM         0.0290
     38 H17       -28.4104   12.0521    2.8758 H         1 OHM         0.0290
     39 H18       -27.2257   10.2154    2.2871 H         1 OHM         0.0495
     40 H19       -27.3242   10.8955    0.6274 H         1 OHM         0.0495
     41 H20       -28.0677    9.4388   -1.0580 H         1 OHM         0.0729
     42 H21       -29.7934    9.8137   -0.7293 H         1 OHM         0.0729
     43 H22       -31.2751    8.2629   -0.7345 H         1 OHM         0.1884
     44 H23       -30.5267    5.8974   -2.3512 H         1 OHM         0.0801
     45 H24       -31.5187    5.7312    0.5244 H         1 OHM         0.0332
     46 H25       -30.4854    4.5780   -0.3862 H         1 OHM         0.0332
     47 H26       -33.1730    4.1079   -0.0978 H         1 OHM         0.0522
     48 H27       -32.3342    3.7052   -1.6343 H         1 OHM         0.0522
     49 H28       -34.3718    5.5052   -1.8347 H         1 OHM         0.1851
@<TRIPOS>BOND
     1    1    2 1  
     2    2    3 1  
     3    3    4 1  
     4    4    5 1  
     5    5    6 1  
     6    6    7 1  
     7    7    8 1  
     8    8    9 1  
     9    9   10 1  
    10   10   11 2  
    11   10   12 1  
    12   12   13 1  
    13   13   14 2  
    14   13   15 am 
    15   15   16 1  
    16   16   17 1  
    17   16   20 1  
    18   17   18 1  
    19   18   19 1  
    20   19   20 am 
    21   20   21 2  
    22    1   22 1  
    23    1   23 1  
    24    1   24 1  
    25    2   25 1  
    26    2   26 1  
    27    3   27 1  
    28    3   28 1  
    29    4   29 1  
    30    4   30 1  
    31    5   31 1  
    32    5   32 1  
    33    6   33 1  
    34    6   34 1  
    35    7   35 1  
    36    7   36 1  
    37    8   37 1  
    38    8   38 1  
    39    9   39 1  
    40    9   40 1  
    41   12   41 1  
    42   12   42 1  
    43   15   43 1  
    44   16   44 1  
    45   17   45 1  
    46   17   46 1  
    47   18   47 1  
    48   18   48 1  
    49   19   49 1  
@<TRIPOS>SUBSTRUCTURE
     1 OHM         1

