### 
### Created by X-TOOL on Mon Sep 10 21:12:56 2018
### 

@<TRIPOS>MOLECULE
2nv7_ligand
   33    35     1     0     0
SMALL
GAST_HUCK


@<TRIPOS>ATOM
      1 C1         31.0300   39.4930   36.7750 C.ar      1 555        -0.0619
      2 C2         29.8190   39.6440   37.4490 C.ar      1 555        -0.0619
      3 C3         29.3950   38.6500   38.3290 C.ar      1 555        -0.0546
      4 C4         30.1720   37.4270   38.5940 C.ar      1 555        -0.0129
      5 C5         31.4610   37.2830   37.8730 C.ar      1 555        -0.0119
      6 C6         31.8240   38.3530   36.9790 C.ar      1 555        -0.0546
      7 C7         32.2760   36.0860   38.1070 C.ar      1 555        -0.0061
      8 C8         31.8290   35.0790   39.0110 C.ar      1 555        -0.0567
      9 C9         30.5950   35.2080   39.6850 C.ar      1 555        -0.0577
     10 C10        29.7340   36.3480   39.5150 C.ar      1 555        -0.0181
     11 C11        28.4380   36.3050   40.3220 C.ar      1 555        -0.0278
     12 C12        28.4910   36.1420   41.7510 C.ar      1 555        -0.0615
     13 C13        27.3050   36.0800   42.5170 C.ar      1 555        -0.0312
     14 C14        26.0450   36.1800   41.8780 C.ar      1 555         0.0898
     15 C15        25.9460   36.3420   40.4780 C.ar      1 555        -0.0312
     16 C16        27.1200   36.3940   39.7030 C.ar      1 555        -0.0615
     17 O1         24.8930   36.1110   42.5910 O.3       1 555        -0.3316
     18 C17        33.5920   35.8110   37.4300 C.2       1 555         0.0445
     19 N1         34.4010   36.7320   36.9950 N.2       1 555        -0.1530
     20 O2         35.5230   36.1340   36.4080 O.3       1 555        -0.2480
     21 H1         31.3616   40.2625   36.0873 H         1 555         0.0613
     22 H2         29.2118   40.5278   37.2898 H         1 555         0.0613
     23 H3         28.4495   38.7830   38.8423 H         1 555         0.0620
     24 H4         32.7586   38.2738   36.4356 H         1 555         0.0620
     25 H5         32.4440   34.2031   39.1833 H         1 555         0.0601
     26 H6         30.2840   34.4166   40.3573 H         1 555         0.0599
     27 H7         29.4525   36.0659   42.2458 H         1 555         0.0600
     28 H8         27.3596   35.9560   43.5925 H         1 555         0.0549
     29 H9         24.9744   36.4255   40.0047 H         1 555         0.0549
     30 H10        27.0433   36.5021   38.6271 H         1 555         0.0600
     31 H11        25.0981   36.0028   43.5123 H         1 555         0.2492
     32 H12        33.8865   34.7713   37.2954 H         1 555         0.0776
     33 H13        36.1114   36.8095   36.0916 H         1 555         0.2846
@<TRIPOS>BOND
     1    1    2 ar 
     2    1    6 ar 
     3    2    3 ar 
     4    3    4 ar 
     5    4    5 ar 
     6    4   10 ar 
     7    5    6 ar 
     8    5    7 ar 
     9    7    8 ar 
    10    7   18 1  
    11    8    9 ar 
    12    9   10 ar 
    13   10   11 1  
    14   11   12 ar 
    15   11   16 ar 
    16   12   13 ar 
    17   13   14 ar 
    18   14   15 ar 
    19   14   17 1  
    20   15   16 ar 
    21   18   19 2  
    22   19   20 1  
    23    1   21 1  
    24    2   22 1  
    25    3   23 1  
    26    6   24 1  
    27    8   25 1  
    28    9   26 1  
    29   12   27 1  
    30   13   28 1  
    31   15   29 1  
    32   16   30 1  
    33   17   31 1  
    34   18   32 1  
    35   20   33 1  
@<TRIPOS>SUBSTRUCTURE
     1 555         1

