### 
### Created by X-TOOL on Mon Sep 10 21:12:55 2018
### 

@<TRIPOS>MOLECULE
2nw4_ligand
   33    35     1     0     0
SMALL
GAST_HUCK


@<TRIPOS>ATOM
      1 CL1        23.5170    5.2630    4.3990 Cl        1 8NH        -0.0705
      2 C2         25.2700    4.7920    4.3180 C.ar      1 8NH         0.0648
      3 C3         25.6300    3.4270    4.4080 C.ar      1 8NH         0.0068
      4 C4         26.9740    3.0660    4.2280 C.ar      1 8NH         0.1098
      5 C5         27.9910    4.0090    4.0300 C.ar      1 8NH        -0.0295
      6 C7         27.6510    5.3530    4.0520 C.ar      1 8NH        -0.0449
      7 C9         26.3010    5.7540    4.1350 C.ar      1 8NH         0.0869
      8 C10        26.0640    7.1350    3.8860 C.1       1 8NH         0.0826
      9 N11        25.8750    8.2290    3.5750 N.1       1 8NH        -0.3412
     10 N12        27.3620    1.7870    4.2660 N.am      1 8NH        -0.1124
     11 C13        27.1360    0.8600    3.3060 C.2       1 8NH         0.3236
     12 N14        27.5890   -0.3110    3.7430 N.am      1 8NH        -0.2246
     13 C15        28.3210   -0.1870    4.9710 C.3       1 8NH         0.1713
     14 C17        29.7020   -0.4300    4.4160 C.3       1 8NH         0.0980
     15 C19        29.5120   -1.5100    3.3320 C.3       1 8NH        -0.0019
     16 C22        28.0410   -1.3920    2.9240 C.3       1 8NH         0.0408
     17 O25        30.0600    0.8200    3.8300 O.3       1 8NH        -0.3870
     18 C27        28.2090    1.3320    5.1920 C.2       1 8NH         0.2614
     19 O28        28.8140    1.9890    6.0400 O.2       1 8NH        -0.3725
     20 O29        26.6280    1.0840    2.2060 O.2       1 8NH        -0.3816
     21 C30        24.6180    2.3820    4.7120 C.3       1 8NH        -0.0314
     22 H1         29.0156    3.6964    3.8641 H         1 8NH         0.0529
     23 H2         28.4312    6.1040    4.0049 H         1 8NH         0.0629
     24 H3         28.0154   -0.8210    5.8163 H         1 8NH         0.0837
     25 H4         30.4257   -0.7461    5.1818 H         1 8NH         0.0643
     26 H5         29.7233   -2.5100    3.7387 H         1 8NH         0.0312
     27 H6         30.1703   -1.3173    2.4720 H         1 8NH         0.0312
     28 H7         27.9411   -1.1520    1.8552 H         1 8NH         0.0523
     29 H8         27.4899   -2.3180    3.1450 H         1 8NH         0.0523
     30 H9         30.1717    1.4690    4.5147 H         1 8NH         0.2101
     31 H10        23.6283    2.8501    4.8187 H         1 8NH         0.0368
     32 H11        24.8862    1.8737    5.6499 H         1 8NH         0.0368
     33 H12        24.5904    1.6488    3.8924 H         1 8NH         0.0368
@<TRIPOS>BOND
     1    1    2 1  
     2    2    3 ar 
     3    2    7 ar 
     4    3    4 ar 
     5    3   21 1  
     6    4    5 ar 
     7    4   10 1  
     8    5    6 ar 
     9    6    7 ar 
    10    7    8 1  
    11    8    9 3  
    12   10   11 am 
    13   10   18 am 
    14   11   12 am 
    15   11   20 2  
    16   12   13 1  
    17   12   16 1  
    18   13   14 1  
    19   13   18 1  
    20   14   15 1  
    21   14   17 1  
    22   15   16 1  
    23   18   19 2  
    24    5   22 1  
    25    6   23 1  
    26   13   24 1  
    27   14   25 1  
    28   15   26 1  
    29   15   27 1  
    30   16   28 1  
    31   16   29 1  
    32   17   30 1  
    33   21   31 1  
    34   21   32 1  
    35   21   33 1  
@<TRIPOS>SUBSTRUCTURE
     1 8NH         1

