### 
### Created by X-TOOL on Mon Sep 10 21:12:56 2018
### 

@<TRIPOS>MOLECULE
2nwl_ligand
   15    14     1     0     0
SMALL
GAST_HUCK


@<TRIPOS>ATOM
      1 N           9.8620    4.0100    8.2870 N.4       1 ASP         0.2339
      2 CA         10.7410    3.1250    9.0970 C.3       1 ASP         0.0398
      3 C          11.3430    3.8760   10.2730 C.2       1 ASP         0.0862
      4 O          11.4300    3.3640   11.3900 O.co2     1 ASP        -0.5642
      5 CB         11.8550    2.5640    8.2230 C.3       1 ASP         0.0552
      6 CG         11.3780    1.4570    7.3270 C.2       1 ASP         0.0419
      7 OD1        10.3300    1.6160    6.6620 O.co2     1 ASP        -0.5687
      8 OD2        12.0620    0.4180    7.2960 O.co2     1 ASP        -0.5687
      9 OXT        11.7580    5.0200   10.1170 O.co2     1 ASP        -0.5642
     10 H1          9.4774    3.4869    7.5159 H         1 ASP         0.2011
     11 H2         10.4005    4.7847    7.9321 H         1 ASP         0.2011
     12 H3          9.1123    4.3581    8.8639 H         1 ASP         0.2011
     13 H4         10.1377    2.2908    9.4845 H         1 ASP         0.1043
     14 H5         12.6515    2.1734    8.8734 H         1 ASP         0.0505
     15 H6         12.2566    3.3756    7.5984 H         1 ASP         0.0505
@<TRIPOS>BOND
     1    1    2 1  
     2    2    3 1  
     3    2    5 1  
     4    3    4 ar 
     5    3    9 ar 
     6    5    6 1  
     7    6    7 ar 
     8    6    8 ar 
     9    1   10 1  
    10    1   11 1  
    11    1   12 1  
    12    2   13 1  
    13    5   14 1  
    14    5   15 1  
@<TRIPOS>SUBSTRUCTURE
     1 ASP         1

