### 
### Created by X-TOOL on Mon Sep 10 21:12:56 2018
### 

@<TRIPOS>MOLECULE
2nww_ligand
   29    29     1     0     0
SMALL
GAST_HUCK


@<TRIPOS>ATOM
      1 C2         13.1380    4.4620    5.0560 C.ar      1 TB1        -0.0581
      2 C5         14.5140    4.5240    4.8510 C.ar      1 TB1        -0.0685
      3 C8         15.3850    4.7700    5.9070 C.ar      1 TB1        -0.0687
      4 C6         14.8730    4.9600    7.1820 C.ar      1 TB1        -0.0685
      5 C3         13.4950    4.9050    7.3920 C.ar      1 TB1        -0.0581
      6 C1         12.6150    4.6500    6.3340 C.ar      1 TB1        -0.0173
      7 C4         11.2200    4.5950    6.5420 C.3       1 TB1         0.0846
      8 O2         10.4670    3.3340    6.5860 O.3       1 TB1        -0.3426
      9 C11        10.9840    2.4540    7.6280 C.3       1 TB1         0.1671
     10 C9         11.1120    1.0270    7.1310 C.2       1 TB1         0.0712
     11 O5         12.3170    0.5650    7.1040 O.co2     1 TB1        -0.5661
     12 O1         10.0060    0.4000    6.7950 O.co2     1 TB1        -0.5661
     13 C7         10.1140    2.4080    8.8820 C.3       1 TB1         0.0670
     14 C10        10.7670    3.2760    9.9500 C.2       1 TB1         0.0889
     15 O4         11.3450    2.6760   10.8830 O.co2     1 TB1        -0.5641
     16 O3         10.6710    4.5170    9.8100 O.co2     1 TB1        -0.5641
     17 N           8.7680    2.9010    8.5760 N.4       1 TB1         0.2358
     18 H1         12.4738    4.2675    4.2217 H         1 TB1         0.0557
     19 H2         14.9122    4.3783    3.8534 H         1 TB1         0.0599
     20 H3         16.4544    4.8129    5.7352 H         1 TB1         0.0559
     21 H4         15.5421    5.1508    8.0133 H         1 TB1         0.0599
     22 H5         13.1000    5.0621    8.3892 H         1 TB1         0.0557
     23 H6         10.7693    5.1891    5.7334 H         1 TB1         0.0726
     24 H7         11.0376    5.0908    7.5068 H         1 TB1         0.0726
     25 H8         11.9807    2.8241    7.9100 H         1 TB1         0.0846
     26 H9         10.0446    1.3716    9.2440 H         1 TB1         0.1070
     27 H10         8.2006    2.8673    9.4084 H         1 TB1         0.2012
     28 H11         8.3525    2.3227    7.8626 H         1 TB1         0.2012
     29 H12         8.8253    3.8519    8.2467 H         1 TB1         0.2012
@<TRIPOS>BOND
     1    1    2 ar 
     2    1    6 ar 
     3    2    3 ar 
     4    3    4 ar 
     5    4    5 ar 
     6    5    6 ar 
     7    6    7 1  
     8    7    8 1  
     9    8    9 1  
    10    9   10 1  
    11    9   13 1  
    12   10   11 ar 
    13   10   12 ar 
    14   13   14 1  
    15   13   17 1  
    16   14   15 ar 
    17   14   16 ar 
    18    1   18 1  
    19    2   19 1  
    20    3   20 1  
    21    4   21 1  
    22    5   22 1  
    23    7   23 1  
    24    7   24 1  
    25    9   25 1  
    26   13   26 1  
    27   17   27 1  
    28   17   28 1  
    29   17   29 1  
@<TRIPOS>SUBSTRUCTURE
     1 TB1         1

