### 
### Created by X-TOOL on Mon Sep 10 21:12:56 2018
### 

@<TRIPOS>MOLECULE
2o0u_ligand
   63    67     1     0     0
SMALL
GAST_HUCK


@<TRIPOS>ATOM
      1 C1         23.1320    5.8960   31.0130 C.3       1 C0M        -0.0195
      2 C2         22.7290    7.2980   31.3720 C.2       1 C0M        -0.0522
      3 O26        26.9170    7.6100   28.7840 O.2       1 C0M        -0.3965
      4 C25        26.2720    6.7640   29.4180 C.2       1 C0M         0.1851
      5 C27        26.9050    5.4460   29.9010 C.3       1 C0M         0.0776
      6 C28        27.9020    4.7870   28.9260 C.3       1 C0M        -0.0149
      7 N29        29.0540    5.6690   28.6640 N.4       1 C0M         0.2369
      8 C34        30.0040    5.6230   29.7790 C.3       1 C0M        -0.0318
      9 C33        31.0200    6.7470   29.5550 C.3       1 C0M        -0.0123
     10 C32        31.7720    6.5450   28.2390 C.3       1 C0M        -0.0434
     11 C31        30.8060    6.2910   27.0860 C.3       1 C0M        -0.0123
     12 C30        29.7560    5.2330   27.4470 C.3       1 C0M        -0.0318
     13 N5         24.9730    7.0110   29.7470 N.am      1 C0M        -0.2645
     14 C6         23.9830    5.9310   29.7560 C.3       1 C0M         0.0397
     15 C4         24.5080    8.4170   29.8190 C.3       1 C0M         0.0625
     16 C3         23.4280    8.4700   30.8530 C.2       1 C0M         0.0189
     17 S9         22.8060    9.9570   31.4690 S.3       1 C0M        -0.0019
     18 C8         21.6010    9.2120   32.4550 C.2       1 C0M         0.1699
     19 C7         21.7170    7.7510   32.3210 C.2       1 C0M         0.0890
     20 C10        21.0360    6.7750   32.9210 C.1       1 C0M         0.0356
     21 N11        20.4350    5.9530   33.4280 N.1       1 C0M        -0.3857
     22 N12        20.7650    9.8310   33.2420 N.am      1 C0M        -0.2023
     23 C13        20.7620   11.1620   33.4910 C.2       1 C0M         0.2448
     24 O14        21.3590   11.9900   32.8530 O.2       1 C0M        -0.3681
     25 C15        19.8590   11.5170   34.6210 C.ar      1 C0M         0.0650
     26 C20        19.8730   10.7560   35.8050 C.ar      1 C0M        -0.0400
     27 C19        18.9850   11.0330   36.8340 C.ar      1 C0M        -0.0539
     28 C18        18.0390   12.0350   36.7230 C.ar      1 C0M        -0.0486
     29 C16        18.8550   12.5920   34.4440 C.ar      1 C0M         0.0002
     30 C21        18.7720   13.3800   33.2940 C.ar      1 C0M        -0.0519
     31 C22        17.8200   14.3740   33.2360 C.ar      1 C0M        -0.0602
     32 C23        16.9190   14.5980   34.3000 C.ar      1 C0M        -0.0601
     33 C24        16.9890   13.8410   35.4610 C.ar      1 C0M        -0.0522
     34 C17        17.9300   12.8170   35.5700 C.ar      1 C0M        -0.0124
     35 H1         22.2327    5.2889   30.8323 H         1 C0M         0.0370
     36 H2         23.7115    5.4564   31.8382 H         1 C0M         0.0370
     37 H3         26.0920    4.7293   30.0888 H         1 C0M         0.0556
     38 H4         27.4374    5.6513   30.8414 H         1 C0M         0.0556
     39 H5         27.3887    4.5758   27.9763 H         1 C0M         0.0840
     40 H6         28.2637    3.8454   29.3647 H         1 C0M         0.0840
     41 H7         28.7243    6.6138   28.5431 H         1 C0M         0.2035
     42 H8         30.5166    4.6499   29.7975 H         1 C0M         0.0814
     43 H9         29.4753    5.7772   30.7312 H         1 C0M         0.0814
     44 H10        31.7414    6.7519   30.3854 H         1 C0M         0.0317
     45 H11        30.4906    7.7107   29.5235 H         1 C0M         0.0317
     46 H12        32.4459    5.6814   28.3395 H         1 C0M         0.0269
     47 H13        32.3622    7.4472   28.0206 H         1 C0M         0.0269
     48 H14        31.3771    5.9427   26.2128 H         1 C0M         0.0317
     49 H15        30.2930    7.2317   26.8372 H         1 C0M         0.0317
     50 H16        29.0368    5.1271   26.6214 H         1 C0M         0.0814
     51 H17        30.2498    4.2671   27.6293 H         1 C0M         0.0814
     52 H18        23.3181    6.0618   28.8895 H         1 C0M         0.0539
     53 H19        24.5143    4.9718   29.6690 H         1 C0M         0.0539
     54 H20        24.1119    8.7340   28.8430 H         1 C0M         0.0635
     55 H21        25.3402    9.0755   30.1084 H         1 C0M         0.0635
     56 H22        20.0691    9.2771   33.6990 H         1 C0M         0.2443
     57 H23        20.5847    9.9456   35.9138 H         1 C0M         0.0686
     58 H24        19.0340   10.4501   37.7466 H         1 C0M         0.0632
     59 H25        17.3646   12.2188   37.5515 H         1 C0M         0.0672
     60 H26        19.4453   13.2123   32.4611 H         1 C0M         0.0622
     61 H27        17.7611   14.9992   32.3524 H         1 C0M         0.0628
     62 H28        16.1638   15.3703   34.2088 H         1 C0M         0.0619
     63 H29        16.3126   14.0454   36.2830 H         1 C0M         0.0633
@<TRIPOS>BOND
     1    1    2 1  
     2   14    1 1  
     3    2   16 2  
     4    2   19 1  
     5    4    3 2  
     6    4    5 1  
     7   13    4 am 
     8    5    6 1  
     9    6    7 1  
    10    7    8 1  
    11    7   12 1  
    12    8    9 1  
    13    9   10 1  
    14   11   10 1  
    15   12   11 1  
    16   13   14 1  
    17   13   15 1  
    18   15   16 1  
    19   16   17 1  
    20   17   18 1  
    21   18   19 2  
    22   18   22 1  
    23   19   20 1  
    24   20   21 3  
    25   22   23 am 
    26   23   24 2  
    27   23   25 1  
    28   25   26 ar 
    29   25   29 ar 
    30   26   27 ar 
    31   27   28 ar 
    32   28   34 ar 
    33   29   30 ar 
    34   29   34 ar 
    35   30   31 ar 
    36   31   32 ar 
    37   32   33 ar 
    38   33   34 ar 
    39    1   35 1  
    40    1   36 1  
    41    5   37 1  
    42    5   38 1  
    43    6   39 1  
    44    6   40 1  
    45    7   41 1  
    46    8   42 1  
    47    8   43 1  
    48    9   44 1  
    49    9   45 1  
    50   10   46 1  
    51   10   47 1  
    52   11   48 1  
    53   11   49 1  
    54   12   50 1  
    55   12   51 1  
    56   14   52 1  
    57   14   53 1  
    58   15   54 1  
    59   15   55 1  
    60   22   56 1  
    61   26   57 1  
    62   27   58 1  
    63   28   59 1  
    64   30   60 1  
    65   31   61 1  
    66   32   62 1  
    67   33   63 1  
@<TRIPOS>SUBSTRUCTURE
     1 C0M         1

