### 
### Created by X-TOOL on Mon Sep 10 21:12:57 2018
### 

@<TRIPOS>MOLECULE
2o22_ligand
   77    80     1     0     0
SMALL
GAST_HUCK


@<TRIPOS>ATOM
      1 C1          3.7440    1.0250    6.5700 C.3       1 LIU        -0.0278
      2 C2          2.5890    0.0610    6.1820 C.3       1 LIU        -0.0313
      3 C3          1.5020    0.8790    5.4260 C.3       1 LIU        -0.0278
      4 C4          1.0790    2.1980    6.1200 C.3       1 LIU         0.0284
      5 N5          2.2600    3.0610    6.4560 N.pl3     1 LIU        -0.3059
      6 C6          3.2940    2.3310    7.2650 C.3       1 LIU         0.0284
      7 C7          3.1330   -1.0500    5.2620 C.3       1 LIU        -0.0597
      8 C8          2.0030   -0.6320    7.4300 C.3       1 LIU        -0.0597
      9 C9          2.4000    4.4910    6.0560 C.ar      1 LIU         0.0457
     10 C10         3.6610    5.0190    5.7530 C.ar      1 LIU        -0.0381
     11 C11         3.8150    6.3490    5.3840 C.ar      1 LIU        -0.0534
     12 C12         2.7110    7.2170    5.3030 C.ar      1 LIU         0.0377
     13 C13         1.4370    6.6890    5.6060 C.ar      1 LIU        -0.0534
     14 C14         1.2870    5.3510    5.9760 C.ar      1 LIU        -0.0381
     15 C15         2.9960    8.6650    4.8870 C.2       1 LIU         0.2151
     16 O16         4.1300    9.0610    4.6440 O.2       1 LIU        -0.3892
     17 N17         2.0250    9.5710    4.7590 N.am      1 LIU        -0.1564
     18 S18         2.3110   11.1500    4.1880 S.o2      1 LIU         0.0857
     19 C19         3.1710   11.1270    2.6470 C.ar      1 LIU         0.1080
     20 C20         2.4530   11.1220    1.4560 C.ar      1 LIU        -0.0029
     21 C21         3.1250   11.0740    0.2220 C.ar      1 LIU         0.2184
     22 C22         4.5530   11.0780    0.2140 C.ar      1 LIU         0.0841
     23 C23         5.2350   11.0800    1.4400 C.ar      1 LIU        -0.0333
     24 C24         4.5530   11.1230    2.6420 C.ar      1 LIU        -0.0409
     25 N25         5.2780   11.0410   -1.0830 N.pl3     1 LIU        -0.3101
     26 C26         6.6930   10.9960   -1.5580 C.3       1 LIU         0.0537
     27 C27         7.1310    9.5420   -1.8770 C.3       1 LIU         0.0321
     28 S28         7.5460    8.5240   -0.4150 S.3       1 LIU        -0.0991
     29 C29         6.0760    7.9790    0.3590 C.ar      1 LIU         0.0154
     30 C30         6.1270    7.6550    1.7180 C.ar      1 LIU        -0.0498
     31 C31         4.9400    7.3800    2.3950 C.ar      1 LIU        -0.0678
     32 C32         3.7200    7.4000    1.7140 C.ar      1 LIU        -0.0687
     33 C33         3.6870    7.6900    0.3440 C.ar      1 LIU        -0.0678
     34 C34         4.8700    7.9570   -0.3450 C.ar      1 LIU        -0.0498
     35 N35         2.2420   11.0150   -1.0150 N.2       1 LIU         0.3063
     36 O36         2.5480   10.3440   -1.9920 O.2       1 LIU         0.1710
     37 O37         1.1930   11.6350   -1.0870 O.2       1 LIU         0.1710
     38 O38         3.1060   11.9500    5.3140 O.2       1 LIU        -0.1471
     39 O39         0.8330   11.7050    4.0170 O.2       1 LIU        -0.1471
     40 C40         6.7040   11.8380   -2.8340 C.3       1 LIU        -0.0388
     41 C41         7.6780   11.6890   -0.6000 C.3       1 LIU        -0.0388
     42 H1          4.2867    1.2955    5.6522 H         1 LIU         0.0290
     43 H2          4.4212    0.4903    7.2523 H         1 LIU         0.0290
     44 H3          0.6086    0.2459    5.3218 H         1 LIU         0.0290
     45 H4          1.8935    1.1279    4.4286 H         1 LIU         0.0290
     46 H5          0.5419    1.9543    7.0485 H         1 LIU         0.0516
     47 H6          0.4121    2.7557    5.4461 H         1 LIU         0.0516
     48 H7          4.1690    2.9841    7.3983 H         1 LIU         0.0516
     49 H8          2.8680    2.0834    8.2485 H         1 LIU         0.0516
     50 H9          3.9010   -1.6268    5.7982 H         1 LIU         0.0235
     51 H10         3.5759   -0.5972    4.3627 H         1 LIU         0.0235
     52 H11         2.3104   -1.7188    4.9687 H         1 LIU         0.0235
     53 H12         1.6017    0.1278    8.1168 H         1 LIU         0.0235
     54 H13         2.7940   -1.2036    7.9374 H         1 LIU         0.0235
     55 H14         1.1955   -1.3141    7.1255 H         1 LIU         0.0235
     56 H15         4.5333    4.3777    5.8075 H         1 LIU         0.0530
     57 H16         4.8051    6.7255    5.1539 H         1 LIU         0.0636
     58 H17         0.5647    7.3302    5.5507 H         1 LIU         0.0636
     59 H18         0.2991    4.9681    6.2052 H         1 LIU         0.0530
     60 H19         1.0917    9.3126    5.0084 H         1 LIU         0.2133
     61 H20         1.3698   11.1553    1.4792 H         1 LIU         0.0677
     62 H21         6.3185   11.0472    1.4450 H         1 LIU         0.0533
     63 H22         5.1004   11.1535    3.5772 H         1 LIU         0.0647
     64 H23         4.6206   11.0485   -1.8759 H         1 LIU         0.1795
     65 H24         8.0187    9.5870   -2.5251 H         1 LIU         0.0427
     66 H25         6.3087    9.0477   -2.4151 H         1 LIU         0.0427
     67 H26         7.0772    7.6181    2.2384 H         1 LIU         0.0565
     68 H27         4.9634    7.1497    3.4540 H         1 LIU         0.0600
     69 H28         2.7989    7.1911    2.2460 H         1 LIU         0.0559
     70 H29         2.7394    7.7070   -0.1822 H         1 LIU         0.0600
     71 H30         4.8536    8.1449   -1.4125 H         1 LIU         0.0565
     72 H31         7.7212   11.8565   -3.2523 H         1 LIU         0.0255
     73 H32         6.3855   12.8643   -2.5989 H         1 LIU         0.0255
     74 H33         6.0133   11.3990   -3.5690 H         1 LIU         0.0255
     75 H34         8.6970   11.6193   -1.0084 H         1 LIU         0.0255
     76 H35         7.6423   11.1958    0.3826 H         1 LIU         0.0255
     77 H36         7.3989   12.7472   -0.4895 H         1 LIU         0.0255
@<TRIPOS>BOND
     1    1    2 1  
     2    1    6 1  
     3    2    3 1  
     4    2    7 1  
     5    2    8 1  
     6    3    4 1  
     7    4    5 1  
     8    5    6 1  
     9    5    9 1  
    10    9   10 ar 
    11    9   14 ar 
    12   10   11 ar 
    13   11   12 ar 
    14   12   13 ar 
    15   12   15 1  
    16   13   14 ar 
    17   15   16 2  
    18   15   17 am 
    19   17   18 am 
    20   18   19 1  
    21   18   38 2  
    22   18   39 2  
    23   19   20 ar 
    24   19   24 ar 
    25   20   21 ar 
    26   21   22 ar 
    27   21   35 1  
    28   22   23 ar 
    29   22   25 1  
    30   23   24 ar 
    31   25   26 1  
    32   26   27 1  
    33   26   40 1  
    34   26   41 1  
    35   27   28 1  
    36   28   29 1  
    37   29   30 ar 
    38   29   34 ar 
    39   30   31 ar 
    40   31   32 ar 
    41   32   33 ar 
    42   33   34 ar 
    43   35   36 2  
    44   35   37 2  
    45    1   42 1  
    46    1   43 1  
    47    3   44 1  
    48    3   45 1  
    49    4   46 1  
    50    4   47 1  
    51    6   48 1  
    52    6   49 1  
    53    7   50 1  
    54    7   51 1  
    55    7   52 1  
    56    8   53 1  
    57    8   54 1  
    58    8   55 1  
    59   10   56 1  
    60   11   57 1  
    61   13   58 1  
    62   14   59 1  
    63   17   60 1  
    64   20   61 1  
    65   23   62 1  
    66   24   63 1  
    67   25   64 1  
    68   27   65 1  
    69   27   66 1  
    70   30   67 1  
    71   31   68 1  
    72   32   69 1  
    73   33   70 1  
    74   34   71 1  
    75   40   72 1  
    76   40   73 1  
    77   40   74 1  
    78   41   75 1  
    79   41   76 1  
    80   41   77 1  
@<TRIPOS>SUBSTRUCTURE
     1 LIU         1

