### 
### Created by X-TOOL on Mon Sep 10 21:12:56 2018
### 

@<TRIPOS>MOLECULE
2o2u_ligand
   34    36     1     0     0
SMALL
GAST_HUCK


@<TRIPOS>ATOM
      1 F19        19.5450   10.4260   35.7940 F         1 738        -0.1773
      2 C16        18.9070   11.4910   35.2970 C.ar      1 738         0.1541
      3 C18        17.8990   12.0620   36.0520 C.ar      1 738        -0.0222
      4 C21        17.1920   13.1530   35.5790 C.ar      1 738        -0.0594
      5 C20        17.5010   13.7030   34.3460 C.ar      1 738        -0.0602
      6 C17        18.5170   13.1420   33.5790 C.ar      1 738        -0.0429
      7 C14        19.2230   12.0280   34.0450 C.ar      1 738         0.0925
      8 C13        20.2900   11.4670   33.1840 C.2       1 738         0.2455
      9 O15        21.0490   12.2260   32.6270 O.2       1 738        -0.3687
     10 N10        20.3780   10.0820   33.0270 N.am      1 738        -0.2024
     11 C5         21.3100    9.3220   32.2600 C.2       1 738         0.1699
     12 C2         21.2720    7.9450   32.0530 C.2       1 738         0.0889
     13 C6         20.2620    7.0910   32.5840 C.1       1 738         0.0355
     14 N11        19.4030    6.4420   33.0200 N.1       1 738        -0.3857
     15 S7         22.6080    9.9140   31.4980 S.3       1 738        -0.0039
     16 C3         23.1570    8.5540   30.8670 C.2       1 738        -0.0035
     17 C8         24.3820    8.4150   30.0050 C.3       1 738        -0.0246
     18 C12        24.3780    7.0570   29.2760 C.3       1 738        -0.0457
     19 C9         24.0030    5.8950   30.2200 C.3       1 738        -0.0474
     20 C4         22.5860    6.0700   30.8260 C.3       1 738        -0.0401
     21 C1         22.3300    7.5060   31.2560 C.2       1 738        -0.0561
     22 H1         17.6600   11.6500   37.0258 H         1 738         0.0616
     23 H2         16.3934   13.5789   36.1755 H         1 738         0.0642
     24 H3         16.9546   14.5651   33.9810 H         1 738         0.0594
     25 H4         18.7631   13.5708   32.6143 H         1 738         0.0658
     26 H5         19.6917    9.5486   33.5214 H         1 738         0.2443
     27 H6         25.2794    8.4836   30.6375 H         1 738         0.0377
     28 H7         24.3949    9.2251   29.2610 H         1 738         0.0377
     29 H8         25.3815    6.8713   28.8656 H         1 738         0.0283
     30 H9         23.6475    7.0970   28.4546 H         1 738         0.0283
     31 H10        24.7362    5.8524   31.0389 H         1 738         0.0281
     32 H11        24.0322    4.9532   29.6524 H         1 738         0.0281
     33 H12        22.4900    5.4131   31.7031 H         1 738         0.0351
     34 H13        21.8381    5.7855   30.0712 H         1 738         0.0351
@<TRIPOS>BOND
     1    1    2 1  
     2    2    3 ar 
     3    2    7 ar 
     4    3    4 ar 
     5    4    5 ar 
     6    5    6 ar 
     7    6    7 ar 
     8    7    8 1  
     9    8    9 2  
    10    8   10 am 
    11   10   11 1  
    12   11   12 2  
    13   11   15 1  
    14   12   13 1  
    15   12   21 1  
    16   13   14 3  
    17   15   16 1  
    18   16   17 1  
    19   16   21 2  
    20   17   18 1  
    21   18   19 1  
    22   19   20 1  
    23   20   21 1  
    24    3   22 1  
    25    4   23 1  
    26    5   24 1  
    27    6   25 1  
    28   10   26 1  
    29   17   27 1  
    30   17   28 1  
    31   18   29 1  
    32   18   30 1  
    33   19   31 1  
    34   19   32 1  
    35   20   33 1  
    36   20   34 1  
@<TRIPOS>SUBSTRUCTURE
     1 738         1

