### 
### Created by X-TOOL on Mon Sep 10 21:12:55 2018
### 

@<TRIPOS>MOLECULE
2o3p_ligand
   32    34     1     0     0
SMALL
GAST_HUCK


@<TRIPOS>ATOM
      1 C1         74.0790   40.4680    1.9270 C.2       1 QUE        -0.0113
      2 C2         73.8950   40.2410    0.5690 C.2       1 QUE         0.0757
      3 C3         74.1820   38.8910    0.0240 C.2       1 QUE         0.0873
      4 C4         74.6610   37.8490    0.9560 C.2       1 QUE         0.1682
      5 C5         74.8150   38.1650    2.3000 C.3       1 QUE         0.1084
      6 C6         74.5230   39.4470    2.7670 C.2       1 QUE         0.1137
      7 C9         74.0320   38.4810   -1.3970 C.2       1 QUE         0.1328
      8 C10        74.3640   37.1060   -1.7770 C.2       1 QUE         0.1607
      9 C11        74.8080   36.2100   -0.8820 C.2       1 QUE         0.1677
     10 C14        75.1560   34.7630   -1.1680 C.ar      1 QUE        -0.0034
     11 C15        75.0990   34.1800   -2.4400 C.ar      1 QUE        -0.0721
     12 C16        75.4180   32.8310   -2.6190 C.ar      1 QUE        -0.0410
     13 C17        75.7890   32.0330   -1.5340 C.ar      1 QUE         0.1164
     14 C18        75.8560   32.6420   -0.2050 C.ar      1 QUE         0.1156
     15 C19        75.5330   33.9840   -0.0550 C.ar      1 QUE        -0.0332
     16 O12        74.9460   36.5950    0.5050 O.3       1 QUE        -0.2247
     17 O13        73.6500   39.2450   -2.2520 O.2       1 QUE        -0.4330
     18 O23        76.2260   31.8700    0.8010 O.3       1 QUE        -0.3371
     19 O24        76.1170   30.7430   -1.6460 O.3       1 QUE        -0.3364
     20 O27        74.2110   36.8100   -3.0700 O.3       1 QUE        -0.3377
     21 O29        74.6930   39.7160    4.0640 O.3       1 QUE        -0.3094
     22 O30        73.4630   41.2300   -0.1870 O.2       1 QUE        -0.4448
     23 H1         73.8742   41.4544    2.3405 H         1 QUE         0.0221
     24 H2         75.8687   37.9718    2.5498 H         1 QUE         0.0848
     25 H3         74.1719   37.4716    2.8618 H         1 QUE         0.0848
     26 H4         74.8049   34.7803   -3.2934 H         1 QUE         0.0494
     27 H5         75.3770   32.3986   -3.6122 H         1 QUE         0.0513
     28 H6         75.5711   34.4378    0.9287 H         1 QUE         0.0494
     29 H7         76.3992   30.9932    0.4788 H         1 QUE         0.2442
     30 H8         76.0320   30.4734   -2.5530 H         1 QUE         0.2449
     31 H9         73.8889   37.5746   -3.5328 H         1 QUE         0.2434
     32 H10        74.4559   40.6204    4.2324 H         1 QUE         0.2632
@<TRIPOS>BOND
     1    1    2 1  
     2    1    6 2  
     3    2    3 1  
     4    2   22 2  
     5    3    4 2  
     6    3    7 1  
     7    4    5 1  
     8    4   16 1  
     9    5    6 1  
    10    6   21 1  
    11    7    8 1  
    12    7   17 2  
    13    8    9 2  
    14    8   20 1  
    15    9   10 1  
    16    9   16 1  
    17   10   11 ar 
    18   10   15 ar 
    19   11   12 ar 
    20   12   13 ar 
    21   13   14 ar 
    22   13   19 1  
    23   14   15 ar 
    24   14   18 1  
    25    1   23 1  
    26    5   24 1  
    27    5   25 1  
    28   11   26 1  
    29   12   27 1  
    30   15   28 1  
    31   18   29 1  
    32   19   30 1  
    33   20   31 1  
    34   21   32 1  
@<TRIPOS>SUBSTRUCTURE
     1 QUE         1

