### 
### Created by X-TOOL on Mon Sep 10 21:12:55 2018
### 

@<TRIPOS>MOLECULE
2o3z_ligand
   36    36     1     0     0
SMALL
GAST_HUCK


@<TRIPOS>ATOM
      1 C1         57.1940   64.1350   -4.6460 C.ar      1 AI7        -0.0191
      2 C2         55.4340   64.4770   -6.8270 C.ar      1 AI7        -0.0670
      3 C3         56.7900   64.1500   -7.0760 C.ar      1 AI7        -0.0587
      4 C4         51.6920   64.1080    1.0020 C.3       1 AI7        -0.0533
      5 C5         59.1280   63.6270   -6.2290 C.2       1 AI7         0.0604
      6 C6         54.1090   64.9360   -1.1200 C.3       1 AI7        -0.0251
      7 C7         54.9660   64.6300   -5.4890 C.ar      1 AI7        -0.0305
      8 C8         54.1390   64.7240   -2.6290 C.3       1 AI7         0.0704
      9 C9         49.6200   64.5760    2.3840 C.3       1 AI7        -0.0653
     10 C10        51.1350   64.3450    2.4100 C.3       1 AI7        -0.0559
     11 C11        55.8340   64.4630   -4.3560 C.ar      1 AI7         0.0945
     12 C12        53.2100   63.8700    1.0200 C.3       1 AI7        -0.0530
     13 C13        53.7690   63.6300   -0.3920 C.3       1 AI7        -0.0506
     14 C14        57.6880   63.9750   -5.9760 C.ar      1 AI7         0.0014
     15 O15        59.6300   63.4640   -7.4640 O.co2     1 AI7        -0.5607
     16 O16        55.4880   64.5870   -3.0250 O.3       1 AI7        -0.3174
     17 O17        59.9220   63.4720   -5.3000 O.co2     1 AI7        -0.5607
     18 H1         57.8819   64.0016   -3.8189 H         1 AI7         0.0574
     19 H2         54.7498   64.6114   -7.6570 H         1 AI7         0.0596
     20 H3         57.1448   64.0331   -8.0936 H         1 AI7         0.0557
     21 H4         51.4776   64.9905    0.3813 H         1 AI7         0.0265
     22 H5         51.1987   63.2258    0.5680 H         1 AI7         0.0265
     23 H6         53.3481   65.6924   -0.8774 H         1 AI7         0.0291
     24 H7         55.0960   65.2884   -0.7859 H         1 AI7         0.0291
     25 H8         53.9245   64.8797   -5.3214 H         1 AI7         0.0563
     26 H9         53.6873   65.5892   -3.1364 H         1 AI7         0.0613
     27 H10        53.5796   63.8133   -2.8890 H         1 AI7         0.0613
     28 H11        49.2568   64.7420    3.4090 H         1 AI7         0.0230
     29 H12        49.1217   63.6932    1.9569 H         1 AI7         0.0230
     30 H13        49.3942   65.4586    1.7676 H         1 AI7         0.0230
     31 H14        51.6239   65.2299    2.8434 H         1 AI7         0.0263
     32 H15        51.3515   63.4645    3.0328 H         1 AI7         0.0263
     33 H16        53.4245   62.9885    1.6420 H         1 AI7         0.0265
     34 H17        53.7034   64.7529    1.4525 H         1 AI7         0.0265
     35 H18        54.6830   63.0233   -0.3109 H         1 AI7         0.0266
     36 H19        53.0173   63.0837   -0.9806 H         1 AI7         0.0266
@<TRIPOS>BOND
     1   11    1 ar 
     2    1   14 ar 
     3    2    3 ar 
     4    7    2 ar 
     5   14    3 ar 
     6    4   10 1  
     7   12    4 1  
     8   14    5 1  
     9    5   15 ar 
    10    5   17 ar 
    11    6    8 1  
    12   13    6 1  
    13   11    7 ar 
    14    8   16 1  
    15   10    9 1  
    16   16   11 1  
    17   12   13 1  
    18    1   18 1  
    19    2   19 1  
    20    3   20 1  
    21    4   21 1  
    22    4   22 1  
    23    6   23 1  
    24    6   24 1  
    25    7   25 1  
    26    8   26 1  
    27    8   27 1  
    28    9   28 1  
    29    9   29 1  
    30    9   30 1  
    31   10   31 1  
    32   10   32 1  
    33   12   33 1  
    34   12   34 1  
    35   13   35 1  
    36   13   36 1  
@<TRIPOS>SUBSTRUCTURE
     1 AI7         1

