### 
### Created by X-TOOL on Mon Sep 10 21:12:55 2018
### 

@<TRIPOS>MOLECULE
2o48_ligand
   18    18     1     0     0
SMALL
GAST_HUCK


@<TRIPOS>ATOM
      1 C1        -15.4010  -47.0530    3.6450 C.ar      1 AC6         0.0935
      2 C2        -16.3860  -46.1510    3.3250 C.ar      1 AC6        -0.0268
      3 C3        -16.0910  -44.7990    3.3040 C.ar      1 AC6        -0.0515
      4 C4        -14.8030  -44.3350    3.6310 C.ar      1 AC6         0.0210
      5 C5        -13.8020  -45.2800    3.9530 C.ar      1 AC6        -0.0515
      6 C6        -14.1020  -46.6570    3.9590 C.ar      1 AC6        -0.0268
      7 O1        -15.6970  -48.3480    3.6690 O.3       1 AC6        -0.3293
      8 O2        -15.3410  -42.0860    3.1170 O.2       1 AC6        -0.3843
      9 C7        -14.4840  -42.8510    3.5470 C.2       1 AC6         0.1217
     10 C8        -13.1010  -42.3510    3.8530 C.3       1 AC6         0.0090
     11 H1        -17.3868  -46.4954    3.0907 H         1 AC6         0.0557
     12 H2        -16.8624  -44.0877    3.0320 H         1 AC6         0.0645
     13 H3        -12.8004  -44.9443    4.1961 H         1 AC6         0.0645
     14 H4        -13.3413  -47.3901    4.2018 H         1 AC6         0.0557
     15 H5        -16.6101  -48.4674    3.4357 H         1 AC6         0.2502
     16 H6        -13.0725  -41.2575    3.7370 H         1 AC6         0.0447
     17 H7        -12.3825  -42.8122    3.1594 H         1 AC6         0.0447
     18 H8        -12.8352  -42.6171    4.8867 H         1 AC6         0.0447
@<TRIPOS>BOND
     1    1    2 ar 
     2    1    6 ar 
     3    1    7 1  
     4    2    3 ar 
     5    3    4 ar 
     6    4    5 ar 
     7    4    9 1  
     8    5    6 ar 
     9    9    8 2  
    10    9   10 1  
    11    2   11 1  
    12    3   12 1  
    13    5   13 1  
    14    6   14 1  
    15    7   15 1  
    16   10   16 1  
    17   10   17 1  
    18   10   18 1  
@<TRIPOS>SUBSTRUCTURE
     1 AC6         1

