### 
### Created by X-TOOL on Mon Sep 10 21:12:56 2018
### 

@<TRIPOS>MOLECULE
2o4j_ligand
   72    74     1     0     0
SMALL
GAST_HUCK


@<TRIPOS>ATOM
      1 O3         66.0780   -2.2520   -7.5030 O.3       1 VD4        -0.3891
      2 C25        66.7390   -1.2690   -6.7360 C.3       1 VD4         0.0609
      3 C26        68.1700   -1.2490   -7.2550 C.3       1 VD4        -0.0363
      4 C27        66.7170   -1.6540   -5.2520 C.3       1 VD4        -0.0363
      5 C24        66.0450    0.0710   -7.0080 C.3       1 VD4        -0.0201
      6 C23        64.5270    0.0530   -6.7210 C.3       1 VD4        -0.0240
      7 C22        63.7350    1.2920   -7.1990 C.3       1 VD4         0.0290
      8 C20        62.2900    1.1450   -6.7360 C.2       1 VD4         0.0095
      9 C21        61.5610   -0.1030   -7.1510 C.3       1 VD4         0.0178
     10 C17        61.6050    2.0550   -5.9730 C.2       1 VD4        -0.0717
     11 C13        62.0810    3.3840   -5.4160 C.3       1 VD4        -0.0767
     12 C18        62.9790    3.1330   -4.1730 C.3       1 VD4        -0.1138
     13 C12        62.7520    4.3780   -6.3790 C.3       1 VD4        -0.0998
     14 C11        62.9010    5.7980   -5.7400 C.3       1 VD4        -0.0577
     15 C9         61.5560    6.3180   -5.1950 C.3       1 VD4        -0.0263
     16 C16        60.1730    1.7580   -5.5270 C.3       1 VD4        -0.0311
     17 C15        59.8290    2.8210   -4.4700 C.3       1 VD4        -0.0480
     18 C14        60.6800    3.9330   -5.0930 C.3       1 VD4        -0.0607
     19 C8         60.9060    5.2250   -4.3410 C.2       1 VD4        -0.0887
     20 C7         60.6340    5.3700   -3.0160 C.2       1 VD4        -0.1104
     21 C6         60.8570    6.6340   -2.2500 C.2       1 VD4        -0.1087
     22 C5         61.1850    6.7150   -0.9310 C.2       1 VD4        -0.0657
     23 C10        61.4140    5.4710   -0.0630 C.3       1 VD4         0.0150
     24 C1         60.7390    5.6080    1.3160 C.3       1 VD4         0.1023
     25 O1         61.0800    4.4990    2.1930 O.3       1 VD4        -0.3742
     26 C4         61.3620    8.0740   -0.2730 C.3       1 VD4         0.0150
     27 C3         60.7520    8.1160    1.1380 C.3       1 VD4         0.1023
     28 O2         59.3120    8.1580    1.0580 O.3       1 VD4        -0.3742
     29 C2         61.1430    6.9020    1.9360 C.2       1 VD4        -0.0127
     30 C28        61.7690    7.0410    3.0930 C.2       1 VD4        -0.1238
     31 H1         66.1126   -2.0117   -8.4214 H         1 VD4         0.2101
     32 H2         68.7513   -0.4989   -6.6987 H         1 VD4         0.0257
     33 H3         68.1686   -0.9923   -8.3246 H         1 VD4         0.0257
     34 H4         68.6242   -2.2412   -7.1166 H         1 VD4         0.0257
     35 H5         67.2346   -0.8810   -4.6650 H         1 VD4         0.0257
     36 H6         67.2259   -2.6197   -5.1161 H         1 VD4         0.0257
     37 H7         65.6748   -1.7374   -4.9102 H         1 VD4         0.0257
     38 H8         66.1954    0.3317   -8.0660 H         1 VD4         0.0296
     39 H9         66.5097    0.8384   -6.3716 H         1 VD4         0.0296
     40 H10        64.3906   -0.0351   -5.6331 H         1 VD4         0.0319
     41 H11        64.1006   -0.8315   -7.2168 H         1 VD4         0.0319
     42 H12        63.7692    1.3545   -8.2967 H         1 VD4         0.0681
     43 H13        64.1733    2.2033   -6.7660 H         1 VD4         0.0681
     44 H14        60.5363   -0.0789   -6.7518 H         1 VD4         0.0646
     45 H15        62.0879   -0.9840   -6.7558 H         1 VD4         0.0646
     46 H16        61.5255   -0.1590   -8.2490 H         1 VD4         0.0646
     47 H17        63.9549    2.7436   -4.4984 H         1 VD4         0.0036
     48 H18        62.4936    2.3999   -3.5120 H         1 VD4         0.0036
     49 H19        63.1242    4.0778   -3.6287 H         1 VD4         0.0036
     50 H20        62.1398    4.4600   -7.2892 H         1 VD4         0.0074
     51 H21        63.7509    3.9996   -6.6418 H         1 VD4         0.0074
     52 H22        63.2705    6.4969   -6.5049 H         1 VD4         0.0275
     53 H23        63.6243    5.7434   -4.9130 H         1 VD4         0.0275
     54 H24        60.8923    6.5734   -6.0342 H         1 VD4         0.0436
     55 H25        61.7291    7.2127   -4.5790 H         1 VD4         0.0436
     56 H26        60.1099    0.7504   -5.0903 H         1 VD4         0.0395
     57 H27        59.4837    1.8313   -6.3811 H         1 VD4         0.0395
     58 H28        60.1643    2.5424   -3.4601 H         1 VD4         0.0297
     59 H29        58.7572    3.0671   -4.4457 H         1 VD4         0.0297
     60 H30        60.1804    4.2024   -6.0352 H         1 VD4         0.0280
     61 H31        60.2289    4.5126   -2.4806 H         1 VD4         0.0218
     62 H32        60.7477    7.5711   -2.7939 H         1 VD4         0.0219
     63 H33        62.4954    5.3309    0.0815 H         1 VD4         0.0490
     64 H34        60.9963    4.5940   -0.5791 H         1 VD4         0.0490
     65 H35        59.6485    5.6107    1.1716 H         1 VD4         0.0819
     66 H36        62.0210    4.4755    2.3207 H         1 VD4         0.2139
     67 H37        60.8702    8.8363   -0.8951 H         1 VD4         0.0490
     68 H38        62.4369    8.2965   -0.2017 H         1 VD4         0.0490
     69 H39        61.1145    9.0179    1.6529 H         1 VD4         0.0819
     70 H40        58.9479    8.1837    1.9350 H         1 VD4         0.2139
     71 H41        62.0510    6.1607    3.6687 H         1 VD4         0.0077
     72 H42        62.0024    8.0357    3.4698 H         1 VD4         0.0077
@<TRIPOS>BOND
     1    1    2 1  
     2    2    3 1  
     3    2    4 1  
     4    2    5 1  
     5    5    6 1  
     6    6    7 1  
     7    7    8 1  
     8    8    9 1  
     9    8   10 2  
    10   10   11 1  
    11   10   16 1  
    12   11   12 1  
    13   11   13 1  
    14   11   18 1  
    15   13   14 1  
    16   14   15 1  
    17   15   19 1  
    18   16   17 1  
    19   17   18 1  
    20   18   19 1  
    21   19   20 2  
    22   20   21 1  
    23   21   22 2  
    24   22   23 1  
    25   22   26 1  
    26   23   24 1  
    27   24   25 1  
    28   24   29 1  
    29   26   27 1  
    30   27   28 1  
    31   27   29 1  
    32   29   30 2  
    33    1   31 1  
    34    3   32 1  
    35    3   33 1  
    36    3   34 1  
    37    4   35 1  
    38    4   36 1  
    39    4   37 1  
    40    5   38 1  
    41    5   39 1  
    42    6   40 1  
    43    6   41 1  
    44    7   42 1  
    45    7   43 1  
    46    9   44 1  
    47    9   45 1  
    48    9   46 1  
    49   12   47 1  
    50   12   48 1  
    51   12   49 1  
    52   13   50 1  
    53   13   51 1  
    54   14   52 1  
    55   14   53 1  
    56   15   54 1  
    57   15   55 1  
    58   16   56 1  
    59   16   57 1  
    60   17   58 1  
    61   17   59 1  
    62   18   60 1  
    63   20   61 1  
    64   21   62 1  
    65   23   63 1  
    66   23   64 1  
    67   24   65 1  
    68   25   66 1  
    69   26   67 1  
    70   26   68 1  
    71   27   69 1  
    72   28   70 1  
    73   30   71 1  
    74   30   72 1  
@<TRIPOS>SUBSTRUCTURE
     1 VD4         1

