### 
### Created by X-TOOL on Mon Sep 10 21:12:54 2018
### 

@<TRIPOS>MOLECULE
2o4l_ligand
   75    78     1     0     0
SMALL
GAST_HUCK


@<TRIPOS>ATOM
      1 O1        -16.0880   22.0460   17.0640 O.3       1 TPV        -0.2775
      2 C2        -17.3050   21.3080   17.2500 C.2       1 TPV         0.2212
      3 C3        -17.2570   19.9700   17.8440 C.2       1 TPV         0.0518
      4 C4        -16.0410   19.4140   18.0920 C.2       1 TPV         0.0930
      5 C5        -14.7450   20.1290   17.7510 C.3       1 TPV         0.0484
      6 C6        -14.8580   21.6540   17.6830 C.3       1 TPV         0.1121
      7 O7        -18.3210   21.8640   16.8750 O.2       1 TPV        -0.3901
      8 O8        -15.9190   18.1980   18.6100 O.3       1 TPV        -0.3232
      9 C9        -14.7790   22.2010   19.1190 C.3       1 TPV        -0.0172
     10 C10       -14.9540   23.7160   19.2320 C.3       1 TPV        -0.0528
     11 C11       -14.8230   24.1530   20.6710 C.3       1 TPV        -0.0652
     12 C12       -13.7470   22.2220   16.7960 C.3       1 TPV        -0.0074
     13 C13       -13.8150   21.7920   15.3290 C.3       1 TPV        -0.0160
     14 C14       -12.7100   22.4940   14.5620 C.ar      1 TPV        -0.0429
     15 C15       -11.4090   21.9960   14.6290 C.ar      1 TPV        -0.0603
     16 C16       -10.3780   22.6300   13.9420 C.ar      1 TPV        -0.0686
     17 C17       -10.6470   23.7590   13.1720 C.ar      1 TPV        -0.0687
     18 C18       -11.9520   24.2610   13.0980 C.ar      1 TPV        -0.0686
     19 C19       -12.9830   23.6270   13.7910 C.ar      1 TPV        -0.0603
     20 C20       -18.5930   19.2740   18.0760 C.3       1 TPV         0.0078
     21 C21       -18.6860   18.4680   19.3850 C.3       1 TPV        -0.0416
     22 C22       -18.5710   19.3060   20.6440 C.3       1 TPV        -0.0625
     23 C23       -18.9780   18.4390   16.8780 C.ar      1 TPV        -0.0540
     24 C24       -18.0340   18.0090   15.9410 C.ar      1 TPV        -0.0769
     25 C25       -18.4250   17.2430   14.8460 C.ar      1 TPV        -0.0844
     26 C26       -19.7590   16.8950   14.6730 C.ar      1 TPV        -0.0526
     27 C27       -20.7190   17.3000   15.5930 C.ar      1 TPV         0.0558
     28 N28       -22.0280   16.9480   15.4050 N.am      1 TPV        -0.1846
     29 C29       -20.3210   18.0740   16.6870 C.ar      1 TPV        -0.0443
     30 S30       -22.6400   15.5980   16.0560 S.o2      1 TPV         0.1159
     31 O31       -21.7500   14.5110   15.6780 O.2       1 TPV        -0.1395
     32 O32       -24.0140   15.4550   15.6110 O.2       1 TPV        -0.1395
     33 C33       -22.5560   15.8920   17.6470 C.ar      1 TPV         0.2140
     34 N34       -21.5050   15.4150   18.3750 N.ar      1 TPV        -0.2350
     35 C35       -21.3790   15.6760   19.6930 C.ar      1 TPV         0.0449
     36 C36       -22.3150   16.4520   20.3730 C.ar      1 TPV         0.0774
     37 C37       -23.3950   16.9690   19.6480 C.ar      1 TPV        -0.0118
     38 C38       -23.5280   16.6890   18.2820 C.ar      1 TPV         0.0213
     39 C39       -22.1310   16.7670   21.8380 C.3       1 TPV         0.3861
     40 F40       -21.4310   15.8570   22.4940 F         1 TPV        -0.2154
     41 F41       -23.2750   16.9800   22.4520 F         1 TPV        -0.2154
     42 F42       -21.4210   17.8850   21.8740 F         1 TPV        -0.2154
     43 H1        -14.4005   19.7664   16.7713 H         1 TPV         0.0532
     44 H2        -14.0000   19.8740   18.5191 H         1 TPV         0.0532
     45 H3        -15.4250   18.2481   19.4199 H         1 TPV         0.2572
     46 H4        -13.7948   21.9372   19.5333 H         1 TPV         0.0298
     47 H5        -15.5685   21.7188   19.7141 H         1 TPV         0.0298
     48 H6        -15.9498   23.9952   18.8573 H         1 TPV         0.0264
     49 H7        -14.1819   24.2164   18.6292 H         1 TPV         0.0264
     50 H8        -14.9511   25.2436   20.7361 H         1 TPV         0.0230
     51 H9        -13.8273   23.8776   21.0487 H         1 TPV         0.0230
     52 H10       -15.5952   23.6564   21.2768 H         1 TPV         0.0230
     53 H11       -12.7804   21.8925   17.2048 H         1 TPV         0.0320
     54 H12       -13.8062   23.3197   16.8340 H         1 TPV         0.0320
     55 H13       -14.7921   22.0701   14.9071 H         1 TPV         0.0427
     56 H14       -13.6809   20.7026   15.2564 H         1 TPV         0.0427
     57 H15       -11.1999   21.1110   15.2189 H         1 TPV         0.0557
     58 H16        -9.3665   22.2455   14.0061 H         1 TPV         0.0599
     59 H17        -9.8462   24.2490   12.6301 H         1 TPV         0.0559
     60 H18       -12.1609   25.1422   12.5022 H         1 TPV         0.0599
     61 H19       -13.9944   24.0125   13.7316 H         1 TPV         0.0557
     62 H20       -19.3436   20.0738   18.1595 H         1 TPV         0.0507
     63 H21       -17.8747   17.7252   19.3905 H         1 TPV         0.0297
     64 H22       -19.6568   17.9510   19.4029 H         1 TPV         0.0297
     65 H23       -18.6475   18.6540   21.5266 H         1 TPV         0.0232
     66 H24       -19.3821   20.0487   20.6655 H         1 TPV         0.0232
     67 H25       -17.6001   19.8229   20.6530 H         1 TPV         0.0232
     68 H26       -16.9905   18.2737   16.0677 H         1 TPV         0.0414
     69 H27       -17.6847   16.9164   14.1246 H         1 TPV         0.0555
     70 H28       -20.0533   16.3031   13.8139 H         1 TPV         0.0425
     71 H29       -22.6190   17.5371   14.8539 H         1 TPV         0.2164
     72 H30       -21.0656   18.3999   17.4042 H         1 TPV         0.0414
     73 H31       -20.5308   15.2730   20.2345 H         1 TPV         0.1070
     74 H32       -24.1318   17.5889   20.1459 H         1 TPV         0.0964
     75 H33       -24.3685   17.0809   17.7207 H         1 TPV         0.0802
@<TRIPOS>BOND
     1    1    2 1  
     2    1    6 1  
     3    2    3 1  
     4    2    7 2  
     5    3    4 2  
     6    3   20 1  
     7    4    5 1  
     8    4    8 1  
     9    5    6 1  
    10    6    9 1  
    11    6   12 1  
    12    9   10 1  
    13   10   11 1  
    14   12   13 1  
    15   13   14 1  
    16   14   15 ar 
    17   14   19 ar 
    18   15   16 ar 
    19   16   17 ar 
    20   17   18 ar 
    21   18   19 ar 
    22   20   21 1  
    23   20   23 1  
    24   21   22 1  
    25   23   24 ar 
    26   23   29 ar 
    27   24   25 ar 
    28   25   26 ar 
    29   26   27 ar 
    30   27   28 1  
    31   27   29 ar 
    32   28   30 am 
    33   30   31 2  
    34   30   32 2  
    35   30   33 1  
    36   33   34 ar 
    37   33   38 ar 
    38   34   35 ar 
    39   35   36 ar 
    40   36   37 ar 
    41   36   39 1  
    42   37   38 ar 
    43   39   40 1  
    44   39   41 1  
    45   39   42 1  
    46    5   43 1  
    47    5   44 1  
    48    8   45 1  
    49    9   46 1  
    50    9   47 1  
    51   10   48 1  
    52   10   49 1  
    53   11   50 1  
    54   11   51 1  
    55   11   52 1  
    56   12   53 1  
    57   12   54 1  
    58   13   55 1  
    59   13   56 1  
    60   15   57 1  
    61   16   58 1  
    62   17   59 1  
    63   18   60 1  
    64   19   61 1  
    65   20   62 1  
    66   21   63 1  
    67   21   64 1  
    68   22   65 1  
    69   22   66 1  
    70   22   67 1  
    71   24   68 1  
    72   25   69 1  
    73   26   70 1  
    74   28   71 1  
    75   29   72 1  
    76   35   73 1  
    77   37   74 1  
    78   38   75 1  
@<TRIPOS>SUBSTRUCTURE
     1 TPV         1

