### 
### Created by X-TOOL on Mon Sep 10 21:12:54 2018
### 

@<TRIPOS>MOLECULE
2o4n_ligand
   75    78     1     0     0
SMALL
GAST_HUCK


@<TRIPOS>ATOM
      1 O1         13.4390   22.0880   17.3250 O.3       1 TPV        -0.2775
      2 C2         12.2400   21.3430   17.4820 C.2       1 TPV         0.2212
      3 C3         12.2880   19.9940   18.0750 C.2       1 TPV         0.0518
      4 C4         13.5220   19.4490   18.2960 C.2       1 TPV         0.0930
      5 C5         14.8020   20.1640   17.9180 C.3       1 TPV         0.0484
      6 C6         14.6990   21.7010   17.8940 C.3       1 TPV         0.1121
      7 O7         11.2280   21.9170   17.1000 O.2       1 TPV        -0.3901
      8 O8         13.6870   18.2290   18.7820 O.3       1 TPV        -0.3232
      9 C9         14.8250   22.2280   19.3320 C.3       1 TPV        -0.0172
     10 C10        14.4450   23.7110   19.5160 C.3       1 TPV        -0.0528
     11 C11        14.5990   24.0380   21.0030 C.3       1 TPV        -0.0652
     12 C12        15.7950   22.3330   17.0180 C.3       1 TPV        -0.0074
     13 C13        15.6390   22.0370   15.5170 C.3       1 TPV        -0.0160
     14 C14        16.7670   22.7170   14.7500 C.ar      1 TPV        -0.0429
     15 C15        16.4990   23.8410   13.9580 C.ar      1 TPV        -0.0603
     16 C16        17.5210   24.4830   13.2410 C.ar      1 TPV        -0.0686
     17 C17        18.8210   23.9890   13.3560 C.ar      1 TPV        -0.0687
     18 C18        19.1220   22.8720   14.1570 C.ar      1 TPV        -0.0686
     19 C19        18.0800   22.2340   14.8530 C.ar      1 TPV        -0.0603
     20 C20        10.9530   19.2680   18.2700 C.3       1 TPV         0.0078
     21 C21        10.8480   18.4350   19.5670 C.3       1 TPV        -0.0416
     22 C22        10.9560   19.2550   20.8480 C.3       1 TPV        -0.0625
     23 C23        10.6340   18.4070   17.0850 C.ar      1 TPV        -0.0540
     24 C24        11.6200   17.9050   16.2240 C.ar      1 TPV        -0.0769
     25 C25        11.2600   17.1140   15.1180 C.ar      1 TPV        -0.0844
     26 C26         9.9160   16.7880   14.9010 C.ar      1 TPV        -0.0526
     27 C27         8.9110   17.2650   15.7460 C.ar      1 TPV         0.0558
     28 N28         7.5750   16.9820   15.5310 N.am      1 TPV        -0.1846
     29 C29         9.2900   18.0730   16.8220 C.ar      1 TPV        -0.0443
     30 S30         6.8810   15.6480   16.1240 S.o2      1 TPV         0.1159
     31 O31         7.6780   14.5190   15.6970 O.2       1 TPV        -0.1395
     32 O32         5.5130   15.5280   15.7180 O.2       1 TPV        -0.1395
     33 C33         6.9500   15.8740   17.7350 C.ar      1 TPV         0.2140
     34 N34         8.0500   15.4610   18.4170 N.ar      1 TPV        -0.2350
     35 C35         8.1990   15.7020   19.7520 C.ar      1 TPV         0.0449
     36 C36         7.2030   16.3550   20.4990 C.ar      1 TPV         0.0774
     37 C37         6.0520   16.7900   19.8200 C.ar      1 TPV        -0.0118
     38 C38         5.9140   16.5380   18.4360 C.ar      1 TPV         0.0213
     39 C39         7.3830   16.6610   21.9620 C.3       1 TPV         0.3861
     40 F40         7.9860   15.7200   22.6680 F         1 TPV        -0.2154
     41 F41         6.2520   17.0630   22.4930 F         1 TPV        -0.2154
     42 F42         8.1600   17.7280   22.0300 F         1 TPV        -0.2154
     43 H1         15.1002   19.8251   16.9149 H         1 TPV         0.0532
     44 H2         15.5782   19.8842   18.6454 H         1 TPV         0.0532
     45 H3         14.1215   17.6872   18.1337 H         1 TPV         0.2572
     46 H4         15.8696   22.1008   19.6522 H         1 TPV         0.0298
     47 H5         14.1681   21.6247   19.9758 H         1 TPV         0.0298
     48 H6         13.4042   23.8751   19.2002 H         1 TPV         0.0264
     49 H7         15.1141   24.3481   18.9191 H         1 TPV         0.0264
     50 H8         14.3358   25.0920   21.1758 H         1 TPV         0.0230
     51 H9         15.6409   23.8651   21.3105 H         1 TPV         0.0230
     52 H10        13.9309   23.3921   21.5916 H         1 TPV         0.0230
     53 H11        16.7697   21.9446   17.3483 H         1 TPV         0.0320
     54 H12        15.7672   23.4233   17.1609 H         1 TPV         0.0320
     55 H13        14.6708   22.4225   15.1650 H         1 TPV         0.0427
     56 H14        15.6838   20.9507   15.3500 H         1 TPV         0.0427
     57 H15        15.4857   24.2213   13.8978 H         1 TPV         0.0557
     58 H16        17.3058   25.3407   12.6140 H         1 TPV         0.0599
     59 H17        19.6211   24.4793   12.8133 H         1 TPV         0.0559
     60 H18        20.1404   22.5093   14.2362 H         1 TPV         0.0599
     61 H19        18.2915   21.3680   15.4698 H         1 TPV         0.0557
     62 H20        10.1792   20.0474   18.3309 H         1 TPV         0.0507
     63 H21        11.6576   17.6904   19.5651 H         1 TPV         0.0297
     64 H22         9.8760   17.9199   19.5683 H         1 TPV         0.0297
     65 H23        10.8716   18.5879   21.7186 H         1 TPV         0.0232
     66 H24        10.1464   19.9991   20.8764 H         1 TPV         0.0232
     67 H25        11.9279   19.7695   20.8732 H         1 TPV         0.0232
     68 H26        12.6643   18.1274   16.4114 H         1 TPV         0.0414
     69 H27        12.0222   16.7574   14.4347 H         1 TPV         0.0555
     70 H28         9.6505   16.1543   14.0626 H         1 TPV         0.0425
     71 H29         7.0230   17.6199   14.9940 H         1 TPV         0.2164
     72 H30         8.5197   18.4580   17.4803 H         1 TPV         0.0414
     73 H31         9.1078   15.3820   20.2487 H         1 TPV         0.1070
     74 H32         5.2717   17.3176   20.3565 H         1 TPV         0.0964
     75 H33         5.0180   16.8520   17.9129 H         1 TPV         0.0802
@<TRIPOS>BOND
     1    1    2 1  
     2    1    6 1  
     3    2    3 1  
     4    2    7 2  
     5    3    4 2  
     6    3   20 1  
     7    4    5 1  
     8    4    8 1  
     9    5    6 1  
    10    6    9 1  
    11    6   12 1  
    12    9   10 1  
    13   10   11 1  
    14   12   13 1  
    15   13   14 1  
    16   14   15 ar 
    17   14   19 ar 
    18   15   16 ar 
    19   16   17 ar 
    20   17   18 ar 
    21   18   19 ar 
    22   20   21 1  
    23   20   23 1  
    24   21   22 1  
    25   23   24 ar 
    26   23   29 ar 
    27   24   25 ar 
    28   25   26 ar 
    29   26   27 ar 
    30   27   28 1  
    31   27   29 ar 
    32   28   30 am 
    33   30   31 2  
    34   30   32 2  
    35   30   33 1  
    36   33   34 ar 
    37   33   38 ar 
    38   34   35 ar 
    39   35   36 ar 
    40   36   37 ar 
    41   36   39 1  
    42   37   38 ar 
    43   39   40 1  
    44   39   41 1  
    45   39   42 1  
    46    5   43 1  
    47    5   44 1  
    48    8   45 1  
    49    9   46 1  
    50    9   47 1  
    51   10   48 1  
    52   10   49 1  
    53   11   50 1  
    54   11   51 1  
    55   11   52 1  
    56   12   53 1  
    57   12   54 1  
    58   13   55 1  
    59   13   56 1  
    60   15   57 1  
    61   16   58 1  
    62   17   59 1  
    63   18   60 1  
    64   19   61 1  
    65   20   62 1  
    66   21   63 1  
    67   21   64 1  
    68   22   65 1  
    69   22   66 1  
    70   22   67 1  
    71   24   68 1  
    72   25   69 1  
    73   26   70 1  
    74   28   71 1  
    75   29   72 1  
    76   35   73 1  
    77   37   74 1  
    78   38   75 1  
@<TRIPOS>SUBSTRUCTURE
     1 TPV         1

