### 
### Created by X-TOOL on Fri Sep 26 17:34:33 2014
### 

@<TRIPOS>MOLECULE
2o4p_ligand
   75    78     1     0     0
SMALL
GAST_HUCK


@<TRIPOS>ATOM
      1 O1         13.6940   22.0290   16.5860 O.3       1 TPV        -0.2775
      2 C2         12.4450   21.3450   16.8100 C.2       1 TPV         0.2212
      3 C3         12.4600   20.0390   17.4770 C.2       1 TPV         0.0518
      4 C4         13.6860   19.5000   17.7840 C.2       1 TPV         0.0930
      5 C5         15.0150   20.1740   17.4840 C.3       1 TPV         0.0484
      6 C6         14.9040   21.6890   17.2540 C.3       1 TPV         0.1121
      7 O7         11.4360   21.8930   16.4140 O.2       1 TPV        -0.3901
      8 O8         13.8160   18.3200   18.3550 O.3       1 TPV        -0.3232
      9 C9         14.8370   22.2820   18.6830 C.3       1 TPV        -0.0172
     10 C10        15.2090   23.7360   18.8770 C.3       1 TPV        -0.0528
     11 C11        15.1790   24.0350   20.3650 C.3       1 TPV        -0.0652
     12 C12        16.0530   22.2100   16.3850 C.3       1 TPV        -0.0074
     13 C13        16.0850   21.7480   14.9010 C.3       1 TPV        -0.0160
     14 C14        17.2110   22.5020   14.1730 C.ar      1 TPV        -0.0429
     15 C15        16.9200   23.6110   13.3770 C.ar      1 TPV        -0.0603
     16 C16        17.9730   24.2740   12.7280 C.ar      1 TPV        -0.0686
     17 C17        19.3070   23.8590   12.8950 C.ar      1 TPV        -0.0687
     18 C18        19.6000   22.7600   13.6920 C.ar      1 TPV        -0.0686
     19 C19        18.5490   22.0790   14.2970 C.ar      1 TPV        -0.0603
     20 C20        11.0990   19.3940   17.7140 C.3       1 TPV         0.0078
     21 C21        10.8720   18.7230   19.0910 C.3       1 TPV        -0.0416
     22 C22        11.0610   19.6620   20.2900 C.3       1 TPV        -0.0625
     23 C23        10.7490   18.4410   16.6240 C.ar      1 TPV        -0.0540
     24 C24        11.6810   17.8550   15.7750 C.ar      1 TPV        -0.0769
     25 C25        11.2710   16.9740   14.7660 C.ar      1 TPV        -0.0844
     26 C26         9.9140   16.6820   14.6130 C.ar      1 TPV        -0.0526
     27 C27         8.9630   17.2540   15.4560 C.ar      1 TPV         0.0558
     28 N28         7.6170   16.9830   15.3240 N.am      1 TPV        -0.1846
     29 C29         9.3950   18.1330   16.4430 C.ar      1 TPV        -0.0443
     30 S30         7.0060   15.6130   15.8950 S.o2      1 TPV         0.1159
     31 O31         7.8350   14.5030   15.4400 O.2       1 TPV        -0.1395
     32 O32         5.6300   15.4630   15.4740 O.2       1 TPV        -0.1395
     33 C33         7.1150   15.8600   17.4940 C.ar      1 TPV         0.2140
     34 N34         8.1990   15.4390   18.2020 N.ar      1 TPV        -0.2350
     35 C35         8.3130   15.7160   19.5290 C.ar      1 TPV         0.0449
     36 C36         7.3350   16.4380   20.2360 C.ar      1 TPV         0.0774
     37 C37         6.2270   16.9090   19.5160 C.ar      1 TPV        -0.0118
     38 C38         6.1380   16.6190   18.1520 C.ar      1 TPV         0.0213
     39 C39         7.4870   16.7890   21.7000 C.3       1 TPV         0.3861
     40 F40         7.9660   15.8230   22.4870 F         1 TPV        -0.2154
     41 F41         6.3480   17.2330   22.1870 F         1 TPV        -0.2154
     42 F42         8.3380   17.8100   21.7340 F         1 TPV        -0.2154
     43 H1         15.4395   19.7160   16.5785 H         1 TPV         0.0532
     44 H2         15.6913   20.0010   18.3341 H         1 TPV         0.0532
     45 H3         12.9556   17.9512   18.5167 H         1 TPV         0.2572
     46 H4         15.5128   21.6864   19.3143 H         1 TPV         0.0298
     47 H5         13.8027   22.1610   19.0372 H         1 TPV         0.0298
     48 H6         14.4867   24.3790   18.3527 H         1 TPV         0.0264
     49 H7         16.2184   23.9190   18.4801 H         1 TPV         0.0264
     50 H8         15.4466   25.0887   20.5327 H         1 TPV         0.0230
     51 H9         15.9002   23.3865   20.8839 H         1 TPV         0.0230
     52 H10        14.1685   23.8466   20.7566 H         1 TPV         0.0230
     53 H11        16.9948   21.8872   16.8528 H         1 TPV         0.0320
     54 H12        15.9994   23.3087   16.3888 H         1 TPV         0.0320
     55 H13        15.1202   21.9723   14.4227 H         1 TPV         0.0427
     56 H14        16.2744   20.6654   14.8545 H         1 TPV         0.0427
     57 H15        15.8982   23.9543   13.2621 H         1 TPV         0.0557
     58 H16        17.7548   25.1205   12.0870 H         1 TPV         0.0599
     59 H17        20.1073   24.3979   12.4008 H         1 TPV         0.0559
     60 H18        20.6252   22.4401   13.8393 H         1 TPV         0.0599
     61 H19        18.7666   21.1936   14.8833 H         1 TPV         0.0557
     62 H20        10.3723   20.2180   17.6608 H         1 TPV         0.0507
     63 H21        11.5839   17.8903   19.1900 H         1 TPV         0.0297
     64 H22         9.8442   18.3319   19.1184 H         1 TPV         0.0297
     65 H23        10.8817   19.1067   21.2224 H         1 TPV         0.0232
     66 H24        10.3485   20.4970   20.2177 H         1 TPV         0.0232
     67 H25        12.0882   20.0554   20.2893 H         1 TPV         0.0232
     68 H26        12.7342   18.0818   15.8949 H         1 TPV         0.0414
     69 H27        12.0033   16.5213   14.1074 H         1 TPV         0.0555
     70 H28         9.5968   16.0029   13.8299 H         1 TPV         0.0425
     71 H29         7.0188   17.6435   14.8702 H         1 TPV         0.2164
     72 H30         8.6604   18.5945   17.0929 H         1 TPV         0.0414
     73 H31         9.1905   15.3671   20.0613 H         1 TPV         0.1070
     74 H32         5.4539   17.4874   20.0088 H         1 TPV         0.0964
     75 H33         5.2905   16.9911   17.5878 H         1 TPV         0.0802
@<TRIPOS>BOND
     1    1    2 1  
     2    1    6 1  
     3    2    3 1  
     4    2    7 2  
     5    3    4 2  
     6    3   20 1  
     7    4    5 1  
     8    4    8 1  
     9    5    6 1  
    10    6    9 1  
    11    6   12 1  
    12    9   10 1  
    13   10   11 1  
    14   12   13 1  
    15   13   14 1  
    16   14   15 ar 
    17   14   19 ar 
    18   15   16 ar 
    19   16   17 ar 
    20   17   18 ar 
    21   18   19 ar 
    22   20   21 1  
    23   20   23 1  
    24   21   22 1  
    25   23   24 ar 
    26   23   29 ar 
    27   24   25 ar 
    28   25   26 ar 
    29   26   27 ar 
    30   27   28 1  
    31   27   29 ar 
    32   28   30 am 
    33   30   31 2  
    34   30   32 2  
    35   30   33 1  
    36   33   34 ar 
    37   33   38 ar 
    38   34   35 ar 
    39   35   36 ar 
    40   36   37 ar 
    41   36   39 1  
    42   37   38 ar 
    43   39   40 1  
    44   39   41 1  
    45   39   42 1  
    46    5   43 1  
    47    5   44 1  
    48    8   45 1  
    49    9   46 1  
    50    9   47 1  
    51   10   48 1  
    52   10   49 1  
    53   11   50 1  
    54   11   51 1  
    55   11   52 1  
    56   12   53 1  
    57   12   54 1  
    58   13   55 1  
    59   13   56 1  
    60   15   57 1  
    61   16   58 1  
    62   17   59 1  
    63   18   60 1  
    64   19   61 1  
    65   20   62 1  
    66   21   63 1  
    67   21   64 1  
    68   22   65 1  
    69   22   66 1  
    70   22   67 1  
    71   24   68 1  
    72   25   69 1  
    73   26   70 1  
    74   28   71 1  
    75   29   72 1  
    76   35   73 1  
    77   37   74 1  
    78   38   75 1  
@<TRIPOS>SUBSTRUCTURE
     1 TPV         1

