### 
### Created by X-TOOL on Mon Sep 10 21:12:55 2018
### 

@<TRIPOS>MOLECULE
2o4r_ligand
   72    74     1     0     0
SMALL
GAST_HUCK


@<TRIPOS>ATOM
      1 O2         58.6410    8.1120    1.1290 O.3       1 VD5        -0.3742
      2 C3         60.0720    8.1510    1.1710 C.3       1 VD5         0.1023
      3 C2         60.4990    6.9420    1.9700 C.2       1 VD5        -0.0127
      4 C28        61.1180    7.0430    3.1420 C.2       1 VD5        -0.1238
      5 C1         60.1550    5.6100    1.4290 C.3       1 VD5         0.1023
      6 O1         60.6250    4.6310    2.3660 O.3       1 VD5        -0.3742
      7 C10        60.8200    5.4780    0.0380 C.3       1 VD5         0.0150
      8 C4         60.5780    8.0860   -0.2670 C.3       1 VD5         0.0150
      9 C5         60.5540    6.6880   -0.8610 C.2       1 VD5        -0.0657
     10 C6         60.3190    6.5590   -2.2040 C.2       1 VD5        -0.1087
     11 C7         60.3190    5.2430   -2.8880 C.2       1 VD5        -0.1104
     12 C8         60.4950    5.1380   -4.2460 C.2       1 VD5        -0.0887
     13 C9         60.6700    6.3700   -5.1360 C.3       1 VD5        -0.0263
     14 C11        61.9240    6.2130   -6.0160 C.3       1 VD5        -0.0577
     15 C12        62.1560    4.7980   -6.6190 C.3       1 VD5        -0.0998
     16 C14        60.6070    3.8140   -5.0110 C.3       1 VD5        -0.0607
     17 C13        62.0390    3.6800   -5.5630 C.3       1 VD5        -0.0767
     18 C18        63.1380    3.7650   -4.4740 C.3       1 VD5        -0.1138
     19 C15        60.2830    2.4580   -4.3800 C.3       1 VD5        -0.0480
     20 C16        61.0310    1.4330   -5.2850 C.3       1 VD5        -0.0311
     21 C17        62.0800    2.2350   -6.0340 C.2       1 VD5        -0.0717
     22 C20        62.9260    1.7150   -6.9700 C.2       1 VD5         0.0095
     23 C21        63.9680    2.5330   -7.7070 C.3       1 VD5         0.0178
     24 C22        62.8890    0.2630   -7.3870 C.3       1 VD5         0.0290
     25 C23        63.7670   -0.5750   -6.4670 C.3       1 VD5        -0.0240
     26 C24        65.2380   -0.4300   -6.8750 C.3       1 VD5        -0.0201
     27 C25        66.0370   -1.6950   -6.6220 C.3       1 VD5         0.0609
     28 C27        66.0010   -2.1750   -5.1590 C.3       1 VD5        -0.0363
     29 C26        67.4820   -1.3990   -6.9750 C.3       1 VD5        -0.0363
     30 O3         65.5130   -2.7450   -7.4440 O.3       1 VD5        -0.3891
     31 H1         58.2982    8.1468    2.0143 H         1 VD5         0.2139
     32 H2         60.4295    9.0725    1.6536 H         1 VD5         0.0819
     33 H3         61.4079    6.1440    3.6839 H         1 VD5         0.0077
     34 H4         61.3352    8.0247    3.5602 H         1 VD5         0.0077
     35 H5         59.0648    5.5130    1.3191 H         1 VD5         0.0819
     36 H6         61.5657    4.7166    2.4666 H         1 VD5         0.2139
     37 H7         60.4253    4.5784   -0.4569 H         1 VD5         0.0490
     38 H8         61.9064    5.3740    0.1757 H         1 VD5         0.0490
     39 H9         61.6144    8.4540   -0.2873 H         1 VD5         0.0490
     40 H10        59.9453    8.7377   -0.8875 H         1 VD5         0.0490
     41 H11        60.1251    7.4554   -2.7911 H         1 VD5         0.0219
     42 H12        60.1760    4.3381   -2.2992 H         1 VD5         0.0218
     43 H13        60.7789    7.2633   -4.5035 H         1 VD5         0.0436
     44 H14        59.7853    6.4823   -5.7800 H         1 VD5         0.0436
     45 H15        62.8009    6.4659   -5.4019 H         1 VD5         0.0275
     46 H16        61.8424    6.9257   -6.8498 H         1 VD5         0.0275
     47 H17        63.1633    4.7630   -7.0597 H         1 VD5         0.0074
     48 H18        61.4059    4.6217   -7.4040 H         1 VD5         0.0074
     49 H19        59.9149    3.9171   -5.8597 H         1 VD5         0.0280
     50 H20        64.1276    3.6615   -4.9430 H         1 VD5         0.0036
     51 H21        62.9926    2.9565   -3.7424 H         1 VD5         0.0036
     52 H22        63.0740    4.7373   -3.9636 H         1 VD5         0.0036
     53 H23        59.1991    2.2708   -4.3904 H         1 VD5         0.0297
     54 H24        60.6536    2.4095   -3.3454 H         1 VD5         0.0297
     55 H25        60.3311    0.9628   -5.9915 H         1 VD5         0.0395
     56 H26        61.5090    0.6560   -4.6704 H         1 VD5         0.0395
     57 H27        64.5179    1.8838   -8.4042 H         1 VD5         0.0646
     58 H28        64.6702    2.9709   -6.9824 H         1 VD5         0.0646
     59 H29        63.4720    3.3378   -8.2693 H         1 VD5         0.0646
     60 H30        63.2563    0.1728   -8.4199 H         1 VD5         0.0681
     61 H31        61.8533   -0.1036   -7.3328 H         1 VD5         0.0681
     62 H32        63.4701   -1.6315   -6.5421 H         1 VD5         0.0319
     63 H33        63.6407   -0.2315   -5.4297 H         1 VD5         0.0319
     64 H34        65.6855    0.3917   -6.2967 H         1 VD5         0.0296
     65 H35        65.2850   -0.1914   -7.9478 H         1 VD5         0.0296
     66 H36        66.6007   -3.0917   -5.0590 H         1 VD5         0.0257
     67 H37        64.9612   -2.3835   -4.8669 H         1 VD5         0.0257
     68 H38        66.4155   -1.3927   -4.5061 H         1 VD5         0.0257
     69 H39        67.5412   -1.0528   -8.0174 H         1 VD5         0.0257
     70 H40        68.0828   -2.3129   -6.8575 H         1 VD5         0.0257
     71 H41        67.8700   -0.6166   -6.3062 H         1 VD5         0.0257
     72 H42        64.6199   -2.9350   -7.1819 H         1 VD5         0.2101
@<TRIPOS>BOND
     1    1    2 1  
     2    2    3 1  
     3    2    8 1  
     4    3    4 2  
     5    3    5 1  
     6    5    6 1  
     7    5    7 1  
     8    7    9 1  
     9    8    9 1  
    10    9   10 2  
    11   10   11 1  
    12   11   12 2  
    13   12   13 1  
    14   12   16 1  
    15   13   14 1  
    16   14   15 1  
    17   15   17 1  
    18   16   17 1  
    19   16   19 1  
    20   17   18 1  
    21   17   21 1  
    22   19   20 1  
    23   20   21 1  
    24   21   22 2  
    25   22   23 1  
    26   22   24 1  
    27   24   25 1  
    28   25   26 1  
    29   26   27 1  
    30   27   28 1  
    31   27   29 1  
    32   27   30 1  
    33    1   31 1  
    34    2   32 1  
    35    4   33 1  
    36    4   34 1  
    37    5   35 1  
    38    6   36 1  
    39    7   37 1  
    40    7   38 1  
    41    8   39 1  
    42    8   40 1  
    43   10   41 1  
    44   11   42 1  
    45   13   43 1  
    46   13   44 1  
    47   14   45 1  
    48   14   46 1  
    49   15   47 1  
    50   15   48 1  
    51   16   49 1  
    52   18   50 1  
    53   18   51 1  
    54   18   52 1  
    55   19   53 1  
    56   19   54 1  
    57   20   55 1  
    58   20   56 1  
    59   23   57 1  
    60   23   58 1  
    61   23   59 1  
    62   24   60 1  
    63   24   61 1  
    64   25   62 1  
    65   25   63 1  
    66   26   64 1  
    67   26   65 1  
    68   28   66 1  
    69   28   67 1  
    70   28   68 1  
    71   29   69 1  
    72   29   70 1  
    73   29   71 1  
    74   30   72 1  
@<TRIPOS>SUBSTRUCTURE
     1 VD5         1

