### 
### Created by X-TOOL on Fri Sep 26 17:34:32 2014
### 

@<TRIPOS>MOLECULE
2o4s_ligand
   94    97     1     0     0
SMALL
GAST_HUCK


@<TRIPOS>ATOM
      1 C1          5.3550  -16.4940  -17.3880 C.3       1 AB1         0.0330
      2 C2          7.1810  -17.9060  -16.3700 C.3       1 AB1         0.0388
      3 N1          8.1370  -16.9120  -16.8990 N.am      1 AB1        -0.2377
      4 C3          7.7660  -15.8860  -17.7000 C.2       1 AB1         0.2622
      5 N2          6.4440  -15.7130  -17.9600 N.am      1 AB1        -0.2728
      6 C4         15.0010  -20.6720  -15.2640 C.ar      1 AB1        -0.0408
      7 C5         16.2970  -21.1360  -15.1910 C.ar      1 AB1        -0.0603
      8 C6         16.6200  -22.2150  -14.3630 C.ar      1 AB1        -0.0686
      9 C7         15.6090  -22.8130  -13.6190 C.ar      1 AB1        -0.0687
     10 C8         14.2900  -22.3490  -13.6890 C.ar      1 AB1        -0.0686
     11 C9         13.9770  -21.2640  -14.5180 C.ar      1 AB1        -0.0603
     12 O1          8.5990  -15.1510  -18.2070 O.2       1 AB1        -0.4005
     13 C10         9.5600  -17.1760  -16.5720 C.3       1 AB1         0.1362
     14 C11        10.0350  -18.4130  -17.2760 C.2       1 AB1         0.2023
     15 N3         10.7510  -18.1740  -18.3790 N.am      1 AB1        -0.2800
     16 C12        11.3260  -19.2370  -19.2530 C.3       1 AB1         0.0540
     17 C13         9.8060  -17.2710  -15.0490 C.3       1 AB1        -0.0063
     18 C14        11.2730  -17.5360  -14.7110 C.3       1 AB1        -0.0584
     19 C15         9.2700  -16.0380  -14.2960 C.3       1 AB1        -0.0584
     20 O2          9.7790  -19.5400  -16.8360 O.2       1 AB1        -0.3945
     21 C16         7.1320  -20.7430  -20.4720 C.ar      1 AB1        -0.0686
     22 C17         6.3530  -19.5860  -20.4440 C.ar      1 AB1        -0.0687
     23 C18         6.9430  -18.3120  -20.5200 C.ar      1 AB1        -0.0686
     24 C19         8.3410  -18.1720  -20.5720 C.ar      1 AB1        -0.0603
     25 C20         9.1270  -19.3190  -20.5630 C.ar      1 AB1        -0.0408
     26 C21         8.5450  -20.6020  -20.5190 C.ar      1 AB1        -0.0603
     27 C22        10.6170  -19.1520  -20.6220 C.3       1 AB1         0.0040
     28 C23        12.8070  -18.9690  -19.5040 C.3       1 AB1         0.0004
     29 C24        13.6990  -18.7180  -18.2880 C.3       1 AB1         0.0821
     30 C25        13.8770  -19.9230  -17.3830 C.3       1 AB1         0.0774
     31 N4         14.5820  -20.9910  -18.1200 N.am      1 AB1        -0.2772
     32 C26        13.9330  -22.1590  -18.4080 C.2       1 AB1         0.2068
     33 C27        14.7300  -23.2240  -19.1200 C.3       1 AB1         0.1556
     34 O3         16.0560  -22.7710  -19.4160 O.3       1 AB1        -0.3054
     35 C28        16.9460  -23.7580  -19.7400 C.ar      1 AB1         0.0966
     36 O4         14.9960  -18.2990  -18.7190 O.3       1 AB1        -0.3893
     37 C29        14.7380  -19.5010  -16.1910 C.3       1 AB1         0.0064
     38 O5         12.7680  -22.4620  -18.1530 O.2       1 AB1        -0.3941
     39 C30        16.8490  -24.3830  -20.9930 C.ar      1 AB1        -0.0230
     40 C31        17.7390  -25.4060  -21.2980 C.ar      1 AB1        -0.0759
     41 C32        18.7080  -25.8360  -20.3880 C.ar      1 AB1        -0.0862
     42 C33        18.7830  -25.2350  -19.1400 C.ar      1 AB1        -0.0759
     43 C34        17.9080  -24.1810  -18.8110 C.ar      1 AB1        -0.0230
     44 C35        17.9730  -23.5370  -17.4460 C.3       1 AB1        -0.0348
     45 C36        15.8330  -23.9850  -22.0580 C.3       1 AB1        -0.0348
     46 C37         5.8420  -17.2030  -16.1170 C.3       1 AB1        -0.0125
     47 H1          5.0188  -17.2437  -18.1193 H         1 AB1         0.0517
     48 H2          4.5181  -15.8259  -17.1366 H         1 AB1         0.0517
     49 H3          7.5642  -18.3253  -15.4280 H         1 AB1         0.0522
     50 H4          7.0431  -18.7152  -17.1023 H         1 AB1         0.0522
     51 H5          6.1964  -14.9858  -18.6002 H         1 AB1         0.1845
     52 H6         17.0722  -20.6602  -15.7806 H         1 AB1         0.0557
     53 H7         17.6394  -22.5786  -14.3021 H         1 AB1         0.0599
     54 H8         15.8459  -23.6518  -12.9745 H         1 AB1         0.0559
     55 H9         13.5134  -22.8278  -13.1036 H         1 AB1         0.0599
     56 H10        12.9612  -20.8907  -14.5800 H         1 AB1         0.0557
     57 H11        10.1501  -16.3273  -16.9481 H         1 AB1         0.0802
     58 H12        10.9116  -17.2207  -18.6348 H         1 AB1         0.1856
     59 H13        11.1850  -20.2273  -18.7954 H         1 AB1         0.0579
     60 H14         9.2339  -18.1391  -14.6897 H         1 AB1         0.0342
     61 H15        11.3929  -17.5944  -13.6191 H         1 AB1         0.0234
     62 H16        11.8936  -16.7176  -15.1048 H         1 AB1         0.0234
     63 H17        11.5881  -18.4867  -15.1658 H         1 AB1         0.0234
     64 H18         8.2148  -15.8764  -14.5615 H         1 AB1         0.0234
     65 H19         9.8586  -15.1522  -14.5770 H         1 AB1         0.0234
     66 H20         9.3539  -16.2052  -13.2120 H         1 AB1         0.0234
     67 H21         6.6712  -21.7241  -20.4583 H         1 AB1         0.0599
     68 H22         5.2754  -19.6706  -20.3623 H         1 AB1         0.0559
     69 H23         6.3140  -17.4293  -20.5387 H         1 AB1         0.0599
     70 H24         8.7970  -17.1896  -20.6182 H         1 AB1         0.0557
     71 H25         9.1767  -21.4829  -20.5210 H         1 AB1         0.0557
     72 H26        11.0256  -19.9413  -21.2701 H         1 AB1         0.0448
     73 H27        10.8351  -18.1674  -21.0612 H         1 AB1         0.0448
     74 H28        12.8755  -18.0817  -20.1506 H         1 AB1         0.0315
     75 H29        13.2136  -19.8422  -20.0352 H         1 AB1         0.0315
     76 H30        13.2400  -17.9119  -17.6969 H         1 AB1         0.0619
     77 H31        12.8977  -20.2858  -17.0375 H         1 AB1         0.0604
     78 H32        15.5309  -20.8602  -18.4074 H         1 AB1         0.1857
     79 H33        14.2217  -23.4833  -20.0604 H         1 AB1         0.0853
     80 H34        14.7908  -24.1152  -18.4782 H         1 AB1         0.0853
     81 H35        14.9105  -17.5436  -19.2886 H         1 AB1         0.2099
     82 H36        15.6985  -19.1135  -16.5613 H         1 AB1         0.0449
     83 H37        14.2149  -18.7111  -15.6321 H         1 AB1         0.0449
     84 H38        17.6797  -25.8837  -22.2693 H         1 AB1         0.0471
     85 H39        19.3945  -26.6315  -20.6546 H         1 AB1         0.0489
     86 H40        19.5153  -25.5766  -18.4175 H         1 AB1         0.0471
     87 H41        17.2174  -22.7403  -17.3801 H         1 AB1         0.0366
     88 H42        18.9735  -23.1071  -17.2906 H         1 AB1         0.0366
     89 H43        17.7753  -24.2946  -16.6733 H         1 AB1         0.0366
     90 H44        15.2018  -23.1692  -21.6759 H         1 AB1         0.0366
     91 H45        15.2022  -24.8516  -22.3051 H         1 AB1         0.0366
     92 H46        16.3619  -23.6470  -22.9613 H         1 AB1         0.0366
     93 H47         5.0943  -17.9493  -15.8104 H         1 AB1         0.0304
     94 H48         5.9694  -16.4607  -15.3153 H         1 AB1         0.0304
@<TRIPOS>BOND
     1    5    1 1  
     2   46    1 1  
     3    3    2 1  
     4    2   46 1  
     5    3    4 am 
     6   13    3 1  
     7    4    5 am 
     8    4   12 2  
     9    6    7 ar 
    10    6   11 ar 
    11   37    6 1  
    12    7    8 ar 
    13    8    9 ar 
    14   10    9 ar 
    15   11   10 ar 
    16   14   13 1  
    17   13   17 1  
    18   15   14 am 
    19   14   20 2  
    20   16   15 1  
    21   16   27 1  
    22   28   16 1  
    23   17   18 1  
    24   17   19 1  
    25   21   22 ar 
    26   26   21 ar 
    27   23   22 ar 
    28   24   23 ar 
    29   25   24 ar 
    30   25   26 ar 
    31   27   25 1  
    32   29   28 1  
    33   30   29 1  
    34   29   36 1  
    35   30   31 1  
    36   30   37 1  
    37   31   32 am 
    38   32   33 1  
    39   32   38 2  
    40   33   34 1  
    41   34   35 1  
    42   35   39 ar 
    43   35   43 ar 
    44   39   40 ar 
    45   39   45 1  
    46   40   41 ar 
    47   41   42 ar 
    48   42   43 ar 
    49   43   44 1  
    50    1   47 1  
    51    1   48 1  
    52    2   49 1  
    53    2   50 1  
    54    5   51 1  
    55    7   52 1  
    56    8   53 1  
    57    9   54 1  
    58   10   55 1  
    59   11   56 1  
    60   13   57 1  
    61   15   58 1  
    62   16   59 1  
    63   17   60 1  
    64   18   61 1  
    65   18   62 1  
    66   18   63 1  
    67   19   64 1  
    68   19   65 1  
    69   19   66 1  
    70   21   67 1  
    71   22   68 1  
    72   23   69 1  
    73   24   70 1  
    74   26   71 1  
    75   27   72 1  
    76   27   73 1  
    77   28   74 1  
    78   28   75 1  
    79   29   76 1  
    80   30   77 1  
    81   31   78 1  
    82   33   79 1  
    83   33   80 1  
    84   36   81 1  
    85   37   82 1  
    86   37   83 1  
    87   40   84 1  
    88   41   85 1  
    89   42   86 1  
    90   44   87 1  
    91   44   88 1  
    92   44   89 1  
    93   45   90 1  
    94   45   91 1  
    95   45   92 1  
    96   46   93 1  
    97   46   94 1  
@<TRIPOS>SUBSTRUCTURE
     1 AB1         1

