### 
### Created by X-TOOL on Mon Sep 10 21:12:56 2018
### 

@<TRIPOS>MOLECULE
2o4z_ligand
   10     9     1     0     0
SMALL
GAST_HUCK


@<TRIPOS>ATOM
      1 O3         -4.4550    1.4950   14.3290 O.3       1 HSW        -0.2807
      2 N2         -4.3820    1.8330   15.7780 N.am      1 HSW        -0.1149
      3 S1         -5.4800    0.9060   16.5510 S.o2      1 HSW         0.1350
      4 O2         -6.8610    1.4130   16.2970 O.2       1 HSW        -0.1339
      5 O1         -5.2560    0.9630   18.0350 O.2       1 HSW        -0.1339
      6 N1         -5.2830   -0.6210   16.0470 N.am      1 HSW        -0.2472
      7 H1         -3.8249    2.0205   13.8503 H         1 HSW         0.2429
      8 H2         -3.7723    2.5044   16.1994 H         1 HSW         0.2030
      9 H3         -5.8683   -1.3465   16.4091 H         1 HSW         0.1648
     10 H4         -4.5761   -0.8381   15.3738 H         1 HSW         0.1648
@<TRIPOS>BOND
     1    1    2 1  
     2    2    3 am 
     3    3    4 2  
     4    3    5 2  
     5    3    6 am 
     6    1    7 1  
     7    2    8 1  
     8    6    9 1  
     9    6   10 1  
@<TRIPOS>SUBSTRUCTURE
     1 HSW         1

