### 
### Created by X-TOOL on Mon Sep 10 21:12:56 2018
### 

@<TRIPOS>MOLECULE
2o5d_ligand
   57    60     1     0     0
SMALL
GAST_HUCK


@<TRIPOS>ATOM
      1 C1         11.4860   30.7270   70.6960 C.2       1 VR1         0.1064
      2 C2         11.7110   31.9020   71.4350 C.2       1 VR1        -0.0550
      3 C3         10.4910   32.4060   71.8220 C.2       1 VR1        -0.0613
      4 C4          9.4990   31.5460   71.3360 C.2       1 VR1         0.1087
      5 O5         10.1160   30.5260   70.6480 O.3       1 VR1        -0.2548
      6 C6         12.5010   29.8260   70.0390 C.3       1 VR1         0.0139
      7 C7         13.0200   30.4510   68.7270 C.3       1 VR1        -0.0509
      8 C8          8.0050   31.6510   71.4580 C.2       1 VR1        -0.0109
      9 C9          7.2250   32.6240   72.0530 C.2       1 VR1         0.0898
     10 C10         5.7450   32.6990   71.9690 C.2       1 VR1         0.1622
     11 N11         5.2790   33.7990   72.6650 N.2       1 VR1        -0.2720
     12 C12         6.2760   34.4900   73.2180 C.2       1 VR1         0.1944
     13 S13         7.8790   33.9210   72.9870 S.3       1 VR1         0.0313
     14 O14         5.0420   31.8980   71.3660 O.2       1 VR1        -0.3978
     15 N15         5.9690   35.6480   73.9530 N.pl3     1 VR1        -0.2414
     16 C16         6.9150   36.5270   74.6700 C.3       1 VR1         0.1702
     17 C17         6.1520   37.5060   75.5460 C.2       1 VR1         0.2345
     18 O18         5.2780   38.2860   75.0920 O.2       1 VR1        -0.3898
     19 N19         6.4540   37.5050   76.8230 N.am      1 VR1        -0.1497
     20 S20         5.6810   38.5480   77.8920 S.o2      1 VR1         0.0932
     21 C21         7.8580   37.3350   73.7180 C.ar      1 VR1        -0.0012
     22 C22         7.3590   38.3090   72.7200 C.ar      1 VR1        -0.0573
     23 C23         8.2810   39.0250   71.8870 C.ar      1 VR1        -0.0344
     24 C24         9.6980   38.7920   72.0250 C.ar      1 VR1         0.1252
     25 C25        10.2010   37.8470   72.9870 C.ar      1 VR1        -0.0344
     26 C26         9.2850   37.1240   73.8290 C.ar      1 VR1        -0.0573
     27 F          10.5710   39.4690   71.2450 F         1 VR1        -0.1890
     28 O28         6.4920   38.5090   79.3000 O.2       1 VR1        -0.1449
     29 O29         5.7010   40.0240   77.2150 O.2       1 VR1        -0.1449
     30 C30         4.0220   37.9630   78.0420 C.ar      1 VR1         0.1184
     31 C31         2.9530   38.8090   77.6680 C.ar      1 VR1        -0.0266
     32 C32         1.6210   38.3420   77.7940 C.ar      1 VR1        -0.0170
     33 C33         1.3400   37.0230   78.2940 C.ar      1 VR1         0.1997
     34 C34         2.4530   36.1840   78.6630 C.ar      1 VR1        -0.0170
     35 C35         3.7910   36.6440   78.5410 C.ar      1 VR1        -0.0266
     36 N36        -0.0920   36.5300   78.4290 N.2       1 VR1         0.3148
     37 O37        -1.0440   37.2400   78.1180 O.2       1 VR1         0.1782
     38 O38        -0.3420   35.4040   78.8550 O.2       1 VR1         0.1782
     39 H1         12.6830   32.3376   71.6617 H         1 VR1         0.0285
     40 H2         10.3262   33.3123   72.4028 H         1 VR1         0.0393
     41 H3         12.0318   28.8565   69.8157 H         1 VR1         0.0481
     42 H4         13.3469   29.6745   70.7257 H         1 VR1         0.0481
     43 H5         13.7576   29.7772   68.2666 H         1 VR1         0.0256
     44 H6         13.4938   31.4196   68.9445 H         1 VR1         0.0256
     45 H7         12.1786   30.6016   68.0346 H         1 VR1         0.0256
     46 H8          7.4493   30.8307   71.0061 H         1 VR1         0.0619
     47 H9          4.9746   35.9129   73.9964 H         1 VR1         0.2031
     48 H10         7.5425   35.8923   75.3129 H         1 VR1         0.0972
     49 H11         7.1525   36.8762   77.1647 H         1 VR1         0.2148
     50 H12         6.2935   38.4812   72.6189 H         1 VR1         0.0552
     51 H13         7.9149   39.7379   71.1571 H         1 VR1         0.0587
     52 H14        11.2683   37.6801   73.0771 H         1 VR1         0.0587
     53 H15         9.6679   36.4144   74.5535 H         1 VR1         0.0552
     54 H16         3.1502   39.8051   77.2886 H         1 VR1         0.0652
     55 H17         0.8000   38.9898   77.5087 H         1 VR1         0.0693
     56 H18         2.2653   35.1851   79.0399 H         1 VR1         0.0693
     57 H19         4.6217   36.0064   78.8212 H         1 VR1         0.0652
@<TRIPOS>BOND
     1    1    2 2  
     2    1    5 1  
     3    1    6 1  
     4    2    3 1  
     5    3    4 2  
     6    4    5 1  
     7    4    8 1  
     8    6    7 1  
     9    8    9 2  
    10    9   10 1  
    11    9   13 1  
    12   10   11 1  
    13   10   14 2  
    14   11   12 2  
    15   12   13 1  
    16   12   15 1  
    17   15   16 1  
    18   16   17 1  
    19   16   21 1  
    20   17   18 2  
    21   17   19 am 
    22   19   20 am 
    23   20   28 2  
    24   20   29 2  
    25   20   30 1  
    26   21   22 ar 
    27   21   26 ar 
    28   22   23 ar 
    29   23   24 ar 
    30   24   25 ar 
    31   24   27 1  
    32   25   26 ar 
    33   30   31 ar 
    34   30   35 ar 
    35   31   32 ar 
    36   32   33 ar 
    37   33   34 ar 
    38   33   36 1  
    39   34   35 ar 
    40   36   37 2  
    41   36   38 2  
    42    2   39 1  
    43    3   40 1  
    44    6   41 1  
    45    6   42 1  
    46    7   43 1  
    47    7   44 1  
    48    7   45 1  
    49    8   46 1  
    50   15   47 1  
    51   16   48 1  
    52   19   49 1  
    53   22   50 1  
    54   23   51 1  
    55   25   52 1  
    56   26   53 1  
    57   31   54 1  
    58   32   55 1  
    59   34   56 1  
    60   35   57 1  
@<TRIPOS>SUBSTRUCTURE
     1 VR1         1

