### 
### Created by X-TOOL on Mon Sep 10 21:12:56 2018
### 

@<TRIPOS>MOLECULE
2o5k_ligand
   54    57     1     0     0
SMALL
GAST_HUCK


@<TRIPOS>ATOM
      1 C2         12.6940   32.1200   -7.0910 C.ar      1 HBM        -0.0654
      2 C4         13.1860   33.8080   -8.8920 C.ar      1 HBM         0.1184
      3 C6         11.3450   32.0610   -9.1550 C.ar      1 HBM         0.0444
      4 C10         9.7050   32.4190  -12.3080 C.ar      1 HBM         0.0482
      5 C11        10.2440   32.8290  -13.6510 C.ar      1 HBM        -0.0434
      6 C1         11.6220   31.4910   -7.8370 C.ar      1 HBM         0.0371
      7 C3         13.4520   33.2390   -7.5920 C.ar      1 HBM        -0.0385
      8 C5         12.1250   33.2380   -9.7060 C.ar      1 HBM         0.1202
      9 N7         10.4250   31.6800  -10.0340 N.2       1 HBM        -0.3041
     10 C8         10.5100   32.5030  -11.1550 C.2       1 HBM         0.1407
     11 N9         11.5430   33.4580  -10.9700 N.pl3     1 HBM        -0.2499
     12 C12         9.4860   32.7690  -14.8500 C.ar      1 HBM        -0.0427
     13 C13         8.0970   32.2880  -14.8260 C.ar      1 HBM         0.0452
     14 C14         7.4720   31.8630  -13.5890 C.ar      1 HBM        -0.0288
     15 C15         8.2090   31.9120  -12.3580 C.ar      1 HBM         0.0589
     16 CL16        7.2040   32.2260  -16.2910 Cl        1 HBM        -0.0667
     17 CL17        7.3180   31.3670  -10.9620 Cl        1 HBM        -0.0649
     18 C18        10.9130   30.3350   -7.2080 C.2       1 HBM         0.1894
     19 N19         9.8420   29.6890   -7.9300 N.am      1 HBM        -0.2876
     20 C20         9.6050   28.2410   -7.8410 C.3       1 HBM         0.0373
     21 C21         9.4320   27.6960   -9.2830 C.3       1 HBM        -0.0068
     22 C22         8.1030   26.9260   -9.6250 C.ar      1 HBM        -0.0576
     23 C23         6.8750   27.6250  -10.1620 C.ar      1 HBM        -0.0755
     24 C24         5.6430   26.8880  -10.4740 C.ar      1 HBM        -0.0516
     25 C25         5.5840   25.4040  -10.2620 C.ar      1 HBM         0.0553
     26 C26         6.7870   24.7100   -9.7370 C.ar      1 HBM        -0.0516
     27 C27         8.0040   25.4460   -9.4290 C.ar      1 HBM        -0.0755
     28 N28         4.4120   24.6440  -10.5450 N.am      1 HBM        -0.1957
     29 S29         4.3310   23.8470  -12.0890 S.o2      1 HBM         0.0560
     30 C30         2.5700   23.7350  -12.6020 C.3       1 HBM         0.0785
     31 O31         4.9510   24.6940  -13.0950 O.2       1 HBM        -0.1504
     32 O32         4.7690   22.4350  -11.9830 O.2       1 HBM        -0.1504
     33 O33        11.3030   30.0020   -6.0710 O.2       1 HBM        -0.3942
     34 O34        14.0370   34.8510   -9.1310 O.3       1 HBM        -0.3318
     35 H1         12.9373   31.7301   -6.1092 H         1 HBM         0.0558
     36 H2         11.2649   33.1892  -13.7064 H         1 HBM         0.0663
     37 H3         14.2393   33.6628   -6.9791 H         1 HBM         0.0473
     38 H4         11.8196   34.1864  -11.6436 H         1 HBM         0.2292
     39 H5          9.9335   33.0792  -15.7873 H         1 HBM         0.0634
     40 H6          6.4478   31.5081  -13.5935 H         1 HBM         0.0639
     41 H7          9.2434   30.2436   -8.5081 H         1 HBM         0.1839
     42 H8          8.6937   28.0468   -7.2564 H         1 HBM         0.0538
     43 H9         10.4626   27.7511   -7.3569 H         1 HBM         0.0538
     44 H10        10.2681   27.0076   -9.4755 H         1 HBM         0.0414
     45 H11         9.4986   28.5543   -9.9677 H         1 HBM         0.0414
     46 H12         6.9041   28.6969  -10.3209 H         1 HBM         0.0515
     47 H13         4.7773   27.4161  -10.8571 H         1 HBM         0.0466
     48 H14         6.7583   23.6377   -9.5806 H         1 HBM         0.0466
     49 H15         8.8631   24.9067   -9.0467 H         1 HBM         0.0515
     50 H16         3.6663   24.5718   -9.8826 H         1 HBM         0.2132
     51 H17         2.5038   23.2324  -13.5782 H         1 HBM         0.0487
     52 H18         2.1460   24.7469  -12.6811 H         1 HBM         0.0487
     53 H19         2.0061   23.1586  -11.8539 H         1 HBM         0.0487
     54 H20        14.6153   34.9636   -8.3858 H         1 HBM         0.2481
@<TRIPOS>BOND
     1    6    1 ar 
     2    1    7 ar 
     3    2    7 ar 
     4    8    2 ar 
     5    2   34 1  
     6    3    6 ar 
     7    3    8 ar 
     8    9    3 1  
     9    4    5 ar 
    10   10    4 1  
    11    4   15 ar 
    12    5   12 ar 
    13    6   18 1  
    14    8   11 1  
    15    9   10 2  
    16   10   11 1  
    17   12   13 ar 
    18   13   14 ar 
    19   13   16 1  
    20   14   15 ar 
    21   15   17 1  
    22   18   19 am 
    23   18   33 2  
    24   19   20 1  
    25   20   21 1  
    26   21   22 1  
    27   22   23 ar 
    28   22   27 ar 
    29   23   24 ar 
    30   24   25 ar 
    31   25   26 ar 
    32   25   28 1  
    33   26   27 ar 
    34   28   29 am 
    35   29   30 1  
    36   29   31 2  
    37   29   32 2  
    38    1   35 1  
    39    5   36 1  
    40    7   37 1  
    41   11   38 1  
    42   12   39 1  
    43   14   40 1  
    44   19   41 1  
    45   20   42 1  
    46   20   43 1  
    47   21   44 1  
    48   21   45 1  
    49   23   46 1  
    50   24   47 1  
    51   26   48 1  
    52   27   49 1  
    53   28   50 1  
    54   30   51 1  
    55   30   52 1  
    56   30   53 1  
    57   34   54 1  
@<TRIPOS>SUBSTRUCTURE
     1 HBM         1

