### 
### Created by X-TOOL on Mon Sep 10 21:12:55 2018
### 

@<TRIPOS>MOLECULE
2o63_ligand
   33    35     1     0     0
SMALL
GAST_HUCK


@<TRIPOS>ATOM
      1 C1         76.1760   33.0730   -1.5020 C.ar      1 MYC        -0.0094
      2 C2         75.6950   34.1640   -2.2140 C.ar      1 MYC         0.0929
      3 C3         75.5110   35.4250   -1.4930 C.ar      1 MYC         0.0812
      4 C4         75.8190   35.4800   -0.0670 C.ar      1 MYC         0.1205
      5 C5         76.2800   34.3540    0.5730 C.ar      1 MYC        -0.0055
      6 C6         76.4420   33.1690   -0.1350 C.ar      1 MYC         0.0766
      7 C9         75.0160   36.6390   -2.1640 C.2       1 MYC         0.1454
      8 C10        74.8600   37.8440   -1.3710 C.2       1 MYC         0.1598
      9 C11        75.1360   37.8380   -0.0590 C.2       1 MYC         0.1506
     10 C14        75.0120   39.0280    0.8590 C.ar      1 MYC        -0.0139
     11 C15        74.5230   40.2730    0.4350 C.ar      1 MYC        -0.0437
     12 C16        74.4470   41.3480    1.3250 C.ar      1 MYC         0.1081
     13 C17        74.8850   41.1750    2.7190 C.ar      1 MYC         0.1445
     14 C18        75.3830   39.8400    3.1330 C.ar      1 MYC         0.1081
     15 C19        75.4180   38.8170    2.1920 C.ar      1 MYC        -0.0437
     16 O12        75.6310   36.6410    0.6020 O.3       1 MYC        -0.2594
     17 O13        74.7690   36.6220   -3.3600 O.2       1 MYC        -0.4152
     18 O23        75.7850   39.6490    4.3880 O.3       1 MYC        -0.3401
     19 O24        74.8130   42.1920    3.5760 O.3       1 MYC        -0.3411
     20 O25        73.9940   42.5470    0.9600 O.3       1 MYC        -0.3401
     21 O27        74.4100   38.9180   -2.0100 O.3       1 MYC        -0.3399
     22 O29        76.8960   32.1090    0.5290 O.3       1 MYC        -0.3353
     23 O30        75.4130   34.1070   -3.5160 O.3       1 MYC        -0.3327
     24 H1         76.3473   32.1336   -2.0150 H         1 MYC         0.0396
     25 H2         76.5172   34.3904    1.6301 H         1 MYC         0.0393
     26 H3         74.2013   40.4022   -0.5921 H         1 MYC         0.0415
     27 H4         75.7656   37.8346    2.4905 H         1 MYC         0.0415
     28 H5         75.6870   40.4574    4.8772 H         1 MYC         0.2437
     29 H6         74.4724   42.9579    3.1289 H         1 MYC         0.2409
     30 H7         74.6768   43.1949    1.0888 H         1 MYC         0.2437
     31 H8         74.2801   38.7080   -2.9274 H         1 MYC         0.2421
     32 H9         76.9612   31.3695   -0.0638 H         1 MYC         0.2494
     33 H10        75.5824   33.2292   -3.8374 H         1 MYC         0.2504
@<TRIPOS>BOND
     1    1    2 ar 
     2    1    6 ar 
     3    2    3 ar 
     4    2   23 1  
     5    3    4 ar 
     6    3    7 1  
     7    4    5 ar 
     8    4   16 1  
     9    5    6 ar 
    10    6   22 1  
    11    7    8 1  
    12    7   17 2  
    13    8    9 2  
    14    8   21 1  
    15    9   10 1  
    16    9   16 1  
    17   10   11 ar 
    18   10   15 ar 
    19   11   12 ar 
    20   12   13 ar 
    21   12   20 1  
    22   13   14 ar 
    23   13   19 1  
    24   14   15 ar 
    25   14   18 1  
    26    1   24 1  
    27    5   25 1  
    28   11   26 1  
    29   15   27 1  
    30   18   28 1  
    31   19   29 1  
    32   20   30 1  
    33   21   31 1  
    34   22   32 1  
    35   23   33 1  
@<TRIPOS>SUBSTRUCTURE
     1 MYC         1

