### 
### Created by X-TOOL on Mon Sep 10 21:12:55 2018
### 

@<TRIPOS>MOLECULE
2o64_ligand
   33    35     1     0     0
SMALL
GAST_HUCK


@<TRIPOS>ATOM
      1 O20        74.0290   38.9190   -1.5840 O.2       1 MYU        -0.4189
      2 C11        74.3420   37.8600   -1.0440 C.2       1 MYU         0.1380
      3 C12        74.6040   36.6660   -1.8290 C.2       1 MYU         0.1537
      4 O19        74.5220   36.7960   -3.1630 O.3       1 MYU        -0.3443
      5 C10        74.4120   37.7750    0.4280 C.ar      1 MYU         0.0726
      6 C13        74.1450   38.9430    1.2880 C.ar      1 MYU         0.1211
      7 O21        73.8540   40.1350    0.7860 O.3       1 MYU        -0.3374
      8 C9         74.7510   36.4930    1.0510 C.ar      1 MYU         0.1107
      9 C16        74.8110   36.3470    2.4310 C.ar      1 MYU        -0.0119
     10 C15        74.5680   37.4190    3.2870 C.ar      1 MYU         0.1064
     11 O22        74.6230   37.2070    4.6040 O.3       1 MYU        -0.3388
     12 C14        74.2320   38.7670    2.7390 C.ar      1 MYU         0.1393
     13 O23        73.9910   39.8210    3.5090 O.3       1 MYU        -0.3476
     14 O8         74.9890   35.4310    0.2540 O.3       1 MYU        -0.2655
     15 C7         74.8940   35.5200   -1.1910 C.2       1 MYU         0.1533
     16 C6         75.2110   34.2050   -1.8280 C.2       1 MYU         0.0280
     17 C5         75.7170   33.2280   -0.9570 C.2       1 MYU        -0.0023
     18 C4         76.0520   31.9730   -1.4390 C.3       1 MYU         0.1640
     19 O17        76.5390   31.0080   -0.6750 O.3       1 MYU        -0.3543
     20 C3         75.8560   31.7120   -2.8510 C.2       1 MYU         0.1467
     21 O18        76.1860   30.5230   -3.2750 O.2       1 MYU        -0.4017
     22 C2         75.3380   32.6850   -3.6970 C.2       1 MYU        -0.0140
     23 C1         75.0140   33.9390   -3.1760 C.2       1 MYU        -0.0475
     24 H1         75.1522   37.4436   -3.4563 H         1 MYU         0.2398
     25 H2         73.7165   40.7513    1.4958 H         1 MYU         0.2460
     26 H3         75.0523   35.3774    2.8513 H         1 MYU         0.0372
     27 H4         74.4382   38.0184    5.0622 H         1 MYU         0.2456
     28 H5         73.7990   40.5739    2.9623 H         1 MYU         0.2368
     29 H6         75.8466   33.4567    0.0998 H         1 MYU         0.0910
     30 H7         77.0757   32.3258   -1.6328 H         1 MYU         0.1079
     31 H8         76.6979   30.2358   -1.2050 H         1 MYU         0.2187
     32 H9         75.1865   32.4718   -4.7541 H         1 MYU         0.0548
     33 H10        74.6060   34.7098   -3.8282 H         1 MYU         0.0728
@<TRIPOS>BOND
     1    1    2 2  
     2    2    3 1  
     3    2    5 1  
     4    3    4 1  
     5    3   15 2  
     6    5    6 ar 
     7    5    8 ar 
     8    6    7 1  
     9    6   12 ar 
    10    8    9 ar 
    11    8   14 1  
    12    9   10 ar 
    13   10   11 1  
    14   10   12 ar 
    15   12   13 1  
    16   14   15 1  
    17   15   16 1  
    18   16   17 2  
    19   16   23 1  
    20   17   18 1  
    21   18   19 1  
    22   18   20 1  
    23   20   21 2  
    24   20   22 1  
    25   22   23 2  
    26    4   24 1  
    27    7   25 1  
    28    9   26 1  
    29   11   27 1  
    30   13   28 1  
    31   17   29 1  
    32   18   30 1  
    33   19   31 1  
    34   22   32 1  
    35   23   33 1  
@<TRIPOS>SUBSTRUCTURE
     1 MYU         1

