### 
### Created by X-TOOL on Mon Sep 10 21:12:56 2018
### 

@<TRIPOS>MOLECULE
2o65_ligand
   32    34     1     0     0
SMALL
GAST_HUCK


@<TRIPOS>ATOM
      1 O22        75.0050   36.1570   -2.5710 O.2       1 MYF        -0.4275
      2 C7         75.3120   35.7230   -1.4820 C.2       1 MYF         0.0970
      3 C6         75.7840   34.3130   -1.2840 C.ar      1 MYF         0.0768
      4 C1         75.9250   33.2870   -2.3650 C.ar      1 MYF         0.0935
      5 O21        75.6350   33.5700   -3.6340 O.3       1 MYF        -0.3326
      6 C2         76.3860   32.0010   -2.0430 C.ar      1 MYF        -0.0086
      7 C3         76.7080   31.6640   -0.7210 C.ar      1 MYF         0.0775
      8 O20        77.1320   30.4420   -0.4210 O.3       1 MYF        -0.3351
      9 C5         76.1510   33.9010    0.0940 C.ar      1 MYF         0.1290
     10 C4         76.5820   32.5810    0.3250 C.ar      1 MYF        -0.0033
     11 O10        76.0520   34.8120    1.1300 O.3       1 MYF        -0.2436
     12 C9         75.6070   36.1690    0.8810 C.2       1 MYF         0.1304
     13 C8         75.2280   36.6180   -0.3290 C.2       1 MYF         0.0022
     14 C11        75.4620   37.0190    2.0780 C.ar      1 MYF         0.0034
     15 C12        75.2920   38.3970    1.9260 C.ar      1 MYF        -0.0343
     16 C13        75.0920   39.2130    3.0380 C.ar      1 MYF         0.1148
     17 O19        74.9690   40.5250    2.8320 O.3       1 MYF        -0.3386
     18 C14        75.0260   38.5970    4.4060 C.ar      1 MYF         0.1514
     19 O18        74.8330   39.3720    5.4760 O.3       1 MYF        -0.3368
     20 C15        75.1680   37.1020    4.5140 C.ar      1 MYF         0.1148
     21 C16        75.3740   36.3740    3.3270 C.ar      1 MYF        -0.0343
     22 O17        75.0910   36.4740    5.7040 O.3       1 MYF        -0.3386
     23 H1         75.7846   32.8007   -4.1710 H         1 MYF         0.2503
     24 H2         76.4943   31.2594   -2.8262 H         1 MYF         0.0403
     25 H3         77.3031   30.3875    0.5119 H         1 MYF         0.2494
     26 H4         76.8210   32.2698    1.3355 H         1 MYF         0.0401
     27 H5         74.8626   37.6369   -0.4485 H         1 MYF         0.0375
     28 H6         75.3158   38.8354    0.9349 H         1 MYF         0.0471
     29 H7         74.8381   40.9642    3.6641 H         1 MYF         0.2438
     30 H8         74.8164   38.8323    6.2577 H         1 MYF         0.2432
     31 H9         75.4668   35.2950    3.3751 H         1 MYF         0.0471
     32 H10        74.9508   37.1152    6.3907 H         1 MYF         0.2438
@<TRIPOS>BOND
     1    1    2 2  
     2    2    3 1  
     3    2   13 1  
     4    3    4 ar 
     5    3    9 ar 
     6    4    5 1  
     7    4    6 ar 
     8    6    7 ar 
     9    7    8 1  
    10    7   10 ar 
    11    9   10 ar 
    12    9   11 1  
    13   11   12 1  
    14   12   13 2  
    15   12   14 1  
    16   14   15 ar 
    17   14   21 ar 
    18   15   16 ar 
    19   16   17 1  
    20   16   18 ar 
    21   18   19 1  
    22   18   20 ar 
    23   20   21 ar 
    24   20   22 1  
    25    5   23 1  
    26    6   24 1  
    27    8   25 1  
    28   10   26 1  
    29   13   27 1  
    30   15   28 1  
    31   17   29 1  
    32   19   30 1  
    33   21   31 1  
    34   22   32 1  
@<TRIPOS>SUBSTRUCTURE
     1 MYF         1

