### 
### Created by X-TOOL on Mon Sep 10 21:12:56 2018
### 

@<TRIPOS>MOLECULE
2o7n_ligand
   43    46     1     0     0
SMALL
GAST_HUCK


@<TRIPOS>ATOM
      1 C1          2.6560   22.3970   -5.0690 C.3       1 2O7         0.0593
      2 C3          2.4160   24.6610   -4.1060 C.3       1 2O7         0.0215
      3 C9          1.7200   22.2900   -3.8330 C.3       1 2O7        -0.0597
      4 C12         4.6110   23.6630   -4.7870 C.2       1 2O7         0.2603
      5 C13         5.0190   22.2440   -5.0240 C.2       1 2O7         0.1367
      6 C14         3.8850   21.4920   -5.1600 C.2       1 2O7         0.1017
      7 C15         3.7380   20.0630   -5.4340 C.1       1 2O7         0.0879
      8 C20         8.2650   20.1940   -4.7320 C.ar      1 2O7         0.0661
      9 C21         9.2110   21.0660   -5.2660 C.ar      1 2O7        -0.0111
     10 C24         7.4210   22.7220   -5.5970 C.ar      1 2O7        -0.0057
     11 O28         5.3100   24.6610   -4.6190 O.2       1 2O7        -0.3447
     12 C32         2.5690   22.8080   -7.6320 C.ar      1 2O7        -0.0433
     13 C33         2.9740   21.7810   -8.5120 C.ar      1 2O7        -0.0497
     14 C35         3.7930   22.0650   -9.6150 C.ar      1 2O7        -0.0335
     15 N2          3.2760   23.6800   -4.7630 N.am      1 2O7        -0.2992
     16 C6          1.3500   23.7530   -3.4600 C.3       1 2O7        -0.0421
     17 N16         3.6880   18.9300   -5.6500 N.1       1 2O7        -0.3366
     18 C17         6.4690   21.8290   -5.0710 C.ar      1 2O7         0.0623
     19 C18         6.9220   20.5680   -4.6080 C.ar      1 2O7        -0.0057
     20 C23         8.7590   22.3250   -5.6680 C.ar      1 2O7         0.0661
     21 CL26        9.9290   23.4200   -6.2600 Cl        1 2O7        -0.0641
     22 CL27        8.7640   18.6380   -4.2650 Cl        1 2O7        -0.0641
     23 C29         1.8050   22.4820   -6.3700 C.3       1 2O7        -0.0249
     24 C37         4.1860   23.3850   -9.8540 C.ar      1 2O7         0.0883
     25 C38         3.7500   24.4310   -9.0320 C.ar      1 2O7        -0.0335
     26 C40         2.9310   24.1320   -7.9350 C.ar      1 2O7        -0.0497
     27 C42         5.0290   23.6920  -10.9630 C.1       1 2O7         0.0934
     28 N43         5.6800   23.9470  -11.8880 N.1       1 2O7        -0.3338
     29 H1          1.9668   25.3527   -4.8338 H         1 2O7         0.0511
     30 H2          2.9681   25.2349   -3.3471 H         1 2O7         0.0511
     31 H3          2.2421   21.8012   -2.9973 H         1 2O7         0.0149
     32 H4          0.8151   21.7176   -4.0851 H         1 2O7         0.0149
     33 H5         10.2519   20.7801   -5.3652 H         1 2O7         0.0821
     34 H6          7.1205   23.7046   -5.9424 H         1 2O7         0.0831
     35 H7          2.6488   20.7625   -8.3335 H         1 2O7         0.0583
     36 H8          4.1178   21.2689  -10.2752 H         1 2O7         0.0701
     37 H9          0.3526   24.0027   -3.8510 H         1 2O7         0.0274
     38 H10         1.3575   23.8785   -2.3672 H         1 2O7         0.0274
     39 H11         6.2173   19.8828   -4.1508 H         1 2O7         0.0831
     40 H12         1.0430   23.2620   -6.2252 H         1 2O7         0.0328
     41 H13         1.3115   21.5097   -6.5153 H         1 2O7         0.0328
     42 H14         4.0409   25.4542   -9.2405 H         1 2O7         0.0701
     43 H15         2.5692   24.9382   -7.3072 H         1 2O7         0.0583
@<TRIPOS>BOND
     1    1    3 1  
     2    1    6 1  
     3    1   15 1  
     4   23    1 1  
     5   15    2 1  
     6    2   16 1  
     7    3   16 1  
     8    4    5 1  
     9    4   11 2  
    10   15    4 am 
    11    6    5 2  
    12    5   18 1  
    13    6    7 1  
    14    7   17 3  
    15    9    8 ar 
    16    8   19 ar 
    17    8   22 1  
    18   20    9 ar 
    19   18   10 ar 
    20   10   20 ar 
    21   12   13 ar 
    22   12   23 1  
    23   12   26 ar 
    24   13   14 ar 
    25   14   24 ar 
    26   18   19 ar 
    27   20   21 1  
    28   24   25 ar 
    29   24   27 1  
    30   25   26 ar 
    31   27   28 3  
    32    2   29 1  
    33    2   30 1  
    34    3   31 1  
    35    3   32 1  
    36    9   33 1  
    37   10   34 1  
    38   13   35 1  
    39   14   36 1  
    40   16   37 1  
    41   16   38 1  
    42   19   39 1  
    43   23   40 1  
    44   23   41 1  
    45   25   42 1  
    46   26   43 1  
@<TRIPOS>SUBSTRUCTURE
     1 2O7         1

