### 
### Created by X-TOOL on Mon Sep 10 21:12:55 2018
### 

@<TRIPOS>MOLECULE
2o7v_ligand
   19    18     1     0     0
SMALL
GAST_HUCK


@<TRIPOS>ATOM
      1 C1         55.9820   34.2500   23.6260 C.3       1 DEP         0.0892
      2 C2         55.9860   33.8070   22.1680 C.3       1 DEP        -0.0350
      3 C3         55.5860   35.2920   27.2180 C.3       1 DEP         0.0892
      4 C4         55.8880   35.8430   28.6030 C.3       1 DEP        -0.0350
      5 O1         56.3280   35.6300   23.6780 O.3       1 DEP        -0.2355
      6 O2         56.4450   35.8590   26.2040 O.3       1 DEP        -0.2355
      7 O3         54.3870   37.0800   24.8560 O.2       1 DEP        -0.5370
      8 P          55.9230   36.5990   24.8730 P.3       1 DEP         0.2600
      9 H1         56.7166   33.6613   24.1950 H         1 DEP         0.0635
     10 H2         54.9806   34.1018   24.0565 H         1 DEP         0.0635
     11 H3         55.7204   32.7412   22.1079 H         1 DEP         0.0257
     12 H4         56.9882   33.9597   21.7411 H         1 DEP         0.0257
     13 H5         55.2523   34.4002   21.6025 H         1 DEP         0.0257
     14 H6         54.5405   35.5227   26.9655 H         1 DEP         0.0635
     15 H7         55.7277   34.2013   27.2324 H         1 DEP         0.0635
     16 H8         55.2102   35.3822   29.3367 H         1 DEP         0.0257
     17 H9         55.7425   36.9333   28.6036 H         1 DEP         0.0257
     18 H10        56.9297   35.6119   28.8705 H         1 DEP         0.0257
     19 H11        56.4643   37.4436   24.7745 H         1 DEP         0.2319
@<TRIPOS>BOND
     1    1    2 1  
     2    5    1 1  
     3    3    4 1  
     4    6    3 1  
     5    8    5 1  
     6    6    8 1  
     7    8    7 2  
     8    1    9 1  
     9    1   10 1  
    10    2   11 1  
    11    2   12 1  
    12    2   13 1  
    13    3   14 1  
    14    3   15 1  
    15    4   16 1  
    16    4   17 1  
    17    4   18 1  
    18    8   19 1  
@<TRIPOS>SUBSTRUCTURE
     1 DEP         1

