### 
### Created by X-TOOL on Mon Sep 10 21:12:56 2018
### 

@<TRIPOS>MOLECULE
2o8h_ligand
   64    68     1     0     0
SMALL
GAST_HUCK


@<TRIPOS>ATOM
      1 C34         7.9370   24.8170   36.6220 C.3       1 227        -0.0430
      2 C32        10.0700   25.2340   37.6230 C.3       1 227        -0.0146
      3 C4         11.7740   18.4970   42.2000 C.ar      1 227        -0.0173
      4 C7         13.4500   16.8530   43.7390 C.ar      1 227        -0.0169
      5 C9         12.3590   17.3890   41.6300 C.ar      1 227         0.1319
      6 C13        13.2160   16.5530   42.3880 C.ar      1 227         0.1323
      7 C20        11.3610   23.7230   43.5990 C.ar      1 227        -0.0351
      8 C21        14.8840   14.7580   42.3200 C.3       1 227         0.0601
      9 N5         10.5660   20.9420   43.5530 N.pl3     1 227        -0.2699
     10 C18        11.2250   17.8680   39.4860 C.3       1 227         0.0583
     11 C16        10.6320   23.1240   44.7710 C.3       1 227         0.0000
     12 O17        13.7850   15.4800   41.7600 O.3       1 227        -0.3161
     13 C19        12.2080   23.6100   41.3490 C.ar      1 227         0.1052
     14 O26        12.4920   21.4350   39.6100 O.2       1 227        -0.1513
     15 S22        12.4840   22.8520   39.6820 S.o2      1 227         0.0669
     16 O27        13.7330   23.3480   39.3350 O.2       1 227        -0.1513
     17 N25        11.1980   23.3940   38.6640 N.am      1 227        -0.2249
     18 C30        11.0460   24.8610   38.7410 C.3       1 227         0.0697
     19 N33         8.7950   24.5290   37.7880 N.4       1 227         0.2354
     20 C31         8.9060   23.0660   37.9220 C.3       1 227        -0.0146
     21 C29         9.9460   22.6980   38.9680 C.3       1 227         0.0697
     22 C23        12.7040   24.9180   41.4800 C.ar      1 227        -0.0488
     23 C28        12.5330   25.6060   42.6850 C.ar      1 227        -0.0737
     24 C15        11.5320   23.0100   42.4030 C.ar      1 227         0.0087
     25 C10        10.9920   21.5980   42.2850 C.3       1 227         0.0683
     26 C24        11.8650   25.0050   43.7310 C.ar      1 227        -0.0666
     27 C11         9.7830   21.9110   44.3290 C.3       1 227         0.0456
     28 C2         11.4040   19.9570   44.1840 C.ar      1 227         0.1360
     29 C1         11.9990   18.8290   43.5440 C.ar      1 227         0.0364
     30 N6         11.6700   20.1390   45.4930 N.ar      1 227        -0.2636
     31 C12        12.3340   19.1900   46.1840 C.ar      1 227         0.0518
     32 N8         13.0480   18.2310   45.5780 N.ar      1 227        -0.3059
     33 C3         12.8380   17.9650   44.2980 C.ar      1 227         0.0260
     34 O14        12.1550   17.1180   40.3110 O.3       1 227        -0.3199
     35 H1          7.8379   25.9057   36.4997 H         1 227         0.0778
     36 H2          6.9427   24.3738   36.7799 H         1 227         0.0778
     37 H3          8.3910   24.3863   35.7174 H         1 227         0.0778
     38 H4         10.5107   24.9598   36.6532 H         1 227         0.0830
     39 H5          9.8884   26.3186   37.6498 H         1 227         0.0830
     40 H6         11.1269   19.1251   41.5985 H         1 227         0.0549
     41 H7         14.0999   16.2245   44.3371 H         1 227         0.0496
     42 H8         15.1704   13.9414   41.6409 H         1 227         0.0579
     43 H9         14.5896   14.3390   43.2935 H         1 227         0.0579
     44 H10        15.7379   15.4378   42.4565 H         1 227         0.0579
     45 H11        11.2352   17.4647   38.4626 H         1 227         0.0575
     46 H12        11.5239   18.9264   39.4659 H         1 227         0.0575
     47 H13        10.2114   17.7811   39.9043 H         1 227         0.0575
     48 H14         9.9712   23.8850   45.2116 H         1 227         0.0432
     49 H15        11.3655   22.7959   45.5222 H         1 227         0.0432
     50 H16        10.6383   25.1537   39.7198 H         1 227         0.0531
     51 H17        12.0158   25.3560   38.5848 H         1 227         0.0531
     52 H18         8.3522   24.8843   38.6209 H         1 227         0.2032
     53 H19         9.2009   22.6363   36.9533 H         1 227         0.0830
     54 H20         7.9307   22.6562   38.2233 H         1 227         0.0830
     55 H21         9.5894   22.9994   39.9640 H         1 227         0.0531
     56 H22        10.1155   21.6113   38.9525 H         1 227         0.0531
     57 H23        13.2169   25.3915   40.6506 H         1 227         0.0561
     58 H24        12.9250   26.6104   42.7969 H         1 227         0.0542
     59 H25        10.1202   21.6284   41.6149 H         1 227         0.0683
     60 H26        11.7792   20.9756   41.8346 H         1 227         0.0683
     61 H27        11.7337   25.5410   44.6640 H         1 227         0.0537
     62 H28         9.3865   21.4105   45.2247 H         1 227         0.0556
     63 H29         8.9479   22.2696   43.7093 H         1 227         0.0556
     64 H30        12.2887   19.2033   47.2670 H         1 227         0.1016
@<TRIPOS>BOND
     1   19    1 1  
     2   18    2 1  
     3    2   19 1  
     4    3    5 ar 
     5   29    3 ar 
     6    6    4 ar 
     7    4   33 ar 
     8    5    6 ar 
     9    5   34 1  
    10    6   12 1  
    11   11    7 1  
    12   24    7 ar 
    13    7   26 ar 
    14   12    8 1  
    15    9   25 1  
    16    9   27 1  
    17   28    9 1  
    18   34   10 1  
    19   27   11 1  
    20   13   15 1  
    21   13   22 ar 
    22   24   13 ar 
    23   15   14 2  
    24   15   16 2  
    25   15   17 am 
    26   17   18 1  
    27   17   21 1  
    28   20   19 1  
    29   21   20 1  
    30   22   23 ar 
    31   26   23 ar 
    32   25   24 1  
    33   28   29 ar 
    34   28   30 ar 
    35   29   33 ar 
    36   30   31 ar 
    37   31   32 ar 
    38   32   33 ar 
    39    1   35 1  
    40    1   36 1  
    41    1   37 1  
    42    2   38 1  
    43    2   39 1  
    44    3   40 1  
    45    4   41 1  
    46    8   42 1  
    47    8   43 1  
    48    8   44 1  
    49   10   45 1  
    50   10   46 1  
    51   10   47 1  
    52   11   48 1  
    53   11   49 1  
    54   18   50 1  
    55   18   51 1  
    56   19   52 1  
    57   20   53 1  
    58   20   54 1  
    59   21   55 1  
    60   21   56 1  
    61   22   57 1  
    62   23   58 1  
    63   25   59 1  
    64   25   60 1  
    65   26   61 1  
    66   27   62 1  
    67   27   63 1  
    68   31   64 1  
@<TRIPOS>SUBSTRUCTURE
     1 227         1

