### 
### Created by X-TOOL on Mon Sep 10 21:12:55 2018
### 

@<TRIPOS>MOLECULE
2o9a_ligand
   11    10     1     0     0
SMALL
GAST_HUCK


@<TRIPOS>ATOM
      1 C1          8.9790    0.6400  -34.5600 C.2       1 PYR         0.0630
      2 O1          9.6820    1.2200  -35.3980 O.co2     1 PYR        -0.5664
      3 O2          8.4970   -0.4880  -34.7690 O.co2     1 PYR        -0.5664
      4 C2          8.6510    1.3680  -33.2560 C.3       1 PYR         0.1045
      5 O3          9.4630    2.5480  -33.1830 O.3       1 PYR        -0.3780
      6 C3          7.1270    1.5910  -33.0110 C.3       1 PYR        -0.0269
      7 H1          8.9824    0.7118  -32.4377 H         1 PYR         0.0760
      8 H2          9.2716    3.0134  -32.3773 H         1 PYR         0.2123
      9 H3          6.9824    2.1183  -32.0565 H         1 PYR         0.0272
     10 H4          6.6154    0.6180  -32.9735 H         1 PYR         0.0272
     11 H5          6.7083    2.1941  -33.8301 H         1 PYR         0.0272
@<TRIPOS>BOND
     1    1    2 ar 
     2    1    3 ar 
     3    1    4 1  
     4    4    5 1  
     5    4    6 1  
     6    4    7 1  
     7    5    8 1  
     8    6    9 1  
     9    6   10 1  
    10    6   11 1  
@<TRIPOS>SUBSTRUCTURE
     1 PYR         1

