### 
### Created by X-TOOL on Mon Sep 10 21:12:56 2018
### 

@<TRIPOS>MOLECULE
2o9i_ligand
   43    44     1     0     0
SMALL
GAST_HUCK


@<TRIPOS>ATOM
      1 O13        12.8080   33.8760   28.4650 O.2       1 444        -0.1412
      2 S12        12.5550   33.3080   26.9880 S.o2      1 444         0.1037
      3 O14        11.4650   32.1610   27.1920 O.2       1 444        -0.1412
      4 C01        13.9900   32.3060   26.5190 C.ar      1 444         0.1176
      5 C02        15.1260   32.1970   27.5130 C.ar      1 444        -0.0342
      6 C03        16.3220   31.3860   27.1480 C.ar      1 444        -0.0599
      7 C04        16.4020   30.6870   25.8280 C.ar      1 444        -0.0616
      8 C05        15.2730   30.8070   24.8650 C.ar      1 444        -0.0599
      9 C06        14.0820   31.6030   25.2020 C.ar      1 444        -0.0342
     10 N15        11.9680   34.4560   26.0260 N.am      1 444        -0.1349
     11 C16        13.1230   35.4660   25.9290 C.3       1 444         0.1652
     12 C19        12.9530   36.8720   25.3390 C.3       1 444         0.4159
     13 F22        13.0530   36.8670   23.9860 F         1 444        -0.1679
     14 F21        11.7370   37.3950   25.6850 F         1 444        -0.1679
     15 F20        13.9420   37.6860   25.8220 F         1 444        -0.1679
     16 C23        11.3140   33.9480   24.6150 C.ar      1 444         0.1131
     17 C24        12.2500   33.9830   23.3950 C.ar      1 444        -0.0071
     18 C25        11.7860   33.5630   22.1160 C.ar      1 444        -0.0506
     19 C28         9.9330   33.4640   24.4170 C.ar      1 444        -0.0071
     20 C27         9.4670   33.0410   23.1290 C.ar      1 444        -0.0506
     21 C26        10.3710   33.0660   21.9110 C.ar      1 444        -0.0342
     22 C33         9.8800   32.6010   20.4090 C.3       1 444         0.2176
     23 C34        10.5510   31.3130   19.8060 C.3       1 444         0.3869
     24 F36         9.9770   30.8770   18.6860 F         1 444        -0.1800
     25 F37        11.8390   31.5590   19.5350 F         1 444        -0.1800
     26 F35        10.5240   30.3090   20.7280 F         1 444        -0.1800
     27 O42         8.4950   32.2430   20.6560 O.3       1 444        -0.4296
     28 C38         9.8180   33.8640   19.4420 C.3       1 444         0.3869
     29 F39         9.1380   33.6680   18.3220 F         1 444        -0.1800
     30 F40         9.2130   34.9250   20.0400 F         1 444        -0.1800
     31 F41        11.0310   34.3370   19.1070 F         1 444        -0.1800
     32 H1         15.0709   32.6992   28.4721 H         1 444         0.0637
     33 H2         17.1449   31.3016   27.8485 H         1 444         0.0618
     34 H3         17.2756   30.0974   25.5744 H         1 444         0.0618
     35 H4         15.3288   30.3034   23.9067 H         1 444         0.0618
     36 H5         13.2668   31.6803   24.4917 H         1 444         0.0637
     37 H6         13.9041   34.9772   25.3283 H         1 444         0.0688
     38 H7         13.4873   35.6102   26.9568 H         1 444         0.0688
     39 H8         13.2705   34.3300   23.5097 H         1 444         0.0617
     40 H9         12.4619   33.6000   21.2693 H         1 444         0.0796
     41 H10         9.2571   33.4278   25.2637 H         1 444         0.0617
     42 H11         8.4451   32.6953   23.0229 H         1 444         0.0796
     43 H12         8.0368   32.9896   21.0238 H         1 444         0.1901
@<TRIPOS>BOND
     1    1    2 2  
     2    2    3 2  
     3    2    4 1  
     4    2   10 am 
     5    4    5 ar 
     6    4    9 ar 
     7    5    6 ar 
     8    6    7 ar 
     9    7    8 ar 
    10    8    9 ar 
    11   10   11 1  
    12   10   16 1  
    13   11   12 1  
    14   12   13 1  
    15   12   14 1  
    16   12   15 1  
    17   16   17 ar 
    18   16   19 ar 
    19   17   18 ar 
    20   18   21 ar 
    21   19   20 ar 
    22   20   21 ar 
    23   21   22 1  
    24   22   23 1  
    25   22   27 1  
    26   22   28 1  
    27   23   24 1  
    28   23   25 1  
    29   23   26 1  
    30   28   29 1  
    31   28   30 1  
    32   28   31 1  
    33    5   32 1  
    34    6   33 1  
    35    7   34 1  
    36    8   35 1  
    37    9   36 1  
    38   11   37 1  
    39   11   38 1  
    40   17   39 1  
    41   18   40 1  
    42   19   41 1  
    43   20   42 1  
    44   27   43 1  
@<TRIPOS>SUBSTRUCTURE
     1 444         1

