### 
### Created by X-TOOL on Mon Sep 10 21:12:56 2018
### 

@<TRIPOS>MOLECULE
2o9j_ligand
   45    49     1     0     0
SMALL
GAST_HUCK


@<TRIPOS>ATOM
      1 O2         34.3080   10.5230   13.5530 O.2       1 CZA        -0.4174
      2 C6         34.1590   11.0130   12.3680 C.2       1 CZA         0.1190
      3 C3         35.3190   11.0730   11.4340 C.2       1 CZA         0.1016
      4 C2         36.7090   10.5750   11.5980 C.2       1 CZA         0.0873
      5 O1         37.3290   10.8380   12.6200 O.2       1 CZA        -0.4204
      6 C1         37.2650    9.7640   10.4590 C.3       1 CZA        -0.0020
      7 C5         32.8760   11.6320   11.9390 C.3       1 CZA         0.1219
      8 C7         31.6820   10.8670   11.3810 C.3       1 CZA         0.0213
      9 C15        30.6420   10.6740   12.4150 C.2       1 CZA        -0.0409
     10 C16        30.6670    9.7980   13.4810 C.2       1 CZA         0.0139
     11 N2         29.4760   10.0310   14.1100 N.pl3     1 CZA        -0.2922
     12 C17        28.7670   10.9960   13.4650 C.ar      1 CZA         0.0540
     13 C14        29.5080   11.4140   12.3760 C.ar      1 CZA        -0.0169
     14 C18        27.5280   11.6010   13.6730 C.ar      1 CZA        -0.0521
     15 C19        27.0780   12.5930   12.7910 C.ar      1 CZA        -0.0846
     16 C20        27.8540   12.9910   11.6990 C.ar      1 CZA        -0.0778
     17 C13        29.0880   12.3800   11.5010 C.ar      1 CZA        -0.0528
     18 C12        30.0140   12.7220   10.3610 C.3       1 CZA        -0.0160
     19 C8         31.2120   11.7620   10.1930 C.3       1 CZA         0.0070
     20 C9         32.4140   12.6060    9.7530 C.3       1 CZA         0.0667
     21 C10        32.7250   12.3750    8.2780 C.3       1 CZA        -0.0368
     22 C11        32.1760   14.0820   10.0390 C.3       1 CZA        -0.0368
     23 N1         33.4400   12.0240   10.6320 N.pl3     1 CZA        -0.2287
     24 C4         34.6920   11.7380   10.2640 C.2       1 CZA         0.2164
     25 O3         35.3480   12.0640    8.9780 O.3       1 CZA        -0.2761
     26 H1         38.2935    9.4547   10.6969 H         1 CZA         0.0433
     27 H2         37.2678   10.3725    9.5427 H         1 CZA         0.0433
     28 H3         36.6403    8.8719   10.3048 H         1 CZA         0.0433
     29 H4         32.5521   12.4239   12.6303 H         1 CZA         0.0805
     30 H5         31.9946    9.8797   11.0102 H         1 CZA         0.0438
     31 H6         31.4483    9.0907   13.7553 H         1 CZA         0.0766
     32 H7         29.1581    9.5414   14.9586 H         1 CZA         0.2206
     33 H8         26.9138   11.3046   14.5156 H         1 CZA         0.0475
     34 H9         26.1135   13.0585   12.9584 H         1 CZA         0.0512
     35 H10        27.5018   13.7596   11.0206 H         1 CZA         0.0436
     36 H11        30.4078   13.7349   10.5314 H         1 CZA         0.0428
     37 H12        29.4300   12.7076    9.4289 H         1 CZA         0.0428
     38 H13        30.9426   11.0741    9.3781 H         1 CZA         0.0369
     39 H14        33.5891   12.9894    7.9849 H         1 CZA         0.0256
     40 H15        31.8521   12.6565    7.6707 H         1 CZA         0.0256
     41 H16        32.9582   11.3125    8.1144 H         1 CZA         0.0256
     42 H17        31.9546   14.2173   11.1080 H         1 CZA         0.0256
     43 H18        31.3250   14.4390    9.4403 H         1 CZA         0.0256
     44 H19        33.0763   14.6564    9.7755 H         1 CZA         0.0256
     45 H20        35.3522   13.0061    8.8558 H         1 CZA         0.2725
@<TRIPOS>BOND
     1    1    2 2  
     2    2    3 1  
     3    2    7 1  
     4    3    4 1  
     5    3   24 2  
     6    4    5 2  
     7    4    6 1  
     8    7    8 1  
     9    7   23 1  
    10    8    9 1  
    11    8   19 1  
    12    9   10 2  
    13    9   13 1  
    14   10   11 1  
    15   11   12 1  
    16   12   13 ar 
    17   12   14 ar 
    18   13   17 ar 
    19   14   15 ar 
    20   15   16 ar 
    21   16   17 ar 
    22   17   18 1  
    23   18   19 1  
    24   19   20 1  
    25   20   21 1  
    26   20   22 1  
    27   20   23 1  
    28   23   24 1  
    29   24   25 1  
    30    6   26 1  
    31    6   27 1  
    32    6   28 1  
    33    7   29 1  
    34    8   30 1  
    35   10   31 1  
    36   11   32 1  
    37   14   33 1  
    38   15   34 1  
    39   16   35 1  
    40   18   36 1  
    41   18   37 1  
    42   19   38 1  
    43   21   39 1  
    44   21   40 1  
    45   21   41 1  
    46   22   42 1  
    47   22   43 1  
    48   22   44 1  
    49   25   45 1  
@<TRIPOS>SUBSTRUCTURE
     1 CZA         1

