### 
### Created by X-TOOL on Mon Sep 10 21:12:56 2018
### 

@<TRIPOS>MOLECULE
2o9r_ligand
   45    46     1     0     0
SMALL
GAST_HUCK


@<TRIPOS>ATOM
      1 C1         65.3670   28.9520   38.5140 C.3       1 TCB         0.1334
      2 C2         66.0880   30.2680   39.0630 C.3       1 TCB         0.1189
      3 C3         67.6750   30.1560   38.9440 C.3       1 TCB         0.1126
      4 C4         68.2380   28.7800   39.4850 C.3       1 TCB         0.1118
      5 C5         67.5450   27.6000   38.6620 C.3       1 TCB         0.1115
      6 C6         67.8930   26.1240   39.0250 C.3       1 TCB         0.0730
      7 O2         65.6530   31.3750   38.3430 O.3       1 TCB        -0.3857
      8 O3         68.2550   31.2380   39.6650 O.3       1 TCB        -0.3865
      9 O4         69.6200   28.7700   39.3640 O.3       1 TCB        -0.3865
     10 O5         66.1290   27.7370   38.9250 O.3       1 TCB        -0.3553
     11 O6         67.1440   25.6890   40.2130 O.3       1 TCB        -0.3924
     12 C1'        60.2370   26.6000   36.7610 C.3       1 TCB         0.1853
     13 C2'        61.0690   25.9140   37.9090 C.3       1 TCB         0.1325
     14 C3'        61.8200   27.0180   38.7870 C.3       1 TCB         0.1001
     15 C4'        62.7950   27.9300   37.8840 C.3       1 TCB         0.0646
     16 C5'        61.9080   28.5630   36.6980 C.3       1 TCB         0.0990
     17 C6'        62.7450   29.2890   35.5370 C.3       1 TCB         0.0716
     18 O1'        59.5640   25.5990   35.8840 O.3       1 TCB        -0.3649
     19 O2'        60.2040   25.0870   38.7500 O.3       1 TCB        -0.3842
     20 O3'        62.5060   26.1530   39.7970 O.3       1 TCB        -0.3879
     21 S4'        63.6250   29.3140   38.7590 S.3       1 TCB        -0.1184
     22 O5'        61.1670   27.4660   35.9550 O.3       1 TCB        -0.3422
     23 O6'        62.5100   28.7650   34.2000 O.3       1 TCB        -0.3924
     24 H1         65.4806   28.9443   37.4199 H         1 TCB         0.0740
     25 H2         65.8211   30.3997   40.1220 H         1 TCB         0.0655
     26 H3         67.9510   30.2441   37.8829 H         1 TCB         0.0647
     27 H4         67.9784   28.6708   40.5483 H         1 TCB         0.0647
     28 H5         67.7636   27.7510   37.5946 H         1 TCB         0.0646
     29 H6         68.9710   26.0474   39.2301 H         1 TCB         0.0584
     30 H7         67.6340   25.4732   38.1769 H         1 TCB         0.0584
     31 H8         66.0560   32.1594   38.6962 H         1 TCB         0.2100
     32 H9         67.9109   32.0589   39.3330 H         1 TCB         0.2100
     33 H10        69.9595   27.9453   39.6912 H         1 TCB         0.2100
     34 H11        66.2122   25.7508   40.0387 H         1 TCB         0.2095
     35 H12        59.4628   27.2342   37.2174 H         1 TCB         0.0935
     36 H13        61.8265   25.2637   37.4473 H         1 TCB         0.0670
     37 H14        61.0978   27.6813   39.2854 H         1 TCB         0.0633
     38 H15        63.5735   27.2798   37.4584 H         1 TCB         0.0465
     39 H16        61.1985   29.2766   37.1423 H         1 TCB         0.0632
     40 H17        63.8153   29.1779   35.7654 H         1 TCB         0.0583
     41 H18        62.4786   30.3562   35.5385 H         1 TCB         0.0583
     42 H19        58.9815   25.0615   36.4078 H         1 TCB         0.2126
     43 H20        60.7296   24.6503   39.4101 H         1 TCB         0.2101
     44 H21        62.9980   26.6996   40.3985 H         1 TCB         0.2099
     45 H22        61.5912   28.8632   33.9796 H         1 TCB         0.2095
@<TRIPOS>BOND
     1    1    2 1  
     2    1   10 1  
     3   21    1 1  
     4    2    3 1  
     5    2    7 1  
     6    3    4 1  
     7    3    8 1  
     8    5    4 1  
     9    4    9 1  
    10    5    6 1  
    11   10    5 1  
    12    6   11 1  
    13   13   12 1  
    14   12   18 1  
    15   12   22 1  
    16   14   13 1  
    17   13   19 1  
    18   15   14 1  
    19   14   20 1  
    20   15   16 1  
    21   15   21 1  
    22   16   17 1  
    23   16   22 1  
    24   17   23 1  
    25    1   24 1  
    26    2   25 1  
    27    3   26 1  
    28    4   27 1  
    29    5   28 1  
    30    6   29 1  
    31    6   30 1  
    32    7   31 1  
    33    8   32 1  
    34    9   33 1  
    35   11   34 1  
    36   12   35 1  
    37   13   36 1  
    38   14   37 1  
    39   15   38 1  
    40   16   39 1  
    41   17   40 1  
    42   17   41 1  
    43   18   42 1  
    44   19   43 1  
    45   20   44 1  
    46   23   45 1  
@<TRIPOS>SUBSTRUCTURE
     1 TCB         1

