### 
### Created by X-TOOL on Mon Sep 10 21:12:55 2018
### 

@<TRIPOS>MOLECULE
2o9v_ligand
  145   151     1     0     0
SMALL
GAST_HUCK


@<TRIPOS>ATOM
      1 N          21.1750    4.3420  -23.4990 N.4       1 VAL         0.2381
      2 CA         20.9900    2.8510  -23.5700 C.3       1 VAL         0.0675
      3 C          21.6120    2.2780  -22.3140 C.2       1 VAL         0.2295
      4 O          22.7210    2.6850  -21.9690 O.2       1 VAL        -0.3905
      5 CB         21.7220    2.2890  -24.8100 C.3       1 VAL         0.0139
      6 CG1        21.6230    0.7430  -24.8850 C.3       1 VAL        -0.0553
      7 CG2        21.1970    2.9360  -26.0940 C.3       1 VAL        -0.0553
      8 N          20.9280    1.3330  -21.6290 N.am      1 PRO        -0.2471
      9 CA         21.5360    0.6980  -20.4470 C.3       1 PRO         0.1341
     10 C          22.8050   -0.0890  -20.8380 C.2       1 PRO         0.2066
     11 O          22.7690   -0.8180  -21.8560 O.2       1 PRO        -0.3942
     12 CB         20.4520   -0.2590  -19.9600 C.3       1 PRO        -0.0104
     13 CG         19.2020    0.1100  -20.7190 C.3       1 PRO        -0.0281
     14 CD         19.5840    0.7850  -21.9610 C.3       1 PRO         0.0371
     15 N          23.9110    0.0620  -20.0620 N.am      1 PRO        -0.2498
     16 CA         25.1820   -0.6160  -20.3370 C.3       1 PRO         0.1340
     17 C          25.0270   -2.1340  -20.0910 C.2       1 PRO         0.2066
     18 O          24.1130   -2.5670  -19.4280 O.2       1 PRO        -0.3942
     19 CB         26.1400   -0.0300  -19.2890 C.3       1 PRO        -0.0104
     20 CG         25.2720    0.4150  -18.1970 C.3       1 PRO        -0.0281
     21 CD         23.9730    0.8560  -18.8190 C.3       1 PRO         0.0369
     22 N          25.9680   -2.9250  -20.6120 N.am      1 PRO        -0.2498
     23 CA         25.8770   -4.3780  -20.4220 C.3       1 PRO         0.1338
     24 C          26.0830   -4.6660  -18.9500 C.2       1 PRO         0.2041
     25 O          26.7760   -3.9040  -18.2530 O.2       1 PRO        -0.3944
     26 CB         27.0690   -4.9000  -21.2140 C.3       1 PRO        -0.0104
     27 CG         28.1090   -3.7070  -21.1350 C.3       1 PRO        -0.0281
     28 CD         27.1930   -2.5080  -21.3310 C.3       1 PRO         0.0369
     29 N          25.4640   -5.7190  -18.4610 N.am      1 VAL        -0.2635
     30 CA         25.5880   -6.0930  -17.0580 C.3       1 VAL         0.1334
     31 C          26.8120   -6.9770  -16.9620 C.2       1 VAL         0.2066
     32 O          26.9320   -7.9650  -17.7290 O.2       1 VAL        -0.3942
     33 CB         24.3360   -6.8940  -16.5820 C.3       1 VAL        -0.0062
     34 CG1        24.4340   -7.2400  -15.1200 C.3       1 VAL        -0.0584
     35 CG2        23.0550   -6.1110  -16.8930 C.3       1 VAL        -0.0584
     36 N          27.7350   -6.6290  -16.0510 N.am      1 PRO        -0.2498
     37 CA         28.9630   -7.4070  -15.8520 C.3       1 PRO         0.1340
     38 C          28.6920   -8.7190  -15.0910 C.2       1 PRO         0.2066
     39 O          27.6220   -8.8700  -14.5100 O.2       1 PRO        -0.3942
     40 CB         29.8130   -6.4780  -14.9630 C.3       1 PRO        -0.0104
     41 CG         28.8040   -5.7550  -14.1430 C.3       1 PRO        -0.0281
     42 CD         27.6590   -5.4770  -15.1180 C.3       1 PRO         0.0369
     43 N          29.6660   -9.6450  -15.0630 N.am      1 PRO        -0.2498
     44 CA         29.5940  -10.8500  -14.2040 C.3       1 PRO         0.1340
     45 C          29.3990  -10.4010  -12.7660 C.2       1 PRO         0.2066
     46 O          29.9050   -9.3140  -12.3810 O.2       1 PRO        -0.3942
     47 CB         30.9930  -11.5190  -14.3850 C.3       1 PRO        -0.0104
     48 CG         31.4800  -11.0050  -15.7170 C.3       1 PRO        -0.0281
     49 CD         30.9290   -9.5830  -15.8300 C.3       1 PRO         0.0369
     50 N          28.6380  -11.1610  -11.9800 N.am      1 PRO        -0.2498
     51 CA         28.4530  -10.8200  -10.5610 C.3       1 PRO         0.1340
     52 C          29.7990  -10.8380   -9.8440 C.2       1 PRO         0.2066
     53 O          30.7890  -11.3480  -10.4130 O.2       1 PRO        -0.3942
     54 CB         27.6310  -12.0010  -10.0220 C.3       1 PRO        -0.0104
     55 CG         27.1670  -12.7930  -11.1830 C.3       1 PRO        -0.0281
     56 CD         27.8710  -12.3540  -12.3980 C.3       1 PRO         0.0369
     57 N          29.8580  -10.3560   -8.5970 N.am      1 PRO        -0.2498
     58 CA         31.0950  -10.4000   -7.8470 C.3       1 PRO         0.1338
     59 C          31.5920  -11.8250   -7.6100 C.2       1 PRO         0.2042
     60 O          30.7840  -12.7670   -7.4610 O.2       1 PRO        -0.3944
     61 CB         30.7140   -9.7730   -6.5030 C.3       1 PRO        -0.0104
     62 CG         29.4860   -9.0330   -6.7140 C.3       1 PRO        -0.0281
     63 CD         28.7790   -9.7280   -7.8110 C.3       1 PRO         0.0369
     64 N          32.9140  -11.9650   -7.5940 N.am      1 SER        -0.2604
     65 CA         33.5720  -13.2700   -7.3580 C.3       1 SER         0.1651
     66 C          33.5760  -13.6840   -5.8930 C.2       1 SER         0.2594
     67 O          34.4690  -14.4470   -5.5000 O.2       1 SER        -0.3679
     68 CB         35.0540  -13.2860   -7.8430 C.3       1 SER         0.0857
     69 OG         35.1690  -13.0850   -9.2400 O.3       1 SER        -0.3902
     70 O1         32.6438  -13.2375   -5.0560 O.3       1 SER        -0.2909
     71 H1         20.7742    4.7697  -24.3190 H         1 VAL         0.2015
     72 H2         22.1588    4.5568  -23.4549 H         1 VAL         0.2015
     73 H3         20.7159    4.6987  -22.6756 H         1 VAL         0.2015
     74 H4         19.9206    2.5984  -23.6207 H         1 VAL         0.1101
     75 H5         22.7864    2.5494  -24.7143 H         1 VAL         0.0376
     76 H6         22.1549    0.3845  -25.7786 H         1 VAL         0.0236
     77 H7         20.5656    0.4457  -24.9438 H         1 VAL         0.0236
     78 H8         22.0783    0.3023  -23.9859 H         1 VAL         0.0236
     79 H9         21.2789    4.0300  -26.0133 H         1 VAL         0.0236
     80 H10        20.1431    2.6571  -26.2408 H         1 VAL         0.0236
     81 H11        21.7917    2.5860  -26.9506 H         1 VAL         0.0236
     82 H12        21.7830    1.4453  -19.6786 H         1 PRO         0.0802
     83 H13        20.2925   -0.1377  -18.8784 H         1 PRO         0.0313
     84 H14        20.7363   -1.2998  -20.1743 H         1 PRO         0.0313
     85 H15        18.6304   -0.8000  -20.9539 H         1 PRO         0.0287
     86 H16        18.5839    0.7837  -20.1074 H         1 PRO         0.0287
     87 H17        19.6402    0.0743  -22.7987 H         1 PRO         0.0524
     88 H18        18.8768    1.5899  -22.2098 H         1 PRO         0.0524
     89 H19        25.5314   -0.4241  -21.3622 H         1 PRO         0.0802
     90 H20        26.7012    0.8181  -19.7081 H         1 PRO         0.0313
     91 H21        26.8446   -0.7974  -18.9359 H         1 PRO         0.0313
     92 H22        25.0930   -0.4130  -17.4953 H         1 PRO         0.0287
     93 H23        25.7389    1.2549  -17.6616 H         1 PRO         0.0287
     94 H24        23.1220    0.6265  -18.1609 H         1 PRO         0.0524
     95 H25        23.9863    1.9337  -19.0390 H         1 PRO         0.0524
     96 H26        24.9237   -4.7931  -20.7809 H         1 PRO         0.0802
     97 H27        26.7882   -5.1096  -22.2567 H         1 PRO         0.0313
     98 H28        27.4790   -5.8114  -20.7544 H         1 PRO         0.0313
     99 H29        28.6128   -3.6747  -20.1577 H         1 PRO         0.0287
    100 H30        28.8622   -3.7745  -21.9338 H         1 PRO         0.0287
    101 H31        27.6257   -1.5995  -20.8868 H         1 PRO         0.0524
    102 H32        26.9887   -2.3331  -22.3976 H         1 PRO         0.0524
    103 H33        24.8951   -6.2758  -19.0663 H         1 VAL         0.1883
    104 H34        25.7106   -5.1949  -16.4348 H         1 VAL         0.0803
    105 H35        24.3013   -7.8370  -17.1472 H         1 VAL         0.0343
    106 H36        23.5392   -7.8027  -14.8156 H         1 VAL         0.0234
    107 H37        24.5045   -6.3154  -14.5283 H         1 VAL         0.0234
    108 H38        25.3298   -7.8547  -14.9479 H         1 VAL         0.0234
    109 H39        23.0198   -5.8774  -17.9673 H         1 VAL         0.0234
    110 H40        23.0472   -5.1757  -16.3140 H         1 VAL         0.0234
    111 H41        22.1790   -6.7180  -16.6209 H         1 VAL         0.0234
    112 H42        29.4583   -7.6226  -16.8102 H         1 PRO         0.0802
    113 H43        30.3971   -5.7754  -15.5755 H         1 PRO         0.0313
    114 H44        30.4931   -7.0606  -14.3242 H         1 PRO         0.0313
    115 H45        28.4606   -6.3806  -13.3059 H         1 PRO         0.0287
    116 H46        29.2203   -4.8150  -13.7516 H         1 PRO         0.0287
    117 H47        26.6911   -5.4530  -14.5960 H         1 PRO         0.0524
    118 H48        27.8129   -4.5261  -15.6491 H         1 PRO         0.0524
    119 H49        28.7820  -11.5255  -14.5112 H         1 PRO         0.0802
    120 H50        30.9022  -12.6151  -14.3995 H         1 PRO         0.0313
    121 H51        31.6766  -11.2183  -13.5774 H         1 PRO         0.0313
    122 H52        32.5795  -10.9952  -15.7469 H         1 PRO         0.0287
    123 H53        31.0965  -11.6324  -16.5351 H         1 PRO         0.0287
    124 H54        31.6240   -8.8549  -15.3864 H         1 PRO         0.0524
    125 H55        30.7395   -9.3163  -16.8802 H         1 PRO         0.0524
    126 H56        27.9434   -9.8540  -10.4300 H         1 PRO         0.0802
    127 H57        26.7664  -11.6274   -9.4537 H         1 PRO         0.0313
    128 H58        28.2571  -12.6260   -9.3683 H         1 PRO         0.0313
    129 H59        27.3750  -13.8584  -11.0050 H         1 PRO         0.0287
    130 H60        26.0847  -12.6477  -11.3152 H         1 PRO         0.0287
    131 H61        28.5474  -13.1423  -12.7600 H         1 PRO         0.0524
    132 H62        27.1527  -12.0950  -13.1898 H         1 PRO         0.0524
    133 H63        31.8776   -9.8173   -8.3549 H         1 PRO         0.0802
    134 H64        31.5103   -9.0945   -6.1633 H         1 PRO         0.0313
    135 H65        30.5565  -10.5595   -5.7503 H         1 PRO         0.0313
    136 H66        28.8739   -9.0384   -5.8000 H         1 PRO         0.0287
    137 H67        29.7092   -7.9945   -6.9997 H         1 PRO         0.0287
    138 H68        28.0930  -10.4897   -7.4120 H         1 PRO         0.0524
    139 H69        28.2142   -9.0121   -8.4262 H         1 PRO         0.0524
    140 H70        33.4853  -11.1586   -7.7471 H         1 SER         0.1885
    141 H71        33.0114  -14.0254   -7.9282 H         1 SER         0.0840
    142 H72        35.4980  -14.2598   -7.5889 H         1 SER         0.0607
    143 H73        35.6035  -12.4861   -7.3250 H         1 SER         0.0607
    144 H74        34.7944  -12.2427   -9.4695 H         1 SER         0.2097
    145 H75        32.0451  -12.6683   -5.5250 H         1 SER         0.2540
@<TRIPOS>BOND
     1    2    1 1  
     2    2    5 1  
     3    3    2 1  
     4    3    4 2  
     5    5    7 1  
     6    5    6 1  
     7   10    9 1  
     8    9   12 1  
     9    9    8 1  
    10    8   14 1  
    11   14   13 1  
    12   12   13 1  
    13   10   11 2  
    14    8    3 am 
    15   17   16 1  
    16   16   19 1  
    17   16   15 1  
    18   15   21 1  
    19   21   20 1  
    20   19   20 1  
    21   17   18 2  
    22   15   10 am 
    23   24   23 1  
    24   23   26 1  
    25   23   22 1  
    26   22   28 1  
    27   28   27 1  
    28   26   27 1  
    29   24   25 2  
    30   22   17 am 
    31   30   29 1  
    32   30   33 1  
    33   31   30 1  
    34   31   32 2  
    35   33   35 1  
    36   33   34 1  
    37   29   24 am 
    38   38   37 1  
    39   37   40 1  
    40   37   36 1  
    41   36   42 1  
    42   42   41 1  
    43   40   41 1  
    44   38   39 2  
    45   36   31 am 
    46   45   44 1  
    47   44   47 1  
    48   44   43 1  
    49   43   49 1  
    50   49   48 1  
    51   47   48 1  
    52   45   46 2  
    53   43   38 am 
    54   52   51 1  
    55   51   54 1  
    56   51   50 1  
    57   50   56 1  
    58   56   55 1  
    59   54   55 1  
    60   52   53 2  
    61   50   45 am 
    62   59   58 1  
    63   58   61 1  
    64   58   57 1  
    65   57   63 1  
    66   63   62 1  
    67   61   62 1  
    68   59   60 2  
    69   57   52 am 
    70   64   65 1  
    71   65   68 1  
    72   65   66 1  
    73   66   67 2  
    74   68   69 1  
    75   59   64 am 
    76   66   70 1  
    77    1   71 1  
    78    1   72 1  
    79    1   73 1  
    80    2   74 1  
    81    5   75 1  
    82    6   76 1  
    83    6   77 1  
    84    6   78 1  
    85    7   79 1  
    86    7   80 1  
    87    7   81 1  
    88    9   82 1  
    89   12   83 1  
    90   12   84 1  
    91   13   85 1  
    92   13   86 1  
    93   14   87 1  
    94   14   88 1  
    95   16   89 1  
    96   19   90 1  
    97   19   91 1  
    98   20   92 1  
    99   20   93 1  
   100   21   94 1  
   101   21   95 1  
   102   23   96 1  
   103   26   97 1  
   104   26   98 1  
   105   27   99 1  
   106   27  100 1  
   107   28  101 1  
   108   28  102 1  
   109   29  103 1  
   110   30  104 1  
   111   33  105 1  
   112   34  106 1  
   113   34  107 1  
   114   34  108 1  
   115   35  109 1  
   116   35  110 1  
   117   35  111 1  
   118   37  112 1  
   119   40  113 1  
   120   40  114 1  
   121   41  115 1  
   122   41  116 1  
   123   42  117 1  
   124   42  118 1  
   125   44  119 1  
   126   47  120 1  
   127   47  121 1  
   128   48  122 1  
   129   48  123 1  
   130   49  124 1  
   131   49  125 1  
   132   51  126 1  
   133   54  127 1  
   134   54  128 1  
   135   55  129 1  
   136   55  130 1  
   137   56  131 1  
   138   56  132 1  
   139   58  133 1  
   140   61  134 1  
   141   61  135 1  
   142   62  136 1  
   143   62  137 1  
   144   63  138 1  
   145   63  139 1  
   146   64  140 1  
   147   65  141 1  
   148   68  142 1  
   149   68  143 1  
   150   69  144 1  
   151   70  145 1  
@<TRIPOS>SUBSTRUCTURE
     1 VAL         1

