### 
### Created by X-TOOL on Mon Sep 10 21:12:56 2018
### 

@<TRIPOS>MOLECULE
2oa0_ligand
   45    49     1     0     0
SMALL
GAST_HUCK


@<TRIPOS>ATOM
      1 O2         26.0510  -15.6970   15.5980 O.2       1 CZA        -0.4174
      2 C6         25.9830  -15.2990   14.3690 C.2       1 CZA         0.1190
      3 C3         27.2210  -15.1870   13.5350 C.2       1 CZA         0.1016
      4 C2         28.6450  -15.5200   13.8350 C.2       1 CZA         0.0873
      5 O1         29.1390  -15.1890   14.9050 O.2       1 CZA        -0.4204
      6 C1         29.4160  -16.2470   12.7670 C.3       1 CZA        -0.0020
      7 C5         24.6980  -14.8340   13.7790 C.3       1 CZA         0.1219
      8 C7         23.6280  -15.7310   13.1760 C.3       1 CZA         0.0213
      9 C15        22.5440  -16.0370   14.1380 C.2       1 CZA        -0.0409
     10 C16        22.5630  -16.9440   15.1770 C.2       1 CZA         0.0139
     11 N2         21.3140  -16.8270   15.7260 N.pl3     1 CZA        -0.2922
     12 C17        20.5720  -15.9020   15.0600 C.ar      1 CZA         0.0540
     13 C14        21.3550  -15.3910   14.0340 C.ar      1 CZA        -0.0169
     14 C18        19.2740  -15.4100   15.2000 C.ar      1 CZA        -0.0521
     15 C19        18.8160  -14.4280   14.3120 C.ar      1 CZA        -0.0846
     16 C20        19.6330  -13.9330   13.2860 C.ar      1 CZA        -0.0778
     17 C13        20.9260  -14.4330   13.1510 C.ar      1 CZA        -0.0528
     18 C12        21.9050  -13.9840   12.0900 C.3       1 CZA        -0.0160
     19 C8         23.1420  -14.9010   11.9490 C.3       1 CZA         0.0070
     20 C9         24.3380  -14.0470   11.5030 C.3       1 CZA         0.0667
     21 C10        24.7620  -14.4110   10.0920 C.3       1 CZA        -0.0368
     22 C11        24.0610  -12.5540   11.5980 C.3       1 CZA        -0.0368
     23 N1         25.3400  -14.4770   12.4980 N.pl3     1 CZA        -0.2287
     24 C4         26.6480  -14.6620   12.2700 C.2       1 CZA         0.2164
     25 O3         27.4240  -14.3620   11.0450 O.3       1 CZA        -0.2761
     26 H1         30.4434  -16.4285   13.1157 H         1 CZA         0.0433
     27 H2         29.4417  -15.6357   11.8529 H         1 CZA         0.0433
     28 H3         28.9267  -17.2084   12.5516 H         1 CZA         0.0433
     29 H4         24.2455  -14.0305   14.3787 H         1 CZA         0.0805
     30 H5         24.0697  -16.6809   12.8404 H         1 CZA         0.0438
     31 H6         23.3772  -17.5974   15.4869 H         1 CZA         0.0766
     32 H7         20.9804  -17.3681   16.5364 H         1 CZA         0.2206
     33 H8         18.6277  -15.7830   15.9863 H         1 CZA         0.0475
     34 H9         17.8086  -14.0428   14.4206 H         1 CZA         0.0512
     35 H10        19.2639  -13.1723   12.6077 H         1 CZA         0.0436
     36 H11        22.2518  -12.9718   12.3451 H         1 CZA         0.0428
     37 H12        21.3806  -13.9592   11.1234 H         1 CZA         0.0428
     38 H13        22.9023  -15.6224   11.1540 H         1 CZA         0.0369
     39 H14        25.6183  -13.7880    9.7943 H         1 CZA         0.0256
     40 H15        23.9241  -14.2369    9.4009 H         1 CZA         0.0256
     41 H16        25.0510  -15.4718   10.0581 H         1 CZA         0.0256
     42 H17        23.7549  -12.3025   12.6242 H         1 CZA         0.0256
     43 H18        23.2554  -12.2853   10.8988 H         1 CZA         0.0256
     44 H19        24.9724  -11.9948   11.3398 H         1 CZA         0.0256
     45 H20        28.3333  -14.6013   11.1809 H         1 CZA         0.2725
@<TRIPOS>BOND
     1    1    2 2  
     2    2    3 1  
     3    2    7 1  
     4    3    4 1  
     5    3   24 2  
     6    4    5 2  
     7    4    6 1  
     8    7    8 1  
     9    7   23 1  
    10    8    9 1  
    11    8   19 1  
    12    9   10 2  
    13    9   13 1  
    14   10   11 1  
    15   11   12 1  
    16   12   13 ar 
    17   12   14 ar 
    18   13   17 ar 
    19   14   15 ar 
    20   15   16 ar 
    21   16   17 ar 
    22   17   18 1  
    23   18   19 1  
    24   19   20 1  
    25   20   21 1  
    26   20   22 1  
    27   20   23 1  
    28   23   24 1  
    29   24   25 1  
    30    6   26 1  
    31    6   27 1  
    32    6   28 1  
    33    7   29 1  
    34    8   30 1  
    35   10   31 1  
    36   11   32 1  
    37   14   33 1  
    38   15   34 1  
    39   16   35 1  
    40   18   36 1  
    41   18   37 1  
    42   19   38 1  
    43   21   39 1  
    44   21   40 1  
    45   21   41 1  
    46   22   42 1  
    47   22   43 1  
    48   22   44 1  
    49   25   45 1  
@<TRIPOS>SUBSTRUCTURE
     1 CZA         1

