### 
### Created by X-TOOL on Mon Sep 10 21:12:55 2018
### 

@<TRIPOS>MOLECULE
2oag_ligand
   51    54     1     0     0
SMALL
GAST_HUCK


@<TRIPOS>ATOM
      1 C4         29.1900    5.8310   62.5430 C.ar      1 DLI         0.1277
      2 C5         27.8630    6.3340   62.4280 C.ar      1 DLI        -0.0030
      3 C6         27.6120    7.6900   62.8170 C.ar      1 DLI         0.1560
      4 C7         31.6200    6.0610   63.1460 C.3       1 DLI         0.0560
      5 C8         32.8450    6.8000   62.7240 C.3       1 DLI         0.0488
      6 C10        42.7350    4.6720   62.4390 C.3       1 DLI         0.0596
      7 C17        36.8490    6.6850   61.6130 C.ar      1 DLI         0.0696
      8 C20        36.0980    5.2160   63.7830 C.ar      1 DLI         0.0128
      9 C21        38.4860    4.3830   64.1240 C.ar      1 DLI         0.0048
     10 C24        39.1460    2.8410   65.9650 C.ar      1 DLI        -0.0559
     11 C26        40.8100    3.6080   64.3630 C.ar      1 DLI         0.0918
     12 C1         28.6710    8.5100   63.3150 C.ar      1 DLI         0.1544
     13 C2         29.9800    8.0000   63.4200 C.ar      1 DLI        -0.0295
     14 C3         30.2380    6.6510   63.0420 C.ar      1 DLI        -0.0045
     15 C9         31.8210    5.5040   64.5730 C.3       1 DLI         0.0098
     16 F10        29.5310    4.5600   62.1920 F         1 DLI        -0.1934
     17 N11        33.8410    5.9990   63.4380 N.pl3     1 DLI        -0.2796
     18 C12        33.3070    5.1990   64.5720 C.3       1 DLI         0.0769
     19 F13        26.3540    8.1500   62.7030 F         1 DLI        -0.1911
     20 C14        35.1670    5.9850   63.0510 C.ar      1 DLI         0.1301
     21 F15        28.5710    9.7940   63.7170 F         1 DLI        -0.1895
     22 N16        35.5430    6.7410   61.9760 N.ar      1 DLI        -0.2536
     23 N18        37.7890    5.9640   62.2640 N.ar      1 DLI        -0.2793
     24 C19        37.4370    5.1860   63.3820 C.ar      1 DLI         0.0539
     25 N22        30.9090    4.3720   64.7820 N.4       1 DLI         0.2238
     26 C23        38.1700    3.5970   65.2790 C.ar      1 DLI        -0.0484
     27 C25        40.4720    2.8420   65.5060 C.ar      1 DLI        -0.0338
     28 C27        39.8280    4.3670   63.6860 C.ar      1 DLI        -0.0236
     29 S1         42.5030    3.5570   63.8240 S.o2      1 DLI        -0.0052
     30 O2         42.7410    2.2190   63.3630 O.2       1 DLI        -0.1696
     31 O1         43.2980    4.0420   64.9110 O.2       1 DLI        -0.1696
     32 H1         27.0618    5.7062   62.0551 H         1 DLI         0.0562
     33 H2         31.5898    5.1931   62.4709 H         1 DLI         0.0522
     34 H3         32.8348    7.8464   63.0631 H         1 DLI         0.0551
     35 H4         32.9926    6.7690   61.6344 H         1 DLI         0.0551
     36 H5         43.7842    4.6355   62.1107 H         1 DLI         0.0468
     37 H6         42.4828    5.6973   62.7474 H         1 DLI         0.0468
     38 H7         42.0804    4.3672   61.6092 H         1 DLI         0.0468
     39 H8         37.1587    7.2553   60.7448 H         1 DLI         0.1078
     40 H9         35.7763    4.6520   64.6511 H         1 DLI         0.0671
     41 H10        38.8724    2.2636   66.8407 H         1 DLI         0.0627
     42 H11        30.7840    8.6287   63.7853 H         1 DLI         0.0523
     43 H12        31.6009    6.2670   65.3341 H         1 DLI         0.0896
     44 H13        33.4852    4.1256   64.4106 H         1 DLI         0.0583
     45 H14        33.7698    5.5090   65.5205 H         1 DLI         0.0583
     46 H15        29.9561    4.7001   64.7617 H         1 DLI         0.1999
     47 H16        31.0993    3.9479   65.6764 H         1 DLI         0.1999
     48 H17        31.0455    3.6912   64.0513 H         1 DLI         0.1999
     49 H18        37.1475    3.5819   65.6386 H         1 DLI         0.0653
     50 H19        41.2300    2.2627   66.0206 H         1 DLI         0.0662
     51 H20        40.1106    4.9471   62.8150 H         1 DLI         0.0672
@<TRIPOS>BOND
     1    1    2 ar 
     2   14    1 ar 
     3    1   16 1  
     4    2    3 ar 
     5   12    3 ar 
     6    3   19 1  
     7    5    4 1  
     8    4   14 1  
     9   15    4 1  
    10   17    5 1  
    11   29    6 1  
    12   22    7 ar 
    13    7   23 ar 
    14   20    8 ar 
    15    8   24 ar 
    16   24    9 1  
    17    9   26 ar 
    18    9   28 ar 
    19   26   10 ar 
    20   10   27 ar 
    21   11   27 ar 
    22   28   11 ar 
    23   11   29 1  
    24   13   12 ar 
    25   12   21 1  
    26   14   13 ar 
    27   18   15 1  
    28   15   25 1  
    29   17   18 1  
    30   20   17 1  
    31   20   22 ar 
    32   23   24 ar 
    33   29   30 2  
    34   29   31 2  
    35    2   32 1  
    36    4   33 1  
    37    5   34 1  
    38    5   35 1  
    39    6   36 1  
    40    6   37 1  
    41    6   38 1  
    42    7   39 1  
    43    8   40 1  
    44   10   41 1  
    45   13   42 1  
    46   15   43 1  
    47   18   44 1  
    48   18   45 1  
    49   25   46 1  
    50   25   47 1  
    51   25   48 1  
    52   26   49 1  
    53   27   50 1  
    54   28   51 1  
@<TRIPOS>SUBSTRUCTURE
     1 DLI         1

