### 
### Created by X-TOOL on Mon Sep 10 21:12:56 2018
### 

@<TRIPOS>MOLECULE
2oah_ligand
   72    74     1     0     0
SMALL
GAST_HUCK


@<TRIPOS>ATOM
      1 C15        30.1940   43.6350    1.6580 C.ar      1 QIN         0.0941
      2 C16        30.7200   42.3120    1.5090 C.ar      1 QIN        -0.0166
      3 C17        29.8290   41.3050    1.0130 C.ar      1 QIN         0.0407
      4 C18        28.4860   41.5920    0.6540 C.ar      1 QIN        -0.0131
      5 C19        27.9940   42.9310    0.8210 C.ar      1 QIN         0.1252
      6 N3         28.8720   43.8650    1.3240 N.ar      1 QIN        -0.2732
      7 N4         26.6740   43.2650    0.5240 N.am      1 QIN        -0.1664
      8 S1         25.9510   44.6060    1.1380 S.o2      1 QIN         0.0623
      9 O1         24.5700   44.4920    0.7610 O.2       1 QIN        -0.1493
     10 C29        25.9500   42.5710   -0.5630 C.3       1 QIN         0.0482
     11 C34        30.2780   39.9190    0.8510 C.2       1 QIN         0.2076
     12 N35        30.8860   39.4010    1.9370 N.am      1 QIN        -0.2749
     13 C36        31.7120   38.1890    1.9370 C.3       1 QIN         0.0902
     14 C28        31.0430   37.1520    2.8740 C.3       1 QIN         0.0005
     15 C56        33.1150   38.5520    2.4460 C.3       1 QIN        -0.0038
     16 O4         30.1170   39.2800   -0.1710 O.2       1 QIN        -0.3799
     17 C22        26.6280   46.0610    0.3270 C.3       1 QIN         0.0797
     18 O2         26.2800   44.6880    2.5140 O.2       1 QIN        -0.1493
     19 C61        34.0190   39.7650    0.2360 C.2       1 QIN        -0.0736
     20 C62        33.7700   39.7160    1.6800 C.2       1 QIN        -0.0606
     21 C63        34.1750   40.9760    2.2850 C.2       1 QIN        -0.0148
     22 S2         34.8070   42.0190    1.0610 S.3       1 QIN        -0.0591
     23 C64        34.5650   40.9450   -0.2380 C.2       1 QIN        -0.0114
     24 C8         29.6730   36.7230    2.3350 C.3       1 QIN        -0.0075
     25 N1         30.7930   37.8100    4.1610 N.4       1 QIN         0.2225
     26 C10        29.7320   35.9020    1.0580 C.3       1 QIN        -0.0481
     27 C11        28.3310   35.3670    0.7450 C.3       1 QIN        -0.0557
     28 C13        28.4240   34.3050   -0.3370 C.3       1 QIN        -0.0653
     29 N2         30.9880   44.7510    2.0730 N.pl3     1 QIN        -0.3112
     30 C5         32.4190   44.6250    2.4680 C.3       1 QIN         0.0295
     31 C1         33.8230   44.0170    4.5130 C.3       1 QIN        -0.0452
     32 C2         32.6220   44.7900    5.0440 C.3       1 QIN        -0.0389
     33 C3         32.5040   43.9550    3.8010 C.3       1 QIN        -0.0183
     34 C4         32.0480   44.2910    6.3270 C.3       1 QIN        -0.0621
     35 H1         31.7489   42.0815    1.7607 H         1 QIN         0.0504
     36 H2         27.8425   40.8136    0.2604 H         1 QIN         0.0510
     37 H3         26.5299   41.6949   -0.8888 H         1 QIN         0.0527
     38 H4         25.8161   43.2582   -1.4114 H         1 QIN         0.0527
     39 H5         24.9656   42.2437   -0.1973 H         1 QIN         0.0527
     40 H6         30.7648   39.8786    2.8072 H         1 QIN         0.1855
     41 H7         31.7829   37.7787    0.9189 H         1 QIN         0.0630
     42 H8         31.6973   36.2764    2.9978 H         1 QIN         0.0874
     43 H9         33.7596   37.6660    2.3486 H         1 QIN         0.0402
     44 H10        33.0374   38.8343    3.5063 H         1 QIN         0.0402
     45 H11        26.1483   46.9637    0.7332 H         1 QIN         0.0488
     46 H12        26.4376   45.9998   -0.7547 H         1 QIN         0.0488
     47 H13        27.7122   46.1097    0.5063 H         1 QIN         0.0488
     48 H14        33.7892   38.9273   -0.4208 H         1 QIN         0.0393
     49 H15        34.0927   41.2227    3.3425 H         1 QIN         0.0566
     50 H16        34.8029   41.1542   -1.2799 H         1 QIN         0.0714
     51 H17        29.0825   37.6292    2.1348 H         1 QIN         0.0321
     52 H18        29.1716   36.1220    3.1079 H         1 QIN         0.0321
     53 H19        31.6682   38.1127    4.5592 H         1 QIN         0.1998
     54 H20        30.3449   37.1610    4.7887 H         1 QIN         0.1998
     55 H21        30.1943   38.6085    4.0195 H         1 QIN         0.1998
     56 H22        30.4269   35.0600    1.1924 H         1 QIN         0.0267
     57 H23        30.0791   36.5350    0.2281 H         1 QIN         0.0267
     58 H24        27.6933   36.1921    0.3949 H         1 QIN         0.0263
     59 H25        27.8951   34.9269    1.6540 H         1 QIN         0.0263
     60 H26        27.4179   33.9212   -0.5614 H         1 QIN         0.0230
     61 H27        29.0616   33.4798    0.0130 H         1 QIN         0.0230
     62 H28        28.8598   34.7449   -1.2461 H         1 QIN         0.0230
     63 H29        30.5505   45.6831    2.0998 H         1 QIN         0.1799
     64 H30        32.8731   45.6250    2.5294 H         1 QIN         0.0520
     65 H31        32.9557   44.0238    1.7193 H         1 QIN         0.0520
     66 H32        34.1972   43.1376    5.0577 H         1 QIN         0.0271
     67 H33        34.6688   44.5554    4.0605 H         1 QIN         0.0271
     68 H34        32.5660   45.8872    4.9894 H         1 QIN         0.0302
     69 H35        31.8997   43.0359    3.8074 H         1 QIN         0.0323
     70 H36        32.2285   45.0301    7.1214 H         1 QIN         0.0233
     71 H37        32.5269   43.3383    6.5970 H         1 QIN         0.0233
     72 H38        30.9653   44.1367    6.2089 H         1 QIN         0.0233
@<TRIPOS>BOND
     1    1    2 ar 
     2    1    6 ar 
     3   29    1 1  
     4    2    3 ar 
     5    3    4 ar 
     6    3   11 1  
     7    5    4 ar 
     8    6    5 ar 
     9    5    7 1  
    10    7    8 am 
    11    7   10 1  
    12    8    9 2  
    13    8   17 1  
    14    8   18 2  
    15   11   12 am 
    16   11   16 2  
    17   12   13 1  
    18   13   14 1  
    19   13   15 1  
    20   14   24 1  
    21   14   25 1  
    22   15   20 1  
    23   20   19 1  
    24   19   23 2  
    25   20   21 2  
    26   21   22 1  
    27   22   23 1  
    28   24   26 1  
    29   26   27 1  
    30   27   28 1  
    31   30   29 1  
    32   33   30 1  
    33   31   32 1  
    34   31   33 1  
    35   32   33 1  
    36   32   34 1  
    37    2   35 1  
    38    4   36 1  
    39   10   37 1  
    40   10   38 1  
    41   10   39 1  
    42   12   40 1  
    43   13   41 1  
    44   14   42 1  
    45   15   43 1  
    46   15   44 1  
    47   17   45 1  
    48   17   46 1  
    49   17   47 1  
    50   19   48 1  
    51   21   49 1  
    52   23   50 1  
    53   24   51 1  
    54   24   52 1  
    55   25   53 1  
    56   25   54 1  
    57   25   55 1  
    58   26   56 1  
    59   26   57 1  
    60   27   58 1  
    61   27   59 1  
    62   28   60 1  
    63   28   61 1  
    64   28   62 1  
    65   29   63 1  
    66   30   64 1  
    67   30   65 1  
    68   31   66 1  
    69   31   67 1  
    70   32   68 1  
    71   33   69 1  
    72   34   70 1  
    73   34   71 1  
    74   34   72 1  
@<TRIPOS>SUBSTRUCTURE
     1 QIN         1

