### 
### Created by X-TOOL on Mon Sep 10 21:12:56 2018
### 

@<TRIPOS>MOLECULE
2oax_ligand
   61    65     1     0     0
SMALL
GAST_HUCK


@<TRIPOS>ATOM
      1 C8        -22.9650   57.7830    2.8810 C.3       1 SNL        -0.0183
      2 C4        -21.4410   61.4310    3.2340 C.3       1 SNL        -0.0450
      3 C5        -21.6420   59.8600    2.6070 C.3       1 SNL         0.0046
      4 C2        -17.6790   61.0790    4.5750 C.3       1 SNL        -0.0377
      5 C6        -20.9950   58.8580    3.7220 C.3       1 SNL        -0.0291
      6 C1        -17.4540   62.6040    5.2360 C.3       1 SNL        -0.0611
      7 C3        -19.9980   61.7840    3.4890 C.3       1 SNL        -0.0583
      8 C7        -21.6150   57.4500    3.4530 C.3       1 SNL        -0.0464
      9 C9        -23.0980   59.2720    2.6430 C.3       1 SNL         0.1060
     10 C10       -20.9800   59.7650    1.1200 C.3       1 SNL        -0.0563
     11 C11       -16.9460   61.0680    3.1490 C.3       1 SNL        -0.0890
     12 C12       -16.0080   62.8740    5.8000 C.3       1 SNL         0.0243
     13 C13       -24.1290   59.8570    3.6860 C.3       1 SNL        -0.0005
     14 C14       -25.1470   60.7050    2.8760 C.3       1 SNL         0.0517
     15 C15       -24.7400   60.4840    1.4500 C.2       1 SNL         0.2344
     16 C16       -19.2940   56.7540    7.6120 C.2       1 SNL         0.1615
     17 C17       -20.0030   56.3580    8.8990 C.3       1 SNL         0.0201
     18 C18       -15.4820   61.6250    6.6540 C.2       1 SNL         0.1764
     19 C19       -15.9490   60.2380    6.4010 C.2       1 SNL         0.0477
     20 C20       -16.8790   59.9450    5.4040 C.2       1 SNL        -0.0401
     21 C21       -17.2780   58.4070    5.1350 C.3       1 SNL        -0.0026
     22 C22       -18.8120   58.1540    4.9830 C.3       1 SNL         0.0383
     23 C23       -19.4910   59.0960    3.9690 C.3       1 SNL        -0.0273
     24 C24       -19.2250   60.7120    4.4060 C.3       1 SNL        -0.0607
     25 O57       -25.1350   61.1620    0.4900 O.2       1 SNL        -0.3704
     26 O58       -23.8210   59.4220    1.3580 O.3       1 SNL        -0.2695
     27 O59       -18.3930   56.0320    7.2050 O.2       1 SNL        -0.3794
     28 O60       -14.7040   61.8230    7.5500 O.2       1 SNL        -0.3440
     29 S61       -19.7160   58.3000    6.7080 S.3       1 SNL        -0.0444
     30 H1        -23.7448   57.4599    3.5864 H         1 SNL         0.0297
     31 H2        -23.0922   57.2528    1.9257 H         1 SNL         0.0297
     32 H3        -21.9922   61.5026    4.1832 H         1 SNL         0.0271
     33 H4        -21.8559   62.1515    2.5138 H         1 SNL         0.0271
     34 H5        -21.4392   59.1571    4.6828 H         1 SNL         0.0310
     35 H6        -18.1714   62.7286    6.0605 H         1 SNL         0.0172
     36 H7        -17.6608   63.3496    4.4541 H         1 SNL         0.0172
     37 H8        -19.9628   62.7615    3.9922 H         1 SNL         0.0259
     38 H9        -19.4801   61.8510    2.5209 H         1 SNL         0.0259
     39 H10       -21.0088   56.8815    2.7324 H         1 SNL         0.0269
     40 H11       -21.7110   56.8748    4.3857 H         1 SNL         0.0269
     41 H12       -19.9644   60.1870    1.1431 H         1 SNL         0.0236
     42 H13       -21.5966   60.3322    0.4072 H         1 SNL         0.0236
     43 H14       -20.9323   58.7117    0.8065 H         1 SNL         0.0236
     44 H15       -17.0706   60.0807    2.6803 H         1 SNL         0.0112
     45 H16       -15.8746   61.2763    3.2858 H         1 SNL         0.0112
     46 H17       -17.3899   61.8394    2.5025 H         1 SNL         0.0112
     47 H18       -16.0339   63.7650    6.4446 H         1 SNL         0.0483
     48 H19       -15.3209   63.0496    4.9591 H         1 SNL         0.0483
     49 H20       -23.6085   60.4888    4.4207 H         1 SNL         0.0322
     50 H21       -24.6469   59.0387    4.2076 H         1 SNL         0.0322
     51 H22       -25.0725   61.7691    3.1446 H         1 SNL         0.0519
     52 H23       -26.1751   60.3542    3.0491 H         1 SNL         0.0519
     53 H24       -19.5940   55.4045    9.2644 H         1 SNL         0.0467
     54 H25       -21.0797   56.2446    8.7045 H         1 SNL         0.0467
     55 H26       -19.8477   57.1386    9.6583 H         1 SNL         0.0467
     56 H27       -15.5541   59.4270    7.0112 H         1 SNL         0.1318
     57 H28       -16.9122   57.8042    5.9793 H         1 SNL         0.0463
     58 H29       -16.7823   58.0801    4.2090 H         1 SNL         0.0463
     59 H30       -18.9389   57.1245    4.6169 H         1 SNL         0.0468
     60 H31       -18.9885   58.9263    3.0053 H         1 SNL         0.0311
     61 H32       -19.6648   60.8139    5.4091 H         1 SNL         0.0187
@<TRIPOS>BOND
     1    8    1 1  
     2    1    9 1  
     3    3    2 1  
     4    2    7 1  
     5    5    3 1  
     6    3    9 1  
     7    3   10 1  
     8    4    6 1  
     9    4   11 1  
    10   20    4 1  
    11    4   24 1  
    12    5    8 1  
    13   23    5 1  
    14    6   12 1  
    15   24    7 1  
    16    9   13 1  
    17    9   26 1  
    18   18   12 1  
    19   13   14 1  
    20   15   14 1  
    21   15   25 2  
    22   26   15 1  
    23   16   17 1  
    24   16   27 2  
    25   29   16 1  
    26   19   18 1  
    27   18   28 2  
    28   20   19 2  
    29   21   20 1  
    30   22   21 1  
    31   22   23 1  
    32   22   29 1  
    33   23   24 1  
    34    1   30 1  
    35    1   31 1  
    36    2   32 1  
    37    2   33 1  
    38    5   34 1  
    39    6   35 1  
    40    6   36 1  
    41    7   37 1  
    42    7   38 1  
    43    8   39 1  
    44    8   40 1  
    45   10   41 1  
    46   10   42 1  
    47   10   43 1  
    48   11   44 1  
    49   11   45 1  
    50   11   46 1  
    51   12   47 1  
    52   12   48 1  
    53   13   49 1  
    54   13   50 1  
    55   14   51 1  
    56   14   52 1  
    57   17   53 1  
    58   17   54 1  
    59   17   55 1  
    60   19   56 1  
    61   21   57 1  
    62   21   58 1  
    63   22   59 1  
    64   23   60 1  
    65   24   61 1  
@<TRIPOS>SUBSTRUCTURE
     1 SNL         1

