### 
### Created by X-TOOL on Mon Sep 10 21:12:56 2018
### 

@<TRIPOS>MOLECULE
2oaz_ligand
   40    42     1     0     0
SMALL
GAST_HUCK


@<TRIPOS>ATOM
      1 C1         16.6680   29.9440   18.3680 C.ar      1 I96         0.0611
      2 C2         16.1300   30.4250   19.6350 C.ar      1 I96        -0.0177
      3 N3         17.4290   28.7750   18.2590 N.pl3     1 I96        -0.2658
      4 C4         16.4010   30.6830   17.1740 C.ar      1 I96        -0.0464
      5 C5         15.3500   31.6400   19.6160 C.ar      1 I96        -0.0702
      6 C6         16.3310   29.7310   21.0090 C.3       1 I96        -0.0157
      7 C7         18.6610   28.5920   17.7740 C.2       1 I96         0.1603
      8 C8         15.6300   31.8750   17.1770 C.ar      1 I96        -0.0794
      9 C9         15.1100   32.3500   18.3870 C.ar      1 I96        -0.0810
     10 C10        17.6240   30.1520   21.7100 C.3       1 I96        -0.0545
     11 C11        16.2360   28.1920   20.9620 C.3       1 I96        -0.0545
     12 N12        19.5580   29.4260   17.2650 N.2       1 I96        -0.2642
     13 N13        19.1690   27.3360   17.7660 N.2       1 I96        -0.2036
     14 C14        20.6040   28.6050   16.9660 C.2       1 I96         0.2013
     15 N15        20.4090   27.3150   17.2520 N.pl3     1 I96        -0.1982
     16 S16        22.1380   29.0570   16.2620 S.3       1 I96        -0.0210
     17 C17        22.2900   30.8690   15.9020 C.3       1 I96         0.0611
     18 C18        21.1950   31.8930   16.1430 C.2       1 I96         0.0251
     19 C19        21.2560   32.9760   16.9930 C.2       1 I96        -0.0807
     20 S20        19.6800   31.8580   15.3360 S.3       1 I96        -0.0433
     21 C21        20.0720   33.7640   16.9840 C.2       1 I96        -0.0931
     22 C22        19.1290   33.2750   16.1290 C.2       1 I96        -0.0195
     23 H1         16.9678   27.9222   18.6068 H         1 I96         0.2064
     24 H2         16.8010   30.3208   16.2339 H         1 I96         0.0506
     25 H3         14.9384   32.0238   20.5425 H         1 I96         0.0522
     26 H4         15.5010   30.0751   21.6436 H         1 I96         0.0432
     27 H5         15.4460   32.4112   16.2531 H         1 I96         0.0528
     28 H6         14.5216   33.2603   18.3985 H         1 I96         0.0495
     29 H7         17.7064   29.6273   22.6733 H         1 I96         0.0252
     30 H8         17.6099   31.2380   21.8841 H         1 I96         0.0252
     31 H9         18.4854   29.8933   21.0768 H         1 I96         0.0252
     32 H10        15.3043   27.8974   20.4569 H         1 I96         0.0252
     33 H11        16.2393   27.7929   21.9870 H         1 I96         0.0252
     34 H12        17.0966   27.7882   20.4085 H         1 I96         0.0252
     35 H13        21.0429   26.5149   17.1144 H         1 I96         0.2501
     36 H14        22.5269   30.9377   14.8300 H         1 I96         0.0599
     37 H15        23.1521   31.2152   16.4910 H         1 I96         0.0599
     38 H16        22.1237   33.2055   17.6097 H         1 I96         0.0277
     39 H17        19.9341   34.6572   17.5915 H         1 I96         0.0371
     40 H18        18.1509   33.7267   15.9701 H         1 I96         0.0598
@<TRIPOS>BOND
     1    1    2 ar 
     2    1    3 1  
     3    1    4 ar 
     4    2    5 ar 
     5    2    6 1  
     6    3    7 1  
     7    4    8 ar 
     8    5    9 ar 
     9    6   10 1  
    10    6   11 1  
    11    7   12 1  
    12    7   13 2  
    13    8    9 ar 
    14   12   14 2  
    15   13   15 1  
    16   14   15 1  
    17   14   16 1  
    18   16   17 1  
    19   17   18 1  
    20   18   19 2  
    21   18   20 1  
    22   19   21 1  
    23   20   22 1  
    24   21   22 2  
    25    3   23 1  
    26    4   24 1  
    27    5   25 1  
    28    6   26 1  
    29    8   27 1  
    30    9   28 1  
    31   10   29 1  
    32   10   30 1  
    33   10   31 1  
    34   11   32 1  
    35   11   33 1  
    36   11   34 1  
    37   15   35 1  
    38   17   36 1  
    39   17   37 1  
    40   19   38 1  
    41   21   39 1  
    42   22   40 1  
@<TRIPOS>SUBSTRUCTURE
     1 I96         1

