### 
### Created by X-TOOL on Fri Sep 26 17:34:38 2014
### 

@<TRIPOS>MOLECULE
2obf_ligand
   41    43     1     0     0
SMALL
GAST_HUCK


@<TRIPOS>ATOM
      1 O1         29.2550   44.8670   22.6150 O.3       1 F83        -0.3893
      2 C1         29.6460   45.6380   21.4750 C.3       1 F83         0.0886
      3 C2         29.0460   45.0010   20.2210 C.3       1 F83         0.0107
      4 N1         29.6530   43.6830   19.9820 N.4       1 F83         0.2432
      5 C3         28.8950   42.9490   18.9590 C.3       1 F83        -0.0016
      6 C4         28.7060   43.7940   17.6930 C.ar      1 F83         0.0053
      7 C5         28.3080   43.1710   16.5160 C.ar      1 F83        -0.0347
      8 C6         28.0810   43.9240   15.3680 C.ar      1 F83         0.1007
      9 C7         28.2560   45.3040   15.3970 C.ar      1 F83        -0.0484
     10 C8         28.6580   45.9300   16.5730 C.ar      1 F83        -0.0646
     11 C9         28.8850   45.1770   17.7230 C.ar      1 F83        -0.0305
     12 C10        29.3290   45.8840   19.0030 C.3       1 F83         0.0239
     13 S1         27.5650   43.1380   13.8930 S.o2      1 F83         0.0850
     14 O2         26.1410   42.9690   13.9040 O.2       1 F83        -0.1456
     15 O3         28.2170   41.7910   13.7900 O.2       1 F83        -0.1456
     16 N2         28.0200   44.0390   12.6150 N.am      1 F83        -0.1875
     17 C11        27.0810   44.8330   11.8090 C.ar      1 F83         0.0630
     18 C12        26.0370   45.5360   12.4050 C.ar      1 F83        -0.0448
     19 C13        25.2080   46.3430   11.6290 C.ar      1 F83        -0.0639
     20 C14        25.4190   46.4510   10.2550 C.ar      1 F83         0.0218
     21 C15        26.4570   45.7420    9.6600 C.ar      1 F83        -0.0639
     22 C16        27.2860   44.9320   10.4360 C.ar      1 F83        -0.0448
     23 CL1        24.4170   47.4760    9.2870 Cl        1 F83        -0.0866
     24 H1         29.6233   45.2553   23.3999 H         1 F83         0.2097
     25 H2         30.7430   45.6498   21.3951 H         1 F83         0.0615
     26 H3         29.2749   46.6681   21.5802 H         1 F83         0.0615
     27 H4         27.9598   44.8894   20.3539 H         1 F83         0.0895
     28 H5         29.6497   43.1550   20.8406 H         1 F83         0.2032
     29 H6         30.6025   43.8066   19.6671 H         1 F83         0.2032
     30 H7         27.9071   42.6857   19.3649 H         1 F83         0.0964
     31 H8         29.4411   42.0304   18.6985 H         1 F83         0.0964
     32 H9         28.1741   42.0956   16.4923 H         1 F83         0.0559
     33 H10        28.0792   45.8916   14.5034 H         1 F83         0.0561
     34 H11        28.7947   47.0051   16.5943 H         1 F83         0.0538
     35 H12        30.4078   46.0916   18.9477 H         1 F83         0.0467
     36 H13        28.7781   46.8306   19.1048 H         1 F83         0.0467
     37 H14        28.9883   44.0530   12.3655 H         1 F83         0.2165
     38 H15        25.8694   45.4552   13.4729 H         1 F83         0.0483
     39 H16        24.3958   46.8890   12.0951 H         1 F83         0.0579
     40 H17        26.6221   45.8190    8.5914 H         1 F83         0.0579
     41 H18        28.0921   44.3782    9.9685 H         1 F83         0.0483
@<TRIPOS>BOND
     1    1    2 1  
     2    2    3 1  
     3    3    4 1  
     4    3   12 1  
     5    4    5 1  
     6    5    6 1  
     7    6    7 ar 
     8    6   11 ar 
     9    7    8 ar 
    10    8    9 ar 
    11    8   13 1  
    12    9   10 ar 
    13   10   11 ar 
    14   11   12 1  
    15   13   14 2  
    16   13   15 2  
    17   13   16 am 
    18   16   17 1  
    19   17   18 ar 
    20   17   22 ar 
    21   18   19 ar 
    22   19   20 ar 
    23   20   21 ar 
    24   20   23 1  
    25   21   22 ar 
    26    1   24 1  
    27    2   25 1  
    28    2   26 1  
    29    3   27 1  
    30    4   28 1  
    31    4   29 1  
    32    5   30 1  
    33    5   31 1  
    34    7   32 1  
    35    9   33 1  
    36   10   34 1  
    37   12   35 1  
    38   12   36 1  
    39   16   37 1  
    40   18   38 1  
    41   19   39 1  
    42   21   40 1  
    43   22   41 1  
@<TRIPOS>SUBSTRUCTURE
     1 F83         1

