### 
### Created by X-TOOL on Mon Sep 10 21:12:56 2018
### 

@<TRIPOS>MOLECULE
2obj_ligand
   34    36     1     0     0
SMALL
GAST_HUCK


@<TRIPOS>ATOM
      1 C1        -20.8050   38.9620    1.9470 C.ar      1 VRV        -0.0577
      2 C2        -19.9950   38.2630    2.8600 C.ar      1 VRV        -0.0253
      3 C3        -19.1200   37.2490    2.3990 C.ar      1 VRV         0.1068
      4 C4        -19.0360   36.8970    0.9820 C.ar      1 VRV         0.0341
      5 C5        -19.8890   37.6480    0.1060 C.ar      1 VRV        -0.0469
      6 C6        -20.7470   38.6510    0.5730 C.ar      1 VRV         0.0056
      7 C7        -18.1710   35.8860    0.4710 C.ar      1 VRV         0.0443
      8 N8        -17.3960   35.1700    1.3140 N.ar      1 VRV        -0.2638
      9 C9        -16.5570   34.2130    0.9630 C.ar      1 VRV         0.1927
     10 C10       -16.3980   33.8410   -0.4140 C.ar      1 VRV         0.1519
     11 C11       -17.1910   34.5560   -1.4230 C.ar      1 VRV         0.0227
     12 C12       -18.0700   35.5740   -0.9400 C.ar      1 VRV        -0.0258
     13 C13       -17.1460   34.3120   -2.8140 C.ar      1 VRV        -0.0054
     14 C14       -17.8880   33.2280   -3.4180 C.ar      1 VRV        -0.0492
     15 C15       -17.8310   32.9880   -4.8160 C.ar      1 VRV        -0.0580
     16 C16       -17.0400   33.8210   -5.6420 C.ar      1 VRV        -0.0589
     17 C17       -16.2980   34.8960   -5.0860 C.ar      1 VRV        -0.0580
     18 C18       -16.3480   35.1420   -3.6920 C.ar      1 VRV        -0.0492
     19 C19       -15.4640   32.7870   -0.7210 C.1       1 VRV         0.0940
     20 N20       -14.7240   31.9370   -0.9860 N.1       1 VRV        -0.3403
     21 O21       -15.8850   33.6370    2.0140 O.3       1 VRV        -0.3063
     22 O22       -18.3750   36.6400    3.3780 O.3       1 VRV        -0.3259
     23 BR23      -21.8250   39.5960   -0.6910 Br        1 VRV        -0.0587
     24 H1        -21.4734   39.7393    2.2995 H         1 VRV         0.0642
     25 H2        -20.0404   38.5003    3.9167 H         1 VRV         0.0558
     26 H3        -19.8684   37.4309   -0.9558 H         1 VRV         0.0651
     27 H4        -18.6769   36.1270   -1.6478 H         1 VRV         0.0627
     28 H5        -18.4986   32.5872   -2.7923 H         1 VRV         0.0651
     29 H6        -18.3923   32.1683   -5.2497 H         1 VRV         0.0626
     30 H7        -17.0002   33.6366   -6.7095 H         1 VRV         0.0641
     31 H8        -15.6940   35.5277   -5.7273 H         1 VRV         0.0626
     32 H9        -15.7793   35.9655   -3.2755 H         1 VRV         0.0651
     33 H10       -15.3772   34.3008    2.4657 H         1 VRV         0.2581
     34 H11       -17.4512   36.7666    3.1962 H         1 VRV         0.2521
@<TRIPOS>BOND
     1    1    2 ar 
     2    1    6 ar 
     3    2    3 ar 
     4    3    4 ar 
     5    3   22 1  
     6    4    5 ar 
     7    4    7 1  
     8    5    6 ar 
     9    6   23 1  
    10    7    8 ar 
    11    7   12 ar 
    12    8    9 ar 
    13    9   10 ar 
    14    9   21 1  
    15   10   11 ar 
    16   10   19 1  
    17   11   12 ar 
    18   11   13 1  
    19   13   14 ar 
    20   13   18 ar 
    21   14   15 ar 
    22   15   16 ar 
    23   16   17 ar 
    24   17   18 ar 
    25   19   20 3  
    26    1   24 1  
    27    2   25 1  
    28    5   26 1  
    29   12   27 1  
    30   14   28 1  
    31   15   29 1  
    32   16   30 1  
    33   17   31 1  
    34   18   32 1  
    35   21   33 1  
    36   22   34 1  
@<TRIPOS>SUBSTRUCTURE
     1 VRV         1

