### 
### Created by X-TOOL on Mon Sep 10 21:12:55 2018
### 

@<TRIPOS>MOLECULE
2obo_ligand
   80    82     1     0     0
SMALL
GAST_HUCK


@<TRIPOS>ATOM
      1 C1        192.0180  -10.4090   48.8310 C.2       1 HUD         0.3223
      2 O2        192.6240  -11.2850   49.4590 O.2       1 HUD        -0.3774
      3 O3        190.6890  -10.1650   48.8440 O.3       1 HUD        -0.2580
      4 C4        189.6980  -10.9280   49.6350 C.3       1 HUD         0.0905
      5 C5        188.3380  -10.2250   49.4430 C.3       1 HUD        -0.0320
      6 C6        189.5220  -12.3650   49.0710 C.3       1 HUD        -0.0320
      7 C7        190.0670  -10.9810   51.1480 C.3       1 HUD        -0.0320
      8 N8        192.6230   -9.5400   48.0250 N.am      1 HUD        -0.2407
      9 C9        194.0740   -9.4170   48.0010 C.3       1 HUD         0.1378
     10 C10       194.6730   -8.9350   46.7010 C.3       1 HUD         0.0025
     11 C11       196.1680   -8.9540   46.9100 C.3       1 HUD        -0.0558
     12 C12       194.3430   -9.8870   45.5960 C.3       1 HUD        -0.0558
     13 C13       194.2280   -7.4970   46.2960 C.3       1 HUD        -0.0558
     14 C14       194.5810   -8.6080   49.1900 C.2       1 HUD         0.2069
     15 O15       194.4110   -7.3860   49.2440 O.2       1 HUD        -0.3942
     16 N16       195.1720   -9.2900   50.1820 N.am      1 HUD        -0.2492
     17 C17       195.4090  -10.7350   50.2670 C.3       1 HUD         0.0405
     18 C18       195.6930   -8.5870   51.3500 C.3       1 HUD         0.1372
     19 C19       196.5020   -9.6080   52.0990 C.3       1 HUD         0.0102
     20 C20       196.3200  -10.8920   51.4230 C.3       1 HUD        -0.0073
     21 C21       195.7110  -10.7030   52.7850 C.3       1 HUD        -0.0224
     22 C22       196.3470  -11.3320   53.9910 C.3       1 HUD        -0.0590
     23 C23       194.2020  -10.7630   52.8680 C.3       1 HUD        -0.0590
     24 C24       196.7300   -7.5950   50.8600 C.2       1 HUD         0.2026
     25 O25       197.5860   -7.9450   50.0460 O.2       1 HUD        -0.3945
     26 N26       196.6070   -6.3490   51.3020 N.am      1 HUD        -0.2772
     27 C27       197.5450   -5.2910   50.9250 C.3       1 HUD         0.0853
     28 C28       196.8210   -4.1310   50.2340 C.3       1 HUD        -0.0224
     29 C29       196.0400   -4.6580   49.0490 C.3       1 HUD        -0.0387
     30 C30       196.6690   -4.6550   47.6950 C.3       1 HUD        -0.0499
     31 C31       195.5290   -3.7140   48.0210 C.3       1 HUD        -0.0499
     32 O32       198.7390   -5.8960   52.9960 O.3       1 HUD        -0.3691
     33 C33       198.2970   -4.7730   52.1700 C.3       1 HUD         0.1660
     34 O34       199.3180   -2.8540   51.2060 O.2       1 HUD        -0.3943
     35 N35       200.6770   -4.5460   51.8230 N.am      1 HUD        -0.2987
     36 C36       199.4850   -3.9770   51.6930 C.2       1 HUD         0.2047
     37 H1        187.5652  -10.7590   50.0153 H         1 HUD         0.0260
     38 H2        188.0713  -10.2276   48.3758 H         1 HUD         0.0260
     39 H3        188.4079   -9.1873   49.8010 H         1 HUD         0.0260
     40 H4        188.7816  -12.9084   49.6764 H         1 HUD         0.0260
     41 H5        190.4856  -12.8942   49.1084 H         1 HUD         0.0260
     42 H6        189.1741  -12.3099   48.0289 H         1 HUD         0.0260
     43 H7        189.3034  -11.5566   51.6917 H         1 HUD         0.0260
     44 H8        190.1110   -9.9583   51.5508 H         1 HUD         0.0260
     45 H9        191.0470  -11.4655   51.2697 H         1 HUD         0.0260
     46 H10       192.0713   -8.9609   47.4248 H         1 HUD         0.1899
     47 H11       194.4572  -10.4390   48.1376 H         1 HUD         0.0805
     48 H12       196.6707   -8.6113   45.9936 H         1 HUD         0.0237
     49 H13       196.4924   -9.9785   47.1449 H         1 HUD         0.0237
     50 H14       196.4302   -8.2861   47.7437 H         1 HUD         0.0237
     51 H15       193.2562   -9.8892   45.4263 H         1 HUD         0.0237
     52 H16       194.6728  -10.8991   45.8732 H         1 HUD         0.0237
     53 H17       194.8571   -9.5730   44.6757 H         1 HUD         0.0237
     54 H18       194.4703   -6.7958   47.1082 H         1 HUD         0.0237
     55 H19       193.1432   -7.4865   46.1140 H         1 HUD         0.0237
     56 H20       194.7565   -7.1939   45.3801 H         1 HUD         0.0237
     57 H21       195.8816  -11.1067   49.3459 H         1 HUD         0.0527
     58 H22       194.4659  -11.2746   50.4387 H         1 HUD         0.0527
     59 H23       194.9017   -8.1213   51.9558 H         1 HUD         0.0805
     60 H24       197.4548   -9.2291   52.4972 H         1 HUD         0.0357
     61 H25       197.1319  -11.6123   51.2439 H         1 HUD         0.0331
     62 H26       195.7605  -11.0818   54.8873 H         1 HUD         0.0235
     63 H27       197.3724  -10.9508   54.1056 H         1 HUD         0.0235
     64 H28       196.3740  -12.4243   53.8637 H         1 HUD         0.0235
     65 H29       193.7667  -10.2955   51.9725 H         1 HUD         0.0235
     66 H30       193.8624  -10.2241   53.7648 H         1 HUD         0.0235
     67 H31       193.8795  -11.8130   52.9270 H         1 HUD         0.0235
     68 H32       195.8476   -6.1260   51.9132 H         1 HUD         0.1857
     69 H33       198.2784   -5.7122   50.2217 H         1 HUD         0.0607
     70 H34       197.5589   -3.3924   49.8876 H         1 HUD         0.0292
     71 H35       196.1307   -3.6539   50.9452 H         1 HUD         0.0292
     72 H36       195.4209   -5.5104   49.3653 H         1 HUD         0.0302
     73 H37       196.5083   -5.5003   47.0097 H         1 HUD         0.0268
     74 H38       197.6876   -4.2623   47.5603 H         1 HUD         0.0268
     75 H39       195.7171   -2.6349   48.1219 H         1 HUD         0.0268
     76 H40       194.5378   -3.8729   47.5713 H         1 HUD         0.0268
     77 H41       197.9831   -6.3990   53.2754 H         1 HUD         0.2134
     78 H42       197.6323   -4.1273   52.7626 H         1 HUD         0.0861
     79 H43       201.4981   -4.0609   51.5223 H         1 HUD         0.1815
     80 H44       200.7540   -5.4598   52.2217 H         1 HUD         0.1815
@<TRIPOS>BOND
     1    1    2 2  
     2    1    3 1  
     3    1    8 am 
     4    3    4 1  
     5    4    5 1  
     6    4    6 1  
     7    4    7 1  
     8    8    9 1  
     9    9   10 1  
    10    9   14 1  
    11   10   11 1  
    12   10   12 1  
    13   10   13 1  
    14   14   15 2  
    15   14   16 am 
    16   16   17 1  
    17   16   18 1  
    18   17   20 1  
    19   18   19 1  
    20   18   24 1  
    21   19   20 1  
    22   19   21 1  
    23   20   21 1  
    24   21   22 1  
    25   21   23 1  
    26   24   25 2  
    27   24   26 am 
    28   26   27 1  
    29   27   28 1  
    30   27   33 1  
    31   28   29 1  
    32   29   30 1  
    33   29   31 1  
    34   30   31 1  
    35   33   32 1  
    36   33   36 1  
    37   36   34 2  
    38   36   35 am 
    39    5   37 1  
    40    5   38 1  
    41    5   39 1  
    42    6   40 1  
    43    6   41 1  
    44    6   42 1  
    45    7   43 1  
    46    7   44 1  
    47    7   45 1  
    48    8   46 1  
    49    9   47 1  
    50   11   48 1  
    51   11   49 1  
    52   11   50 1  
    53   12   51 1  
    54   12   52 1  
    55   12   53 1  
    56   13   54 1  
    57   13   55 1  
    58   13   56 1  
    59   17   57 1  
    60   17   58 1  
    61   18   59 1  
    62   19   60 1  
    63   20   61 1  
    64   22   62 1  
    65   22   63 1  
    66   22   64 1  
    67   23   65 1  
    68   23   66 1  
    69   23   67 1  
    70   26   68 1  
    71   27   69 1  
    72   28   70 1  
    73   28   71 1  
    74   29   72 1  
    75   30   73 1  
    76   30   74 1  
    77   31   75 1  
    78   31   76 1  
    79   32   77 1  
    80   33   78 1  
    81   35   79 1  
    82   35   80 1  
@<TRIPOS>SUBSTRUCTURE
     1 HUD         1

