### 
### Created by X-TOOL on Mon Sep 10 21:12:55 2018
### 

@<TRIPOS>MOLECULE
2oc0_ligand
   87    90     1     0     0
SMALL
GAST_HUCK


@<TRIPOS>ATOM
      1 C1        192.0400  -10.3830   49.1750 C.2       1 HU1         0.3223
      2 O2        192.6100  -11.3340   49.7220 O.2       1 HU1        -0.3774
      3 O3        190.7010  -10.1490   49.1460 O.3       1 HU1        -0.2580
      4 C4        189.6590  -10.8590   49.8960 C.3       1 HU1         0.0905
      5 C5        188.8670  -11.6610   48.8600 C.3       1 HU1        -0.0320
      6 C6        188.6840   -9.8300   50.5060 C.3       1 HU1        -0.0320
      7 C7        190.1540  -11.7810   51.0490 C.3       1 HU1        -0.0320
      8 N8        192.6970   -9.4530   48.4900 N.am      1 HU1        -0.2409
      9 C9        194.1490   -9.4430   48.3710 C.3       1 HU1         0.1358
     10 C10       194.5800   -8.7860   47.0610 C.3       1 HU1        -0.0006
     11 C11       196.1050   -8.7530   46.9420 C.3       1 HU1        -0.0460
     12 C12       193.9770   -9.5210   45.8640 C.3       1 HU1        -0.0460
     13 C13       196.5840   -8.2110   45.6040 C.3       1 HU1        -0.0526
     14 C14       194.4350   -8.9710   44.5290 C.3       1 HU1        -0.0526
     15 C15       195.9540   -8.9900   44.4410 C.3       1 HU1        -0.0530
     16 C16       194.6890   -8.6180   49.5320 C.2       1 HU1         0.2066
     17 O17       194.4110   -7.4160   49.6280 O.2       1 HU1        -0.3942
     18 N18       195.4120   -9.2600   50.4620 N.am      1 HU1        -0.2492
     19 C19       195.7630  -10.6890   50.4960 C.3       1 HU1         0.0405
     20 C20       195.9690   -8.5470   51.6160 C.3       1 HU1         0.1372
     21 C21       196.4400   -9.5730   52.5860 C.3       1 HU1         0.0102
     22 C22       196.4840  -10.8420   51.8110 C.3       1 HU1        -0.0073
     23 C23       195.6430  -10.7580   53.0880 C.3       1 HU1        -0.0224
     24 C24       196.1630  -11.4340   54.3160 C.3       1 HU1        -0.0590
     25 C25       194.1510  -10.7130   52.9690 C.3       1 HU1        -0.0590
     26 C26       197.0190   -7.5340   51.1720 C.2       1 HU1         0.2026
     27 O27       198.0030   -7.8880   50.5080 O.2       1 HU1        -0.3945
     28 N28       196.8130   -6.2780   51.5510 N.am      1 HU1        -0.2772
     29 C29       197.7280   -5.2110   51.1700 C.3       1 HU1         0.0853
     30 C30       196.9610   -4.1400   50.3820 C.3       1 HU1        -0.0224
     31 C31       196.3330   -4.6740   49.0670 C.3       1 HU1        -0.0387
     32 C32       195.3550   -3.7610   48.3230 C.3       1 HU1        -0.0501
     33 C33       197.2360   -4.6540   47.8320 C.3       1 HU1        -0.0501
     34 C34       196.0300   -4.1670   47.0070 C.3       1 HU1        -0.0526
     35 O35       199.0140   -5.7020   53.2040 O.3       1 HU1        -0.3691
     36 C36       198.4720   -4.6140   52.3950 C.3       1 HU1         0.1660
     37 O37       199.4910   -2.7450   51.3070 O.2       1 HU1        -0.3943
     38 N38       200.9060   -4.3320   52.0080 N.am      1 HU1        -0.2987
     39 C39       199.6880   -3.8230   51.8580 C.2       1 HU1         0.2047
     40 H1        188.0647  -12.2197   49.3641 H         1 HU1         0.0260
     41 H2        189.5397  -12.3659   48.3495 H         1 HU1         0.0260
     42 H3        188.4275  -10.9738   48.1221 H         1 HU1         0.0260
     43 H4        187.9002  -10.3570   51.0698 H         1 HU1         0.0260
     44 H5        188.2224   -9.2399   49.7006 H         1 HU1         0.0260
     45 H6        189.2344   -9.1596   51.1825 H         1 HU1         0.0260
     46 H7        189.2894  -12.2565   51.5351 H         1 HU1         0.0260
     47 H8        190.7055  -11.1806   51.7875 H         1 HU1         0.0260
     48 H9        190.8168  -12.5573   50.6389 H         1 HU1         0.0260
     49 H10       192.1736   -8.7308   48.0379 H         1 HU1         0.1899
     50 H11       194.5379  -10.4709   48.4164 H         1 HU1         0.0802
     51 H12       194.2090   -7.7505   47.0563 H         1 HU1         0.0348
     52 H13       196.4885   -9.7768   47.0632 H         1 HU1         0.0270
     53 H14       196.5056   -8.1141   47.7428 H         1 HU1         0.0270
     54 H15       192.8816   -9.4370   45.9186 H         1 HU1         0.0270
     55 H16       194.2670  -10.5805   45.9228 H         1 HU1         0.0270
     56 H17       197.6787   -8.3039   45.5487 H         1 HU1         0.0265
     57 H18       196.3013   -7.1511   45.5226 H         1 HU1         0.0265
     58 H19       194.0786   -7.9359   44.4218 H         1 HU1         0.0265
     59 H20       194.0173   -9.5883   43.7200 H         1 HU1         0.0265
     60 H21       196.3029  -10.0326   44.4759 H         1 HU1         0.0265
     61 H22       196.2647   -8.5310   43.4909 H         1 HU1         0.0265
     62 H23       196.4200  -10.9528   49.6542 H         1 HU1         0.0527
     63 H24       194.8601  -11.3166   50.4671 H         1 HU1         0.0527
     64 H25       195.1605   -7.9789   52.0994 H         1 HU1         0.0805
     65 H26       197.2549   -9.1883   53.2169 H         1 HU1         0.0357
     66 H27       197.3705  -11.4897   51.7427 H         1 HU1         0.0331
     67 H28       195.4540  -11.2863   55.1439 H         1 HU1         0.0235
     68 H29       197.1380  -11.0028   54.5869 H         1 HU1         0.0235
     69 H30       196.2795  -12.5102   54.1207 H         1 HU1         0.0235
     70 H31       193.8729  -10.1985   52.0374 H         1 HU1         0.0235
     71 H32       193.7309  -10.1690   53.8278 H         1 HU1         0.0235
     72 H33       193.7532  -11.7384   52.9543 H         1 HU1         0.0235
     73 H34       196.0127   -6.0603   52.1098 H         1 HU1         0.1857
     74 H35       198.4889   -5.6412   50.5023 H         1 HU1         0.0607
     75 H36       197.6574   -3.3265   50.1306 H         1 HU1         0.0292
     76 H37       196.1547   -3.7485   51.0196 H         1 HU1         0.0292
     77 H38       195.9113   -5.6677   49.2783 H         1 HU1         0.0302
     78 H39       195.4510   -2.6939   48.5721 H         1 HU1         0.0268
     79 H40       194.3004   -4.0631   48.4043 H         1 HU1         0.0268
     80 H41       197.6219   -5.6403   47.5347 H         1 HU1         0.0268
     81 H42       198.0679   -3.9365   47.8884 H         1 HU1         0.0268
     82 H43       196.2496   -3.3287   46.3295 H         1 HU1         0.0265
     83 H44       195.5072   -4.9598   46.4519 H         1 HU1         0.0265
     84 H45       198.3037   -6.2581   53.5015 H         1 HU1         0.2134
     85 H46       197.8030   -3.9729   52.9879 H         1 HU1         0.0861
     86 H47       201.7021   -3.8327   51.6662 H         1 HU1         0.1815
     87 H48       201.0266   -5.2145   52.4627 H         1 HU1         0.1815
@<TRIPOS>BOND
     1    1    2 2  
     2    1    3 1  
     3    1    8 am 
     4    3    4 1  
     5    4    5 1  
     6    4    6 1  
     7    4    7 1  
     8    8    9 1  
     9    9   10 1  
    10    9   16 1  
    11   10   11 1  
    12   10   12 1  
    13   11   13 1  
    14   12   14 1  
    15   13   15 1  
    16   14   15 1  
    17   16   17 2  
    18   16   18 am 
    19   18   19 1  
    20   18   20 1  
    21   19   22 1  
    22   20   21 1  
    23   20   26 1  
    24   21   22 1  
    25   21   23 1  
    26   22   23 1  
    27   23   24 1  
    28   23   25 1  
    29   26   27 2  
    30   26   28 am 
    31   28   29 1  
    32   29   30 1  
    33   29   36 1  
    34   30   31 1  
    35   31   32 1  
    36   31   33 1  
    37   32   34 1  
    38   33   34 1  
    39   36   35 1  
    40   36   39 1  
    41   39   37 2  
    42   39   38 am 
    43    5   40 1  
    44    5   41 1  
    45    5   42 1  
    46    6   43 1  
    47    6   44 1  
    48    6   45 1  
    49    7   46 1  
    50    7   47 1  
    51    7   48 1  
    52    8   49 1  
    53    9   50 1  
    54   10   51 1  
    55   11   52 1  
    56   11   53 1  
    57   12   54 1  
    58   12   55 1  
    59   13   56 1  
    60   13   57 1  
    61   14   58 1  
    62   14   59 1  
    63   15   60 1  
    64   15   61 1  
    65   19   62 1  
    66   19   63 1  
    67   20   64 1  
    68   21   65 1  
    69   22   66 1  
    70   24   67 1  
    71   24   68 1  
    72   24   69 1  
    73   25   70 1  
    74   25   71 1  
    75   25   72 1  
    76   28   73 1  
    77   29   74 1  
    78   30   75 1  
    79   30   76 1  
    80   31   77 1  
    81   32   78 1  
    82   32   79 1  
    83   33   80 1  
    84   33   81 1  
    85   34   82 1  
    86   34   83 1  
    87   35   84 1  
    88   36   85 1  
    89   38   86 1  
    90   38   87 1  
@<TRIPOS>SUBSTRUCTURE
     1 HU1         1

