### 
### Created by X-TOOL on Mon Sep 10 21:12:56 2018
### 

@<TRIPOS>MOLECULE
2oc4_ligand
   34    36     1     0     0
SMALL
GAST_HUCK


@<TRIPOS>ATOM
      1 C9         14.1980   12.2040   57.9560 C.2       1 IMH         0.0057
      2 C8         15.1630   12.6870   57.0880 C.2       1 IMH         0.0223
      3 N7         15.2610   11.7850   56.0510 N.pl3     1 IMH        -0.2895
      4 C5         14.4480   10.7210   56.2200 C.2       1 IMH         0.1348
      5 C6         14.1550    9.4790   55.5060 C.2       1 IMH         0.2413
      6 O6         14.8050    9.2510   54.3560 O.2       1 IMH        -0.4013
      7 N1         13.2360    8.6100   55.9980 N.am      1 IMH        -0.2067
      8 C2         12.5790    8.8600   57.1340 C.2       1 IMH         0.1146
      9 N3         12.8040    9.9710   57.8630 N.2       1 IMH        -0.3199
     10 C4         13.7070   10.8950   57.4600 C.2       1 IMH         0.0184
     11 O5'        17.3070   11.4670   60.0490 O.3       1 IMH        -0.3894
     12 C5'        16.5910   11.6550   61.2760 C.3       1 IMH         0.0894
     13 C4'        15.5100   12.7120   61.1510 C.3       1 IMH         0.0313
     14 N4'        15.2330   13.2530   59.8070 N.4       1 IMH         0.2435
     15 C3'        14.2040   12.0730   61.5930 C.3       1 IMH         0.1317
     16 O3'        13.7440   12.7910   62.7770 O.3       1 IMH        -0.3832
     17 C2'        13.2680   12.0680   60.3560 C.3       1 IMH         0.1327
     18 O2'        11.9580   12.5470   60.6630 O.3       1 IMH        -0.3821
     19 C1'        13.9000   12.9260   59.2270 C.3       1 IMH         0.0244
     20 H1         15.7360   13.6059   57.2032 H         1 IMH         0.0779
     21 H2         15.8834   11.9086   55.2397 H         1 IMH         0.2273
     22 H3         13.0465    7.7642   55.4993 H         1 IMH         0.2519
     23 H4         11.8374    8.1426   57.4824 H         1 IMH         0.1426
     24 H5         17.7200   12.2844   59.7962 H         1 IMH         0.2097
     25 H6         17.3011   11.9648   62.0569 H         1 IMH         0.0614
     26 H7         16.1231   10.7018   61.5631 H         1 IMH         0.0614
     27 H8         15.7748   13.5486   61.8143 H         1 IMH         0.0900
     28 H9         15.9369   12.8951   59.1805 H         1 IMH         0.2029
     29 H10        15.3079   14.2569   59.8583 H         1 IMH         0.2029
     30 H11        14.3809   11.0273   61.8848 H         1 IMH         0.0680
     31 H12        12.9261   12.4126   63.0776 H         1 IMH         0.2102
     32 H13        13.1764   11.0314   59.9996 H         1 IMH         0.0693
     33 H14        12.0155   13.4391   60.9846 H         1 IMH         0.2103
     34 H15        13.2877   13.8168   59.0233 H         1 IMH         0.0961
@<TRIPOS>BOND
     1    1    2 2  
     2    1   10 1  
     3   19    1 1  
     4    2    3 1  
     5    4    3 1  
     6    4    5 1  
     7   10    4 2  
     8    5    6 2  
     9    5    7 am 
    10    8    7 am 
    11    9    8 2  
    12   10    9 1  
    13   12   11 1  
    14   13   12 1  
    15   14   13 1  
    16   13   15 1  
    17   14   19 1  
    18   15   16 1  
    19   15   17 1  
    20   17   18 1  
    21   17   19 1  
    22    2   20 1  
    23    3   21 1  
    24    7   22 1  
    25    8   23 1  
    26   11   24 1  
    27   12   25 1  
    28   12   26 1  
    29   13   27 1  
    30   14   28 1  
    31   14   29 1  
    32   15   30 1  
    33   16   31 1  
    34   17   32 1  
    35   18   33 1  
    36   19   34 1  
@<TRIPOS>SUBSTRUCTURE
     1 IMH         1

