### 
### Created by X-TOOL on Mon Sep 10 21:12:55 2018
### 

@<TRIPOS>MOLECULE
2oc7_ligand
   88    91     1     0     0
SMALL
GAST_HUCK


@<TRIPOS>ATOM
      1 C1        192.7250  -10.6490   49.1130 C.2       1 HU4         0.3223
      2 O2        193.3580  -11.4910   49.7560 O.2       1 HU4        -0.3774
      3 O3        191.3810  -10.5690   48.9730 O.3       1 HU4        -0.2580
      4 C4        190.4070  -11.2010   49.8190 C.3       1 HU4         0.0905
      5 C5        190.6910  -11.2060   51.3550 C.3       1 HU4        -0.0320
      6 C6        189.0400  -10.4330   49.5490 C.3       1 HU4        -0.0320
      7 C7        190.3320  -12.6770   49.4030 C.3       1 HU4        -0.0320
      8 N8        193.3190   -9.7090   48.3960 N.am      1 HU4        -0.2409
      9 C9        194.7620   -9.5400   48.3790 C.3       1 HU4         0.1358
     10 C10       195.1750   -8.7490   47.1390 C.3       1 HU4        -0.0006
     11 C11       196.6720   -8.4660   47.1090 C.3       1 HU4        -0.0460
     12 C12       194.7380   -9.4450   45.8480 C.3       1 HU4        -0.0460
     13 C13       197.0680   -7.6600   45.8650 C.3       1 HU4        -0.0526
     14 C14       195.0970   -8.6450   44.6050 C.3       1 HU4        -0.0526
     15 C15       196.5990   -8.3410   44.5730 C.3       1 HU4        -0.0530
     16 C16       195.1180   -8.7110   49.6160 C.2       1 HU4         0.2067
     17 O17       194.6500   -7.5760   49.7710 O.2       1 HU4        -0.3942
     18 N18       195.8910   -9.2890   50.5460 N.am      1 HU4        -0.2469
     19 C19       196.4960  -10.6250   50.4700 C.3       1 HU4         0.0635
     20 C20       196.2880   -8.5810   51.7640 C.3       1 HU4         0.1415
     21 C21       196.7040   -9.6880   52.6660 C.3       1 HU4         0.0562
     22 C22       197.2860  -10.7080   51.7900 C.3       1 HU4         0.0894
     23 O23       196.7240  -11.7030   52.6760 O.3       1 HU4        -0.3675
     24 C24       195.8440  -10.7350   53.3100 C.3       1 HU4         0.0739
     25 C25       195.8740  -10.8610   54.7700 C.3       1 HU4        -0.0355
     26 C26       194.3810  -10.6980   52.9800 C.3       1 HU4        -0.0355
     27 C27       197.3900   -7.5800   51.4400 C.2       1 HU4         0.2028
     28 O28       198.4760   -7.9590   50.9950 O.2       1 HU4        -0.3945
     29 N29       197.1140   -6.3000   51.6690 N.am      1 HU4        -0.2772
     30 C30       198.0890   -5.2560   51.3720 C.3       1 HU4         0.0853
     31 C31       197.4180   -4.1460   50.5450 C.3       1 HU4        -0.0224
     32 C32       196.7120   -4.6860   49.2610 C.3       1 HU4        -0.0387
     33 C33       197.5840   -5.0330   48.0550 C.3       1 HU4        -0.0501
     34 C34       195.8900   -3.7370   48.3940 C.3       1 HU4        -0.0501
     35 C35       196.5200   -4.4000   47.1650 C.3       1 HU4        -0.0526
     36 O36       199.1910   -5.7930   53.4620 O.3       1 HU4        -0.3691
     37 C37       198.8370   -4.7080   52.6190 C.3       1 HU4         0.1660
     38 O38       200.1230   -2.9080   51.7860 O.2       1 HU4        -0.3943
     39 N39       201.3000   -4.7280   52.4260 N.am      1 HU4        -0.2987
     40 C40       200.1640   -4.0530   52.2470 C.2       1 HU4         0.2047
     41 H1        189.8701  -11.7185   51.8780 H         1 HU4         0.0260
     42 H2        190.7664  -10.1701   51.7173 H         1 HU4         0.0260
     43 H3        191.6364  -11.7330   51.5514 H         1 HU4         0.0260
     44 H4        188.2448  -10.8704   50.1705 H         1 HU4         0.0260
     45 H5        188.7695  -10.5282   48.4870 H         1 HU4         0.0260
     46 H6        189.1606   -9.3695   49.8028 H         1 HU4         0.0260
     47 H7        189.5936  -13.1977   50.0304 H         1 HU4         0.0260
     48 H8        191.3188  -13.1452   49.5331 H         1 HU4         0.0260
     49 H9        190.0298  -12.7456   48.3476 H         1 HU4         0.0260
     50 H10       192.7548   -9.0930   47.8463 H         1 HU4         0.1899
     51 H11       195.2689  -10.5160   48.3979 H         1 HU4         0.0802
     52 H12       194.6568   -7.7798   47.1845 H         1 HU4         0.0348
     53 H13       197.2163   -9.4219   47.1035 H         1 HU4         0.0270
     54 H14       196.9455   -7.8935   48.0076 H         1 HU4         0.0270
     55 H15       193.6473   -9.5851   45.8745 H         1 HU4         0.0270
     56 H16       195.2325  -10.4259   45.7912 H         1 HU4         0.0270
     57 H17       198.1632   -7.5613   45.8382 H         1 HU4         0.0265
     58 H18       196.6112   -6.6613   45.9273 H         1 HU4         0.0265
     59 H19       194.5368   -7.6983   44.6103 H         1 HU4         0.0265
     60 H20       194.8269   -9.2260   43.7109 H         1 HU4         0.0265
     61 H21       197.1509   -9.2841   44.4466 H         1 HU4         0.0265
     62 H22       196.8099   -7.6759   43.7227 H         1 HU4         0.0265
     63 H23       197.1645  -10.7100   49.6006 H         1 HU4         0.0550
     64 H24       195.7253  -11.4082   50.4180 H         1 HU4         0.0550
     65 H25       195.4366   -8.0387   52.2011 H         1 HU4         0.0807
     66 H26       197.3932   -9.2610   53.4095 H         1 HU4         0.0402
     67 H27       198.3771  -10.7193   51.6508 H         1 HU4         0.0622
     68 H28       195.1940  -11.6672   55.0825 H         1 HU4         0.0257
     69 H29       195.5530   -9.9131   55.2265 H         1 HU4         0.0257
     70 H30       196.8974  -11.0973   55.0967 H         1 HU4         0.0257
     71 H31       193.8646  -11.5111   53.5113 H         1 HU4         0.0257
     72 H32       194.2463  -10.8250   51.8957 H         1 HU4         0.0257
     73 H33       193.9593   -9.7309   53.2911 H         1 HU4         0.0257
     74 H34       196.2245   -6.0488   52.0507 H         1 HU4         0.1857
     75 H35       198.8578   -5.7138   50.7323 H         1 HU4         0.0607
     76 H36       198.1870   -3.4197   50.2433 H         1 HU4         0.0292
     77 H37       196.6672   -3.6452   51.1738 H         1 HU4         0.0292
     78 H38       196.1107   -5.5479   49.5859 H         1 HU4         0.0302
     79 H39       197.7312   -6.1111   47.8936 H         1 HU4         0.0268
     80 H40       198.5583   -4.5227   48.0346 H         1 HU4         0.0268
     81 H41       196.1401   -2.6730   48.5176 H         1 HU4         0.0268
     82 H42       194.8012   -3.8698   48.4769 H         1 HU4         0.0268
     83 H43       195.8654   -5.1263   46.6611 H         1 HU4         0.0265
     84 H44       196.9174   -3.6895   46.4252 H         1 HU4         0.0265
     85 H45       198.4042   -6.2497   53.7357 H         1 HU4         0.2134
     86 H46       198.1921   -3.9918   53.1493 H         1 HU4         0.0861
     87 H47       202.1747   -4.3074   52.1853 H         1 HU4         0.1815
     88 H48       201.2772   -5.6548   52.8009 H         1 HU4         0.1815
@<TRIPOS>BOND
     1    1    2 2  
     2    1    3 1  
     3    1    8 am 
     4    3    4 1  
     5    4    5 1  
     6    4    6 1  
     7    4    7 1  
     8    8    9 1  
     9    9   10 1  
    10    9   16 1  
    11   10   11 1  
    12   10   12 1  
    13   11   13 1  
    14   12   14 1  
    15   13   15 1  
    16   14   15 1  
    17   16   17 2  
    18   16   18 am 
    19   18   19 1  
    20   18   20 1  
    21   19   22 1  
    22   20   21 1  
    23   20   27 1  
    24   21   22 1  
    25   21   24 1  
    26   22   23 1  
    27   23   24 1  
    28   24   25 1  
    29   24   26 1  
    30   27   28 2  
    31   27   29 am 
    32   29   30 1  
    33   30   31 1  
    34   30   37 1  
    35   31   32 1  
    36   32   33 1  
    37   32   34 1  
    38   33   35 1  
    39   34   35 1  
    40   37   36 1  
    41   37   40 1  
    42   40   38 2  
    43   40   39 am 
    44    5   41 1  
    45    5   42 1  
    46    5   43 1  
    47    6   44 1  
    48    6   45 1  
    49    6   46 1  
    50    7   47 1  
    51    7   48 1  
    52    7   49 1  
    53    8   50 1  
    54    9   51 1  
    55   10   52 1  
    56   11   53 1  
    57   11   54 1  
    58   12   55 1  
    59   12   56 1  
    60   13   57 1  
    61   13   58 1  
    62   14   59 1  
    63   14   60 1  
    64   15   61 1  
    65   15   62 1  
    66   19   63 1  
    67   19   64 1  
    68   20   65 1  
    69   21   66 1  
    70   22   67 1  
    71   25   68 1  
    72   25   69 1  
    73   25   70 1  
    74   26   71 1  
    75   26   72 1  
    76   26   73 1  
    77   29   74 1  
    78   30   75 1  
    79   31   76 1  
    80   31   77 1  
    81   32   78 1  
    82   33   79 1  
    83   33   80 1  
    84   34   81 1  
    85   34   82 1  
    86   35   83 1  
    87   35   84 1  
    88   36   85 1  
    89   37   86 1  
    90   39   87 1  
    91   39   88 1  
@<TRIPOS>SUBSTRUCTURE
     1 HU4         1

