### 
### Created by X-TOOL on Mon Sep 10 21:12:55 2018
### 

@<TRIPOS>MOLECULE
2oc9_ligand
   34    36     1     0     0
SMALL
GAST_HUCK


@<TRIPOS>ATOM
      1 C9         14.2130   12.0870   57.9840 C.2       1 IMH         0.0057
      2 C8         15.2090   12.5680   57.1330 C.2       1 IMH         0.0223
      3 N7         15.3460   11.6640   56.1090 N.pl3     1 IMH        -0.2895
      4 C5         14.5020   10.6050   56.2370 C.2       1 IMH         0.1348
      5 C6         14.2130    9.3650   55.4990 C.2       1 IMH         0.2413
      6 O6         14.8800    9.0680   54.3550 O.2       1 IMH        -0.4013
      7 N1         13.2750    8.5230   55.9910 N.am      1 IMH        -0.2067
      8 C2         12.5910    8.7680   57.1150 C.2       1 IMH         0.1146
      9 N3         12.7970    9.8810   57.8460 N.2       1 IMH        -0.3199
     10 C4         13.7200   10.7860   57.4570 C.2       1 IMH         0.0184
     11 O5'        17.6340   11.8410   60.4520 O.3       1 IMH        -0.3894
     12 C5'        16.4120   11.3680   61.0290 C.3       1 IMH         0.0894
     13 C4'        15.4160   12.5150   61.1480 C.3       1 IMH         0.0313
     14 N4'        15.1570   13.1740   59.8610 N.4       1 IMH         0.2435
     15 C3'        14.0370   12.0220   61.6120 C.3       1 IMH         0.1317
     16 O3'        13.6610   12.7620   62.8180 O.3       1 IMH        -0.3832
     17 C2'        13.0920   12.1260   60.3750 C.3       1 IMH         0.1327
     18 O2'        11.8380   12.7790   60.6520 O.3       1 IMH        -0.3821
     19 C1'        13.8560   12.8480   59.2320 C.3       1 IMH         0.0244
     20 H1         15.7737   13.4907   57.2582 H         1 IMH         0.0779
     21 H2         16.0125   11.7751   55.3316 H         1 IMH         0.2273
     22 H3         13.0839    7.6781   55.4914 H         1 IMH         0.2519
     23 H4         11.8463    8.0468   57.4485 H         1 IMH         0.1426
     24 H5         18.2492   11.1206   60.3813 H         1 IMH         0.2097
     25 H6         16.6159   10.9570   62.0287 H         1 IMH         0.0614
     26 H7         15.9870   10.5810   60.3887 H         1 IMH         0.0614
     27 H8         15.8143   13.2464   61.8666 H         1 IMH         0.0900
     28 H9         15.8880   12.9053   59.2211 H         1 IMH         0.2029
     29 H10        15.1898   14.1705   60.0094 H         1 IMH         0.2029
     30 H11        14.1031   10.9599   61.8904 H         1 IMH         0.0680
     31 H12        14.3068   12.6073   63.4974 H         1 IMH         0.2102
     32 H13        12.8604   11.1031   60.0434 H         1 IMH         0.0693
     33 H14        11.3152   12.8075   59.8593 H         1 IMH         0.2103
     34 H15        13.2984   13.7515   58.9445 H         1 IMH         0.0961
@<TRIPOS>BOND
     1    1    2 2  
     2    1   10 1  
     3   19    1 1  
     4    2    3 1  
     5    4    3 1  
     6    4    5 1  
     7   10    4 2  
     8    5    6 2  
     9    5    7 am 
    10    8    7 am 
    11    9    8 2  
    12   10    9 1  
    13   12   11 1  
    14   13   12 1  
    15   14   13 1  
    16   13   15 1  
    17   14   19 1  
    18   15   16 1  
    19   15   17 1  
    20   17   18 1  
    21   17   19 1  
    22    2   20 1  
    23    3   21 1  
    24    7   22 1  
    25    8   23 1  
    26   11   24 1  
    27   12   25 1  
    28   12   26 1  
    29   13   27 1  
    30   14   28 1  
    31   14   29 1  
    32   15   30 1  
    33   16   31 1  
    34   17   32 1  
    35   18   33 1  
    36   19   34 1  
@<TRIPOS>SUBSTRUCTURE
     1 IMH         1

