### 
### Created by X-TOOL on Mon Sep 10 21:12:55 2018
### 

@<TRIPOS>MOLECULE
2oei_ligand
  130   137     1     0     0
SMALL
GAST_HUCK


@<TRIPOS>ATOM
      1 N           1.8360   -1.9260   15.2780 N.4       1 PRO         0.2465
      2 CA          3.0590   -1.2800   15.6830 C.3       1 PRO         0.0729
      3 C           2.8950    0.2340   15.8520 C.2       1 PRO         0.2547
      4 O           1.8640    0.7750   15.4500 O.2       1 PRO        -0.3789
      5 CB          4.0050   -1.5450   14.5030 C.3       1 PRO         0.0132
      6 CG          3.5200   -2.7430   13.8830 C.3       1 PRO        -0.0053
      7 CD          2.0550   -2.8900   14.1860 C.3       1 PRO        -0.0313
      8 N           3.8820    0.9080   16.4520 N.am      1 PRO        -0.2099
      9 CA          3.7750    2.3590   16.5300 C.3       1 PRO         0.1552
     10 C           3.8960    2.9500   15.1270 C.2       1 PRO         0.2135
     11 O           4.3190    2.2690   14.1830 O.2       1 PRO        -0.3934
     12 CB          4.9750    2.7700   17.3830 C.3       1 PRO        -0.0019
     13 CG          5.6640    1.4400   17.7810 C.2       1 PRO        -0.0883
     14 CD          5.1550    0.3950   16.9950 C.2       1 PRO         0.0156
     15 N           3.5360    4.2220   14.9800 N.am      1 PRO        -0.2493
     16 CA          3.5960    4.8450   13.6590 C.3       1 PRO         0.1343
     17 C           5.0080    5.0320   13.1520 C.2       1 PRO         0.2098
     18 O           6.0010    4.9650   13.9210 O.2       1 PRO        -0.3939
     19 CB          2.9720    6.2100   13.9040 C.3       1 PRO        -0.0104
     20 CG          3.2060    6.4960   15.3380 C.3       1 PRO        -0.0281
     21 CD          3.1260    5.1660   16.0280 C.3       1 PRO         0.0370
     22 N           5.1390    5.3220   11.8420 N.am      1 PRO        -0.2340
     23 CA          6.4660    5.5880   11.3410 C.3       1 PRO         0.1524
     24 C           7.0930    6.7800   12.0400 C.2       1 PRO         0.2148
     25 O           6.4050    7.7690   12.3120 O.2       1 PRO        -0.3917
     26 CB          6.2450    5.8090    9.8360 C.2       1 PRO        -0.0526
     27 CG          4.8460    5.9900    9.6830 C.2       1 PRO        -0.0712
     28 CD          4.1080    5.4120   10.7910 C.3       1 PRO         0.0563
     29 N           8.3950    6.6950   12.3380 N.am      1 PRO        -0.2485
     30 CA          9.0340    7.8160   12.9920 C.3       1 PRO         0.1341
     31 C           9.2940    8.9990   12.0330 C.2       1 PRO         0.2066
     32 O           9.2100    8.8640   10.8070 O.2       1 PRO        -0.3942
     33 CB         10.4050    7.2350   13.3950 C.3       1 PRO        -0.0104
     34 CG         10.6390    6.1070   12.4760 C.3       1 PRO        -0.0281
     35 CD          9.3300    5.5920   12.0740 C.3       1 PRO         0.0370
     36 N           9.5430   10.1610   12.5730 N.am      1 PRO        -0.2498
     37 CA          9.9050   11.3060   11.6980 C.3       1 PRO         0.1338
     38 C          11.3060   11.0720   11.1580 C.2       1 PRO         0.2041
     39 O          12.0960   10.2830   11.7420 O.2       1 PRO        -0.3944
     40 CB         10.0170   12.4590   12.6740 C.3       1 PRO        -0.0104
     41 CG         10.3300   11.7530   13.9900 C.3       1 PRO        -0.0281
     42 CD          9.5520   10.5170   14.0030 C.3       1 PRO         0.0369
     43 N          11.6370   11.8020   10.1060 N.am      1 LEU        -0.2637
     44 CA         12.9710   11.7630    9.5840 C.3       1 LEU         0.1314
     45 C          13.8290   12.5900   10.4300 C.2       1 LEU         0.2064
     46 O          13.4200   13.6840   10.8660 O.2       1 LEU        -0.3942
     47 CB         13.0730   12.3230    8.1800 C.3       1 LEU        -0.0101
     48 CG         12.4630   11.5240    7.0680 C.3       1 LEU        -0.0425
     49 CD1        12.5940   12.3440    5.7580 C.3       1 LEU        -0.0625
     50 CD2        13.1210   10.1340    6.8410 C.3       1 LEU        -0.0625
     51 N          15.0600   12.1070   10.7080 N.am      1 PRO        -0.2498
     52 CA         15.9520   12.8850   11.5390 C.3       1 PRO         0.1339
     53 C          16.4170   14.0850   10.7510 C.2       1 PRO         0.2060
     54 O          16.3100   14.0710    9.5140 O.2       1 PRO        -0.3942
     55 CB         17.1330   11.9530   11.7900 C.3       1 PRO        -0.0104
     56 CG         17.0510   10.9130   10.7360 C.3       1 PRO        -0.0281
     57 CD         15.6340   10.8020   10.3150 C.3       1 PRO         0.0369
     58 N          16.9570   15.1120   11.4470 N.am      1 PRO        -0.2556
     59 CA         17.4150   16.3620   10.8290 C.3       1 PRO         0.0972
     60 C          18.4040   16.1610    9.6700 C.2       1 PRO         0.0603
     61 O          18.3820   16.9290    8.7060 O.co2     1 PRO        -0.5666
     62 CB         18.0960   17.1150   11.9900 C.3       1 PRO        -0.0159
     63 CG         18.2170   16.1370   13.1090 C.3       1 PRO        -0.0288
     64 CD         17.1290   15.1330   12.9070 C.3       1 PRO         0.0362
     65 H1          1.1849   -1.2229   14.9653 H         1 PRO         0.2035
     66 H2          1.4485   -2.4144   16.0700 H         1 PRO         0.2035
     67 H3          3.4424   -1.7187   16.6160 H         1 PRO         0.1103
     68 H4          5.0352   -1.6878   14.8611 H         1 PRO         0.0347
     69 H5          3.9768   -0.7061   13.7921 H         1 PRO         0.0347
     70 H6          4.0676   -3.6111   14.2785 H         1 PRO         0.0320
     71 H7          3.6674   -2.6812   12.7947 H         1 PRO         0.0320
     72 H8          1.4436   -2.6359   13.3076 H         1 PRO         0.0814
     73 H9          1.8210   -3.9142   14.5118 H         1 PRO         0.0814
     74 H10         2.8278    2.6702   16.9946 H         1 PRO         0.0883
     75 H11         4.6431    3.3157   18.2786 H         1 PRO         0.0385
     76 H12         5.6628    3.4022   16.8023 H         1 PRO         0.0385
     77 H13         6.4257    1.3330   18.5519 H         1 PRO         0.0218
     78 H14         5.6024   -0.5828   16.8229 H         1 PRO         0.0803
     79 H15         3.0180    4.2615   12.9273 H         1 PRO         0.0802
     80 H16         1.8939    6.1851   13.6872 H         1 PRO         0.0313
     81 H17         3.4549    6.9727   13.2754 H         1 PRO         0.0313
     82 H18         2.4343    7.1775   15.7254 H         1 PRO         0.0287
     83 H19         4.1992    6.9459   15.4836 H         1 PRO         0.0287
     84 H20         3.8120    5.1249   16.8869 H         1 PRO         0.0524
     85 H21         2.1005    4.9583   16.3674 H         1 PRO         0.0524
     86 H22         7.1151    4.7140   11.4986 H         1 PRO         0.0924
     87 H23         7.0018    5.8236    9.0531 H         1 PRO         0.0494
     88 H24         4.3834    6.4994    8.8389 H         1 PRO         0.0482
     89 H25         3.2788    6.0649   11.1011 H         1 PRO         0.0653
     90 H26         3.7149    4.4178   10.5323 H         1 PRO         0.0653
     91 H27         8.4517    8.1529   13.8623 H         1 PRO         0.0802
     92 H28        10.3826    6.8837   14.4371 H         1 PRO         0.0313
     93 H29        11.1930    7.9940   13.2807 H         1 PRO         0.0313
     94 H30        11.2126    5.3191   12.9861 H         1 PRO         0.0287
     95 H31        11.1953    6.4515   11.5918 H         1 PRO         0.0287
     96 H32         9.3282    5.3299   11.0057 H         1 PRO         0.0524
     97 H33         9.0626    4.7065   12.6693 H         1 PRO         0.0524
     98 H34         9.1724   11.4815   10.8965 H         1 PRO         0.0802
     99 H35         9.0717   13.0178   12.7384 H         1 PRO         0.0313
    100 H36        10.8290   13.1437   12.3880 H         1 PRO         0.0313
    101 H37        10.0421   12.3902   14.8391 H         1 PRO         0.0287
    102 H38        11.4043   11.5245   14.0507 H         1 PRO         0.0287
    103 H39        10.0424    9.7398   14.6076 H         1 PRO         0.0524
    104 H40         8.5332   10.6874   14.3812 H         1 PRO         0.0524
    105 H41        10.9511   12.3857    9.6715 H         1 LEU         0.1883
    106 H42        13.3252   10.7216    9.5869 H         1 LEU         0.0800
    107 H43        14.1420   12.4434    7.9506 H         1 LEU         0.0315
    108 H44        12.5852   13.3089    8.1827 H         1 LEU         0.0315
    109 H45        11.3989   11.3677    7.2988 H         1 LEU         0.0298
    110 H46        12.1524   11.7773    4.9250 H         1 LEU         0.0232
    111 H47        13.6571   12.5342    5.5492 H         1 LEU         0.0232
    112 H48        12.0653   13.3020    5.8706 H         1 LEU         0.0232
    113 H49        13.0389    9.5350    7.7600 H         1 LEU         0.0232
    114 H50        14.1822   10.2682    6.5844 H         1 LEU         0.0232
    115 H51        12.6075    9.6152    6.0181 H         1 LEU         0.0232
    116 H52        15.4717   13.1958   12.4785 H         1 PRO         0.0802
    117 H53        17.0561   11.4957   12.7875 H         1 PRO         0.0313
    118 H54        18.0812   12.5050   11.7118 H         1 PRO         0.0313
    119 H55        17.3991    9.9486   11.1345 H         1 PRO         0.0287
    120 H56        17.6746   11.2014    9.8770 H         1 PRO         0.0287
    121 H57        15.5565   10.6484    9.2286 H         1 PRO         0.0524
    122 H58        15.1307    9.9761   10.8390 H         1 PRO         0.0524
    123 H59        16.5507   16.9304   10.4550 H         1 PRO         0.0728
    124 O1         19.2347   15.2142    9.7050 O.co2     1 PRO        -0.5666
    125 H61        17.4820   17.9736   12.2993 H         1 PRO         0.0306
    126 H62        19.0917   17.4678   11.6832 H         1 PRO         0.0306
    127 H63        18.0906   16.6465   14.0757 H         1 PRO         0.0286
    128 H64        19.2001   15.6444   13.0799 H         1 PRO         0.0286
    129 H65        17.4303   14.1441   13.2828 H         1 PRO         0.0524
    130 H66        16.2026   15.4493   13.4087 H         1 PRO         0.0524
@<TRIPOS>BOND
     1    1    2 1  
     2    1    7 1  
     3    2    3 1  
     4    2    5 1  
     5    3    4 2  
     6    3    8 am 
     7    5    6 1  
     8    6    7 1  
     9    8    9 1  
    10    8   14 1  
    11    9   10 1  
    12    9   12 1  
    13   10   11 2  
    14   10   15 am 
    15   12   13 1  
    16   13   14 2  
    17   15   16 1  
    18   15   21 1  
    19   16   17 1  
    20   16   19 1  
    21   17   18 2  
    22   17   22 am 
    23   19   20 1  
    24   20   21 1  
    25   22   23 1  
    26   22   28 1  
    27   23   24 1  
    28   23   26 1  
    29   24   25 2  
    30   24   29 am 
    31   26   27 2  
    32   27   28 1  
    33   29   30 1  
    34   29   35 1  
    35   30   31 1  
    36   30   33 1  
    37   31   32 2  
    38   31   36 am 
    39   33   34 1  
    40   34   35 1  
    41   36   37 1  
    42   36   42 1  
    43   37   38 1  
    44   37   40 1  
    45   38   39 2  
    46   38   43 am 
    47   40   41 1  
    48   41   42 1  
    49   43   44 1  
    50   44   45 1  
    51   44   47 1  
    52   45   46 2  
    53   45   51 am 
    54   47   48 1  
    55   48   49 1  
    56   48   50 1  
    57   51   52 1  
    58   51   57 1  
    59   52   53 1  
    60   52   55 1  
    61   53   54 2  
    62   53   58 am 
    63   55   56 1  
    64   56   57 1  
    65   58   59 1  
    66   58   64 1  
    67   59   60 1  
    68   59   62 1  
    69   60   61 ar 
    70   62   63 1  
    71   63   64 1  
    72    1   65 1  
    73    1   66 1  
    74    2   67 1  
    75    5   68 1  
    76    5   69 1  
    77    6   70 1  
    78    6   71 1  
    79    7   72 1  
    80    7   73 1  
    81    9   74 1  
    82   12   75 1  
    83   12   76 1  
    84   13   77 1  
    85   14   78 1  
    86   16   79 1  
    87   19   80 1  
    88   19   81 1  
    89   20   82 1  
    90   20   83 1  
    91   21   84 1  
    92   21   85 1  
    93   23   86 1  
    94   26   87 1  
    95   27   88 1  
    96   28   89 1  
    97   28   90 1  
    98   30   91 1  
    99   33   92 1  
   100   33   93 1  
   101   34   94 1  
   102   34   95 1  
   103   35   96 1  
   104   35   97 1  
   105   37   98 1  
   106   40   99 1  
   107   40  100 1  
   108   41  101 1  
   109   41  102 1  
   110   42  103 1  
   111   42  104 1  
   112   43  105 1  
   113   44  106 1  
   114   47  107 1  
   115   47  108 1  
   116   48  109 1  
   117   49  110 1  
   118   49  111 1  
   119   49  112 1  
   120   50  113 1  
   121   50  114 1  
   122   50  115 1  
   123   52  116 1  
   124   55  117 1  
   125   55  118 1  
   126   56  119 1  
   127   56  120 1  
   128   57  121 1  
   129   57  122 1  
   130   59  123 1  
   131   60  124 ar 
   132   62  125 1  
   133   62  126 1  
   134   63  127 1  
   135   63  128 1  
   136   64  129 1  
   137   64  130 1  
@<TRIPOS>SUBSTRUCTURE
     1 PRO         1

