### 
### Created by X-TOOL on Mon Sep 10 21:12:56 2018
### 

@<TRIPOS>MOLECULE
2of2_ligand
   58    62     1     0     0
SMALL
GAST_HUCK


@<TRIPOS>ATOM
      1 C1         23.3130   35.2040   82.6920 C.ar      1 547        -0.0177
      2 N2         24.6110   34.9970   82.3530 N.ar      1 547        -0.2933
      3 C3         25.6330   35.8390   82.7690 C.ar      1 547         0.1859
      4 C4         25.3670   36.9590   83.5920 C.ar      1 547         0.0526
      5 C5         23.9760   37.2040   83.9840 C.ar      1 547         0.0565
      6 C6         22.9540   36.2980   83.5210 C.ar      1 547        -0.0300
      7 O9         26.9560   35.7210   82.4870 O.3       1 547        -0.2359
      8 C10        27.5720   36.7840   83.1180 C.2       1 547         0.1396
      9 C11        26.5570   37.6280   83.8630 C.2       1 547         0.0166
     10 C12        26.7120   38.8560   84.6820 C.ar      1 547        -0.0319
     11 C13        27.0220   40.1120   84.0560 C.ar      1 547        -0.0611
     12 C14        27.1840   41.2830   84.8650 C.ar      1 547        -0.0662
     13 C15        27.0370   41.1890   86.2990 C.ar      1 547        -0.0662
     14 C16        26.7220   39.9280   86.9320 C.ar      1 547        -0.0662
     15 C17        26.5620   38.7590   86.1200 C.ar      1 547        -0.0611
     16 C23        29.0530   36.9920   83.0270 C.ar      1 547         0.0179
     17 C24        29.7860   36.2420   82.0450 C.ar      1 547        -0.0514
     18 C25        31.2050   36.4270   81.9230 C.ar      1 547        -0.0618
     19 C26        31.8890   37.3710   82.7800 C.ar      1 547        -0.0624
     20 C27        31.1680   38.1210   83.7630 C.ar      1 547        -0.0618
     21 C28        29.7640   37.9300   83.8800 C.ar      1 547        -0.0514
     22 N34        23.6700   38.2800   84.7910 N.pl3     1 547        -0.3100
     23 C35        22.3130   38.5930   85.2200 C.3       1 547         0.0670
     24 C36        22.2460   39.8340   86.1150 C.3       1 547        -0.0109
     25 N39        23.0260   41.0020   85.6340 N.4       1 547         0.2441
     26 C42        23.2340   41.8710   86.8240 C.3       1 547         0.0095
     27 C43        24.0340   43.1270   86.4310 C.3       1 547         0.0077
     28 N44        23.3110   43.8450   85.3400 N.4       1 547         0.2345
     29 C45        23.0980   42.9700   84.1440 C.3       1 547         0.0077
     30 C46        22.2740   41.7390   84.5800 C.3       1 547         0.0095
     31 H1         22.5465   34.5298   82.3273 H         1 547         0.0722
     32 H2         21.9190   36.4517   83.8043 H         1 547         0.0499
     33 H3         27.1324   40.1728   82.9793 H         1 547         0.0581
     34 H4         27.4160   42.2358   84.4030 H         1 547         0.0605
     35 H5         27.1646   42.0761   86.9088 H         1 547         0.0580
     36 H6         26.6083   39.8679   88.0083 H         1 547         0.0605
     37 H7         26.3295   37.8051   86.5795 H         1 547         0.0581
     38 H8         29.2707   35.5401   81.3994 H         1 547         0.0621
     39 H9         31.7640   35.8589   81.1883 H         1 547         0.0616
     40 H10        32.9588   37.5117   82.6765 H         1 547         0.0612
     41 H11        31.6840   38.8232   84.4078 H         1 547         0.0616
     42 H12        29.2118   38.4961   84.6214 H         1 547         0.0621
     43 H13        24.4371   38.8913   85.1053 H         1 547         0.1816
     44 H14        21.9141   37.7340   85.7795 H         1 547         0.0573
     45 H15        21.6939   38.7690   84.3279 H         1 547         0.0573
     46 H16        22.6257   39.5574   87.1096 H         1 547         0.0835
     47 H17        21.1922   40.1386   86.1964 H         1 547         0.0835
     48 H18        23.9128   40.6998   85.2621 H         1 547         0.2038
     49 H19        23.7899   41.3110   87.5904 H         1 547         0.0868
     50 H20        22.2568   42.1741   87.2280 H         1 547         0.0868
     51 H21        25.0333   42.8319   86.0785 H         1 547         0.0867
     52 H22        24.1337   43.7885   87.3042 H         1 547         0.0867
     53 H23        23.8527   44.6489   85.0637 H         1 547         0.2018
     54 H24        22.4141   44.1472   85.6869 H         1 547         0.2018
     55 H25        24.0697   42.6439   83.7447 H         1 547         0.0867
     56 H26        22.5513   43.5271   83.3689 H         1 547         0.0867
     57 H27        21.3036   42.0676   84.9805 H         1 547         0.0868
     58 H28        22.1095   41.0799   83.7149 H         1 547         0.0868
@<TRIPOS>BOND
     1    1    2 ar 
     2    1    6 ar 
     3    2    3 ar 
     4    3    4 ar 
     5    3    7 1  
     6    4    5 ar 
     7    4    9 1  
     8    5    6 ar 
     9    5   22 1  
    10    7    8 1  
    11    8    9 2  
    12    8   16 1  
    13    9   10 1  
    14   10   11 ar 
    15   10   15 ar 
    16   11   12 ar 
    17   12   13 ar 
    18   13   14 ar 
    19   14   15 ar 
    20   16   17 ar 
    21   16   21 ar 
    22   17   18 ar 
    23   18   19 ar 
    24   19   20 ar 
    25   20   21 ar 
    26   22   23 1  
    27   23   24 1  
    28   24   25 1  
    29   25   26 1  
    30   25   30 1  
    31   26   27 1  
    32   27   28 1  
    33   28   29 1  
    34   29   30 1  
    35    1   31 1  
    36    6   32 1  
    37   11   33 1  
    38   12   34 1  
    39   13   35 1  
    40   14   36 1  
    41   15   37 1  
    42   17   38 1  
    43   18   39 1  
    44   19   40 1  
    45   20   41 1  
    46   21   42 1  
    47   22   43 1  
    48   23   44 1  
    49   23   45 1  
    50   24   46 1  
    51   24   47 1  
    52   25   48 1  
    53   26   49 1  
    54   26   50 1  
    55   27   51 1  
    56   27   52 1  
    57   28   53 1  
    58   28   54 1  
    59   29   55 1  
    60   29   56 1  
    61   30   57 1  
    62   30   58 1  
@<TRIPOS>SUBSTRUCTURE
     1 547         1

