### 
### Created by X-TOOL on Mon Sep 10 21:12:56 2018
### 

@<TRIPOS>MOLECULE
2of4_ligand
   57    61     1     0     0
SMALL
GAST_HUCK


@<TRIPOS>ATOM
      1 C1         23.7940   35.5150   82.2490 C.ar      1 979         0.0554
      2 N2         25.0750   35.3570   81.9170 N.ar      1 979        -0.2620
      3 C3         26.0620   36.1730   82.4300 C.ar      1 979         0.2013
      4 C4         25.7800   37.1810   83.3690 C.ar      1 979         0.0757
      5 C5         24.3740   37.2860   83.7100 C.ar      1 979         0.1261
      6 N6         23.4700   36.4580   83.1500 N.ar      1 979        -0.2686
      7 O8         27.3950   36.1010   82.1700 O.3       1 979        -0.2284
      8 C9         27.9960   37.0940   82.9060 C.2       1 979         0.1438
      9 C10        26.9600   37.8360   83.7520 C.2       1 979         0.0223
     10 N11        23.8520   38.1850   84.5990 N.pl3     1 979        -0.2955
     11 C12        23.4060   39.4830   84.1250 C.3       1 979         0.0701
     12 C13        23.2350   40.4470   85.3080 C.3       1 979        -0.0104
     13 N16        22.8660   41.8560   84.9380 N.4       1 979         0.2442
     14 C33        27.1280   38.9960   84.7050 C.ar      1 979        -0.0309
     15 C34        27.7660   40.2210   84.2560 C.ar      1 979        -0.0609
     16 C35        27.9840   41.2870   85.1840 C.ar      1 979        -0.0660
     17 C36        27.5780   41.1180   86.5610 C.ar      1 979        -0.0660
     18 C37        26.9280   39.9080   87.0130 C.ar      1 979        -0.0660
     19 C38        26.7200   38.8460   86.0890 C.ar      1 979        -0.0609
     20 C44        29.4860   37.2940   82.8560 C.ar      1 979         0.0192
     21 C45        30.2230   36.7880   81.7100 C.ar      1 979        -0.0510
     22 C46        31.6410   36.9820   81.6450 C.ar      1 979        -0.0615
     23 C47        32.3250   37.6860   82.7180 C.ar      1 979        -0.0622
     24 C48        31.6160   38.1900   83.8500 C.ar      1 979        -0.0615
     25 C49        30.2030   37.9940   83.9120 C.ar      1 979        -0.0510
     26 C2         22.7350   42.7020   86.1910 C.3       1 979         0.0095
     27 C7         23.8310   42.4720   83.9170 C.3       1 979         0.0095
     28 C11        24.1650   43.0430   86.7980 C.3       1 979         0.0077
     29 C15        25.1600   43.0400   84.5150 C.3       1 979         0.0077
     30 N1         25.0110   43.7710   85.8140 N.4       1 979         0.2345
     31 H1         23.0271   34.8940   81.8003 H         1 979         0.1000
     32 H2         23.7759   37.9430   85.5973 H         1 979         0.1867
     33 H3         22.4427   39.3695   83.6062 H         1 979         0.0580
     34 H4         24.1522   39.8917   83.4277 H         1 979         0.0580
     35 H5         24.1852   40.4784   85.8613 H         1 979         0.0835
     36 H6         22.4439   40.0483   85.9601 H         1 979         0.0835
     37 H7         21.9587   41.8236   84.5000 H         1 979         0.2038
     38 H8         28.0754   40.3268   83.2225 H         1 979         0.0583
     39 H9         28.4483   42.2109   84.8586 H         1 979         0.0606
     40 H10        27.7649   41.9160   87.2705 H         1 979         0.0581
     41 H11        26.6033   39.8112   88.0427 H         1 979         0.0606
     42 H12        26.2561   37.9238   86.4197 H         1 979         0.0583
     43 H13        29.7047   36.2687   80.9120 H         1 979         0.0623
     44 H14        32.2027   36.6049   80.7980 H         1 979         0.0616
     45 H15        33.3975   37.8314   82.6569 H         1 979         0.0614
     46 H16        32.1387   38.7099   84.6447 H         1 979         0.0616
     47 H17        29.6520   38.3749   84.7643 H         1 979         0.0623
     48 H18        22.1488   42.1487   86.9394 H         1 979         0.0868
     49 H19        22.2175   43.6396   85.9400 H         1 979         0.0868
     50 H20        23.3080   43.2949   83.4079 H         1 979         0.0868
     51 H21        24.0926   41.6947   83.1840 H         1 979         0.0868
     52 H22        24.6679   42.1058   87.0785 H         1 979         0.0867
     53 H23        24.0344   43.6708   87.6917 H         1 979         0.0867
     54 H24        25.5944   43.7346   83.7810 H         1 979         0.0867
     55 H25        25.8490   42.1976   84.6752 H         1 979         0.0867
     56 H26        25.9265   43.9043   86.2142 H         1 979         0.2018
     57 H27        24.5904   44.6685   85.6309 H         1 979         0.2018
@<TRIPOS>BOND
     1    1    2 ar 
     2    1    6 ar 
     3    2    3 ar 
     4    3    4 ar 
     5    3    7 1  
     6    4    5 ar 
     7    4    9 1  
     8    5    6 ar 
     9    5   10 1  
    10    7    8 1  
    11    8    9 2  
    12    8   20 1  
    13    9   14 1  
    14   10   11 1  
    15   11   12 1  
    16   12   13 1  
    17   13   26 1  
    18   13   27 1  
    19   14   15 ar 
    20   14   19 ar 
    21   15   16 ar 
    22   16   17 ar 
    23   17   18 ar 
    24   18   19 ar 
    25   20   21 ar 
    26   20   25 ar 
    27   21   22 ar 
    28   22   23 ar 
    29   23   24 ar 
    30   24   25 ar 
    31   26   28 1  
    32   27   29 1  
    33   28   30 1  
    34   29   30 1  
    35    1   31 1  
    36   10   32 1  
    37   11   33 1  
    38   11   34 1  
    39   12   35 1  
    40   12   36 1  
    41   13   37 1  
    42   15   38 1  
    43   16   39 1  
    44   17   40 1  
    45   18   41 1  
    46   19   42 1  
    47   21   43 1  
    48   22   44 1  
    49   23   45 1  
    50   24   46 1  
    51   25   47 1  
    52   26   48 1  
    53   26   49 1  
    54   27   50 1  
    55   27   51 1  
    56   28   52 1  
    57   28   53 1  
    58   29   54 1  
    59   29   55 1  
    60   30   56 1  
    61   30   57 1  
@<TRIPOS>SUBSTRUCTURE
     1 979         1

