### 
### Created by X-TOOL on Mon Sep 10 21:12:55 2018
### 

@<TRIPOS>MOLECULE
2off_ligand
   51    52     1     0     0
SMALL
GAST_HUCK


@<TRIPOS>ATOM
      1 C19        25.2210   -2.0630   52.5510 C.ar      1 OFF        -0.0565
      2 C20        24.2330   -2.8410   53.1570 C.ar      1 OFF        -0.0269
      3 C21        24.5450   -4.1120   53.6390 C.ar      1 OFF         0.0941
      4 O10        23.5890   -4.8770   54.2310 O.3       1 OFF        -0.3288
      5 C22        25.8430   -4.6020   53.5160 C.ar      1 OFF        -0.0269
      6 C23        26.8290   -3.8200   52.9140 C.ar      1 OFF        -0.0565
      7 C18        26.5250   -2.5500   52.4280 C.ar      1 OFF        -0.0235
      8 C17        27.5350   -1.7920   51.8300 C.2       1 OFF        -0.0446
      9 C16        27.4920   -0.3960   51.8190 C.2       1 OFF         0.0164
     10 C15        28.4800    0.3950   51.2290 C.2       1 OFF         0.2447
     11 O9         29.4610   -0.1220   50.6950 O.2       1 OFF        -0.3670
     12 O8         28.3240    1.7570   51.2720 O.3       1 OFF        -0.2714
     13 C12        29.4290    2.6190   50.8920 C.3       1 OFF         0.1388
     14 C13        28.8500    3.9490   50.3500 C.3       1 OFF         0.0351
     15 C14        28.3130    3.8660   48.9110 C.2       1 OFF         0.0378
     16 O6         27.3790    4.6520   48.6160 O.co2     1 OFF        -0.5689
     17 O7         28.8440    3.0330   48.1390 O.co2     1 OFF        -0.5689
     18 C10        30.2980    2.9510   52.1040 C.3       1 OFF         0.1692
     19 C11        31.5840    3.6840   51.6940 C.2       1 OFF         0.0713
     20 O4         31.5580    4.9310   51.6770 O.co2     1 OFF        -0.5660
     21 O5         32.5880    2.9970   51.4020 O.co2     1 OFF        -0.5660
     22 O3         30.7060    1.7410   52.7620 O.3       1 OFF        -0.2601
     23 C9         30.1130    1.4430   53.9550 C.2       1 OFF         0.2461
     24 O2         29.4320    2.2670   54.5730 O.2       1 OFF        -0.3668
     25 C8         30.3130    0.1580   54.4500 C.2       1 OFF         0.0165
     26 C7         29.7650   -0.2720   55.6520 C.2       1 OFF        -0.0446
     27 C4         29.9750   -1.5710   56.1150 C.ar      1 OFF        -0.0235
     28 C5         30.0500   -1.8060   57.4890 C.ar      1 OFF        -0.0565
     29 C6         30.2500   -3.1030   57.9670 C.ar      1 OFF        -0.0269
     30 C1         30.3670   -4.1650   57.0700 C.ar      1 OFF         0.0941
     31 O1         30.5630   -5.4310   57.5390 O.3       1 OFF        -0.3288
     32 C2         30.2860   -3.9330   55.6960 C.ar      1 OFF        -0.0269
     33 C3         30.0870   -2.6370   55.2180 C.ar      1 OFF        -0.0565
     34 H1         24.9756   -1.0767   52.1742 H         1 OFF         0.0633
     35 H2         23.2237   -2.4574   53.2529 H         1 OFF         0.0561
     36 H3         23.2483   -4.4228   54.9927 H         1 OFF         0.2508
     37 H4         26.0869   -5.5906   53.8879 H         1 OFF         0.0561
     38 H5         27.8390   -4.2032   52.8237 H         1 OFF         0.0633
     39 H6         28.3756   -2.3017   51.3614 H         1 OFF         0.0737
     40 H7         26.6466    0.0998   52.2938 H         1 OFF         0.0617
     41 H8         30.0371    2.1243   50.1203 H         1 OFF         0.0714
     42 H9         29.6460    4.7077   50.3774 H         1 OFF         0.0461
     43 H10        28.0250    4.2591   51.0081 H         1 OFF         0.0461
     44 H11        29.7197    3.5790   52.7976 H         1 OFF         0.0849
     45 H12        30.9220   -0.5367   53.8735 H         1 OFF         0.0617
     46 H13        29.1617    0.4162   56.2423 H         1 OFF         0.0737
     47 H14        29.9529   -0.9811   58.1856 H         1 OFF         0.0633
     48 H15        30.3142   -3.2842   59.0338 H         1 OFF         0.0561
     49 H16        30.6211   -6.0333   56.8067 H         1 OFF         0.2508
     50 H17        30.3776   -4.7593   55.0004 H         1 OFF         0.0561
     51 H18        30.0193   -2.4571   54.1512 H         1 OFF         0.0633
@<TRIPOS>BOND
     1    1    2 ar 
     2    1    7 ar 
     3    2    3 ar 
     4    3    4 1  
     5    3    5 ar 
     6    5    6 ar 
     7    6    7 ar 
     8    7    8 1  
     9    8    9 2  
    10    9   10 1  
    11   10   11 2  
    12   10   12 1  
    13   12   13 1  
    14   13   14 1  
    15   13   18 1  
    16   14   15 1  
    17   15   16 ar 
    18   15   17 ar 
    19   18   19 1  
    20   18   22 1  
    21   19   20 ar 
    22   19   21 ar 
    23   22   23 1  
    24   23   24 2  
    25   23   25 1  
    26   25   26 2  
    27   26   27 1  
    28   27   28 ar 
    29   27   33 ar 
    30   28   29 ar 
    31   29   30 ar 
    32   30   31 1  
    33   30   32 ar 
    34   32   33 ar 
    35    1   34 1  
    36    2   35 1  
    37    4   36 1  
    38    5   37 1  
    39    6   38 1  
    40    8   39 1  
    41    9   40 1  
    42   13   41 1  
    43   14   42 1  
    44   14   43 1  
    45   18   44 1  
    46   25   45 1  
    47   26   46 1  
    48   28   47 1  
    49   29   48 1  
    50   31   49 1  
    51   32   50 1  
    52   33   51 1  
@<TRIPOS>SUBSTRUCTURE
     1 OFF         1

