### 
### Created by X-TOOL on Mon Sep 10 21:12:56 2018
### 

@<TRIPOS>MOLECULE
2ofu_ligand
   98   102     1     0     0
SMALL
GAST_HUCK


@<TRIPOS>ATOM
      1 C13        25.7160   35.8400   82.7480 C.ar      1 1N9         0.1880
      2 N1         25.2120   36.6900   83.6600 N.ar      1 1N9        -0.2364
      3 C19        23.9300   36.6070   84.0410 C.ar      1 1N9         0.1633
      4 C20        23.0440   35.6180   83.4800 C.ar      1 1N9        -0.0000
      5 C5         23.6170   34.7700   82.5330 C.ar      1 1N9        -0.0027
      6 N3         24.9150   34.9180   82.2070 N.ar      1 1N9        -0.2742
      7 N4         27.0310   35.8420   82.3570 N.pl3     1 1N9        -0.2556
      8 C9         28.0490   36.6660   82.7980 C.ar      1 1N9         0.0376
      9 N6         23.5510   37.5640   85.0020 N.am      1 1N9        -0.1294
     10 C10        24.4230   38.4760   85.6320 C.ar      1 1N9         0.1213
     11 C11        24.1910   39.8960   85.4080 C.ar      1 1N9         0.1131
     12 C12        22.2100   37.5920   85.3050 C.2       1 1N9         0.4030
     13 C14        25.4920   37.9750   86.5020 C.ar      1 1N9        -0.0488
     14 C15        26.3320   38.9130   87.1600 C.ar      1 1N9        -0.0539
     15 C16        26.0960   40.3120   86.9320 C.ar      1 1N9         0.0699
     16 C17        25.0420   40.8400   86.0750 C.ar      1 1N9        -0.0135
     17 C18        27.9010   38.0190   83.3090 C.ar      1 1N9        -0.0287
     18 C21        29.0340   38.7810   83.6960 C.ar      1 1N9         0.1026
     19 C22        30.3210   38.1580   83.5530 C.ar      1 1N9         0.1354
     20 C23        30.4780   36.8190   83.0550 C.ar      1 1N9         0.1026
     21 C24        29.3180   36.0680   82.6740 C.ar      1 1N9        -0.0287
     22 O1         22.0250   37.9480   86.7470 O.3       1 1N9        -0.1983
     23 C25        20.5850   37.8270   87.2100 C.ar      1 1N9         0.1267
     24 C26        20.0870   36.5390   87.5210 C.ar      1 1N9        -0.0184
     25 C27        18.7110   36.4440   87.9640 C.ar      1 1N9        -0.0748
     26 C28        17.9670   37.6600   88.0410 C.ar      1 1N9        -0.0854
     27 C29        18.5010   38.9510   87.7120 C.ar      1 1N9        -0.0748
     28 C30        19.8790   39.0370   87.2720 C.ar      1 1N9        -0.0184
     29 C31        20.5330   40.3200   86.8850 C.3       1 1N9        -0.0341
     30 C32        20.9280   35.3250   87.3600 C.3       1 1N9        -0.0341
     31 O6         31.7910   36.3210   82.9910 O.3       1 1N9        -0.3306
     32 C33        32.0590   35.0050   82.4880 C.3       1 1N9         0.0562
     33 O2         21.2780   37.4040   84.6490 O.2       1 1N9        -0.3517
     34 O3         27.0280   41.1480   87.5650 O.3       1 1N9        -0.3316
     35 O4         23.1300   40.2520   84.5170 O.3       1 1N9        -0.3273
     36 C36        22.6970   41.6340   84.4480 C.3       1 1N9         0.0568
     37 C37        26.5830   42.3600   88.1680 C.3       1 1N9         0.0566
     38 O5         31.4390   38.9290   83.8970 O.3       1 1N9        -0.3333
     39 C7         31.6960   38.8700   85.2980 C.3       1 1N9         0.0676
     40 C8         33.0160   39.5090   85.5580 C.3       1 1N9         0.0141
     41 C35        33.0630   40.9280   84.9840 C.3       1 1N9        -0.0291
     42 O7         28.9330   40.0920   84.2320 O.3       1 1N9        -0.3306
     43 C34        27.8930   41.0230   83.8580 C.3       1 1N9         0.0562
     44 C1         36.2520   41.9690   86.9110 C.3       1 1N9         0.0092
     45 N2         36.5290   43.1780   86.0540 N.4       1 1N9         0.2405
     46 C3         35.2920   43.9500   85.6730 C.3       1 1N9         0.0092
     47 C4         34.2800   43.0040   84.9190 C.3       1 1N9         0.0094
     48 N5         33.9770   41.7970   85.7540 N.4       1 1N9         0.2428
     49 C6         35.2490   41.0780   86.1080 C.3       1 1N9         0.0094
     50 C2         37.2360   42.7970   84.7960 C.3       1 1N9        -0.0427
     51 H1         22.0037   35.5389   83.7741 H         1 1N9         0.0567
     52 H2         23.0212   33.9964   82.0622 H         1 1N9         0.0833
     53 H3         27.2918   35.1429   81.6470 H         1 1N9         0.2146
     54 H4         25.6384   36.9099   86.6403 H         1 1N9         0.0475
     55 H5         27.1291   38.5824   87.8161 H         1 1N9         0.0421
     56 H6         24.9056   41.9076   85.9459 H         1 1N9         0.0433
     57 H7         26.9110   38.4520   83.3957 H         1 1N9         0.0346
     58 H8         29.4159   35.0565   82.2967 H         1 1N9         0.0346
     59 H9         18.2656   35.4910   88.2257 H         1 1N9         0.0473
     60 H10        16.9350   37.6049   88.3682 H         1 1N9         0.0495
     61 H11        17.8876   39.8413   87.7909 H         1 1N9         0.0473
     62 H12        21.5747   40.1260   86.5895 H         1 1N9         0.0368
     63 H13        20.5172   41.0121   87.7398 H         1 1N9         0.0368
     64 H14        19.9897   40.7683   86.0401 H         1 1N9         0.0368
     65 H15        21.9317   35.6171   87.0176 H         1 1N9         0.0368
     66 H16        20.4678   34.6559   86.6180 H         1 1N9         0.0368
     67 H17        21.0073   34.8032   88.3251 H         1 1N9         0.0368
     68 H18        33.1414   34.8124   82.5232 H         1 1N9         0.0572
     69 H19        31.7071   34.9311   81.4485 H         1 1N9         0.0572
     70 H20        31.5342   34.2621   83.1066 H         1 1N9         0.0572
     71 H21        21.8794   41.7260   83.7179 H         1 1N9         0.0573
     72 H22        23.5404   42.2674   84.1357 H         1 1N9         0.0573
     73 H23        22.3427   41.9571   85.4380 H         1 1N9         0.0573
     74 H24        27.4412   42.8847   88.6132 H         1 1N9         0.0573
     75 H25        25.8466   42.1306   88.9522 H         1 1N9         0.0573
     76 H26        26.1178   43.0004   87.4041 H         1 1N9         0.0573
     77 H27        31.7190   37.8210   85.6282 H         1 1N9         0.0602
     78 H28        30.9078   39.4091   85.8439 H         1 1N9         0.0602
     79 H29        33.8065   38.9050   85.0885 H         1 1N9         0.0342
     80 H30        33.1856   39.5548   86.6439 H         1 1N9         0.0342
     81 H31        32.0513   41.3588   85.0140 H         1 1N9         0.0815
     82 H32        33.4103   40.8799   83.9414 H         1 1N9         0.0815
     83 H33        28.0303   41.9661   84.4072 H         1 1N9         0.0572
     84 H34        26.9107   40.5943   84.1055 H         1 1N9         0.0572
     85 H35        27.9464   41.2174   82.7766 H         1 1N9         0.0572
     86 H36        35.8057   42.2757   87.8685 H         1 1N9         0.0868
     87 H37        37.1837   41.4161   87.1011 H         1 1N9         0.0868
     88 H38        37.1277   43.7914   86.5844 H         1 1N9         0.2035
     89 H39        35.5716   44.7847   85.0134 H         1 1N9         0.0868
     90 H40        34.8142   44.3449   86.5817 H         1 1N9         0.0868
     91 H41        34.7245   42.6833   83.9653 H         1 1N9         0.0868
     92 H42        33.3473   43.5530   84.7226 H         1 1N9         0.0868
     93 H43        33.5207   42.0849   86.6054 H         1 1N9         0.2038
     94 H44        34.9961   40.1982   86.7178 H         1 1N9         0.0868
     95 H45        35.7373   40.7515   85.1780 H         1 1N9         0.0868
     96 H46        38.1458   42.2305   85.0439 H         1 1N9         0.0778
     97 H47        37.5100   43.7056   84.2398 H         1 1N9         0.0778
     98 H48        36.5734   42.1740   84.1772 H         1 1N9         0.0778
@<TRIPOS>BOND
     1    1    2 ar 
     2    1    6 ar 
     3    7    1 1  
     4    2    3 ar 
     5    3    4 ar 
     6    3    9 1  
     7    5    4 ar 
     8    6    5 ar 
     9    8    7 1  
    10   17    8 ar 
    11   21    8 ar 
    12    9   10 1  
    13    9   12 am 
    14   10   11 ar 
    15   10   13 ar 
    16   11   16 ar 
    17   11   35 1  
    18   12   22 1  
    19   12   33 2  
    20   13   14 ar 
    21   14   15 ar 
    22   16   15 ar 
    23   15   34 1  
    24   18   17 ar 
    25   19   18 ar 
    26   18   42 1  
    27   19   20 ar 
    28   38   19 1  
    29   20   21 ar 
    30   20   31 1  
    31   22   23 1  
    32   23   24 ar 
    33   23   28 ar 
    34   24   25 ar 
    35   24   30 1  
    36   25   26 ar 
    37   27   26 ar 
    38   28   27 ar 
    39   28   29 1  
    40   31   32 1  
    41   34   37 1  
    42   35   36 1  
    43   39   38 1  
    44   40   39 1  
    45   41   40 1  
    46   48   41 1  
    47   42   43 1  
    48   45   44 1  
    49   44   49 1  
    50   46   45 1  
    51   45   50 1  
    52   47   46 1  
    53   47   48 1  
    54   48   49 1  
    55    4   51 1  
    56    5   52 1  
    57    7   53 1  
    58   13   54 1  
    59   14   55 1  
    60   16   56 1  
    61   17   57 1  
    62   21   58 1  
    63   25   59 1  
    64   26   60 1  
    65   27   61 1  
    66   29   62 1  
    67   29   63 1  
    68   29   64 1  
    69   30   65 1  
    70   30   66 1  
    71   30   67 1  
    72   32   68 1  
    73   32   69 1  
    74   32   70 1  
    75   36   71 1  
    76   36   72 1  
    77   36   73 1  
    78   37   74 1  
    79   37   75 1  
    80   37   76 1  
    81   39   77 1  
    82   39   78 1  
    83   40   79 1  
    84   40   80 1  
    85   41   81 1  
    86   41   82 1  
    87   43   83 1  
    88   43   84 1  
    89   43   85 1  
    90   44   86 1  
    91   44   87 1  
    92   45   88 1  
    93   46   89 1  
    94   46   90 1  
    95   47   91 1  
    96   47   92 1  
    97   48   93 1  
    98   49   94 1  
    99   49   95 1  
   100   50   96 1  
   101   50   97 1  
   102   50   98 1  
@<TRIPOS>SUBSTRUCTURE
     1 1N9         1

