### 
### Created by X-TOOL on Mon Sep 10 21:12:56 2018
### 

@<TRIPOS>MOLECULE
2ofv_ligand
   48    51     1     0     0
SMALL
GAST_HUCK


@<TRIPOS>ATOM
      1 C4         91.2450   36.8190   11.0020 C.ar      1 242         0.0324
      2 C2         90.2700   37.6580   11.6540 C.ar      1 242         0.0219
      3 C3         88.9470   37.0190   12.0420 C.ar      1 242         0.0407
      4 N2         88.7440   35.6740   11.7450 N.ar      1 242        -0.2672
      5 C1         89.7140   34.9910   11.1190 C.ar      1 242         0.1852
      6 N3         90.9290   35.5270   10.7620 N.ar      1 242        -0.2428
      7 C8         90.5240   39.0230   11.9540 C.ar      1 242        -0.0380
      8 C9         89.5080   39.7830   12.6050 C.ar      1 242        -0.0137
      9 C10        88.2060   39.1770   12.9860 C.ar      1 242        -0.0495
     10 C11        87.9130   37.8100   12.7140 C.ar      1 242        -0.0408
     11 N15        89.4720   33.7050   10.8560 N.pl3     1 242        -0.3029
     12 C16        89.7660   41.2330   12.8950 C.ar      1 242        -0.0090
     13 C17        90.1210   41.5620   14.2370 C.ar      1 242        -0.0398
     14 C18        90.3780   42.9260   14.5800 C.ar      1 242         0.0496
     15 C19        90.2820   43.9900   13.5870 C.ar      1 242        -0.0480
     16 C20        89.9210   43.6830   12.2380 C.ar      1 242        -0.0537
     17 C21        89.6730   42.3070   11.8760 C.ar      1 242        -0.0324
     18 C25        89.3160   42.0430   10.4030 C.3       1 242        -0.0276
     19 C29        90.7220   43.1720   15.9830 C.2       1 242         0.2278
     20 O30        91.0530   42.2410   16.7470 O.2       1 242        -0.3761
     21 N31        90.6970   44.4810   16.4100 N.am      1 242        -0.2283
     22 C32        91.1260   44.9440   17.6410 C.ar      1 242         0.0947
     23 C33        92.1470   44.2320   18.3910 C.ar      1 242        -0.0124
     24 C34        92.5790   44.6870   19.6600 C.ar      1 242         0.0335
     25 C35        91.9870   45.9210   20.1890 C.ar      1 242        -0.0450
     26 C36        90.9540   46.6420   19.4680 C.ar      1 242        -0.0433
     27 C37        90.5480   46.1440   18.1960 C.ar      1 242        -0.0111
     28 C5         93.6790   43.8920   20.4060 C.3       1 242         0.3727
     29 F3         94.2000   44.6520   21.3330 F         1 242        -0.2209
     30 F1         94.6300   43.5480   19.5760 F         1 242        -0.2209
     31 F2         93.1440   42.7930   20.9220 F         1 242        -0.2209
     32 H1         92.2107   37.2161   10.7106 H         1 242         0.1001
     33 H2         91.4724   39.4785   11.6930 H         1 242         0.0669
     34 H3         87.4620   39.7894   13.4824 H         1 242         0.0676
     35 H4         86.9617   37.3718   12.9934 H         1 242         0.0618
     36 H5         88.5672   33.2874   11.1166 H         1 242         0.1835
     37 H6         90.1900   33.1302   10.3924 H         1 242         0.1835
     38 H7         90.1952   40.7852   14.9895 H         1 242         0.0657
     39 H8         90.4848   45.0159   13.8724 H         1 242         0.0651
     40 H9         89.8348   44.4708   11.4984 H         1 242         0.0569
     41 H10        89.1513   40.9658   10.2531 H         1 242         0.0406
     42 H11        90.1416   42.3807    9.7594 H         1 242         0.0406
     43 H12        88.3998   42.5936   10.1434 H         1 242         0.0406
     44 H13        90.3352   45.1598   15.7710 H         1 242         0.2253
     45 H14        92.5865   43.3348   17.9704 H         1 242         0.0712
     46 H15        92.3301   46.3042   21.1432 H         1 242         0.0741
     47 H16        90.5036   47.5351   19.8858 H         1 242         0.0664
     48 H17        89.7898   46.6774   17.6341 H         1 242         0.0759
@<TRIPOS>BOND
     1    1    2 ar 
     2    1    6 ar 
     3    2    3 ar 
     4    2    7 ar 
     5    3    4 ar 
     6    3   10 ar 
     7    4    5 ar 
     8    5    6 ar 
     9    5   11 1  
    10    7    8 ar 
    11    8    9 ar 
    12    8   12 1  
    13    9   10 ar 
    14   12   13 ar 
    15   12   17 ar 
    16   13   14 ar 
    17   14   15 ar 
    18   14   19 1  
    19   15   16 ar 
    20   16   17 ar 
    21   17   18 1  
    22   19   20 2  
    23   19   21 am 
    24   21   22 1  
    25   22   23 ar 
    26   22   27 ar 
    27   23   24 ar 
    28   24   25 ar 
    29   24   28 1  
    30   25   26 ar 
    31   26   27 ar 
    32   28   29 1  
    33   28   30 1  
    34   28   31 1  
    35    1   32 1  
    36    7   33 1  
    37    9   34 1  
    38   10   35 1  
    39   11   36 1  
    40   11   37 1  
    41   13   38 1  
    42   15   39 1  
    43   16   40 1  
    44   18   41 1  
    45   18   42 1  
    46   18   43 1  
    47   21   44 1  
    48   23   45 1  
    49   25   46 1  
    50   26   47 1  
    51   27   48 1  
@<TRIPOS>SUBSTRUCTURE
     1 242         1

