### 
### Created by X-TOOL on Mon Sep 10 21:12:56 2018
### 

@<TRIPOS>MOLECULE
2og8_ligand
   73    76     1     0     0
SMALL
GAST_HUCK


@<TRIPOS>ATOM
      1 C22         3.0170   26.6310   58.1430 C.ar      1 1N8        -0.0538
      2 C23         3.3950   27.6880   57.2440 C.ar      1 1N8        -0.0481
      3 C11         4.7990   27.8720   56.9700 C.ar      1 1N8         0.0494
      4 C14         5.2680   28.8830   55.9860 C.2       1 1N8         0.2268
      5 N3          4.4430   29.9090   55.6550 N.am      1 1N8        -0.2293
      6 C15         4.5500   30.6750   54.5550 C.ar      1 1N8         0.1267
      7 C20         4.3920   32.0770   54.6920 C.ar      1 1N8         0.1428
      8 C19         4.4850   33.0190   53.5830 C.ar      1 1N8        -0.0069
      9 C18         4.7510   32.4630   52.3020 C.ar      1 1N8        -0.0539
     10 C17         4.9150   31.0060   52.1520 C.ar      1 1N8        -0.0000
     11 C16         4.8130   30.1020   53.2920 C.ar      1 1N8        -0.0289
     12 C21         5.2010   30.3940   50.7400 C.3       1 1N8         0.3377
     13 F1          4.7940   29.1490   50.5580 F         1 1N8        -0.2527
     14 F2          6.4700   30.4090   50.4520 F         1 1N8        -0.2527
     15 F3          4.5570   31.0590   49.8280 F         1 1N8        -0.2527
     16 O1          6.3640   28.8020   55.4640 O.2       1 1N8        -0.3766
     17 C12         5.8100   27.0330   57.5850 C.ar      1 1N8        -0.0398
     18 C13         5.4580   25.9530   58.4940 C.ar      1 1N8        -0.0090
     19 C24         4.0610   25.7940   58.7340 C.ar      1 1N8        -0.0325
     20 C25         3.5590   24.7130   59.5990 C.3       1 1N8        -0.0277
     21 N4          4.1440   32.4690   55.9700 N.am      1 1N8        -0.2017
     22 C26         3.5140   33.6200   56.3390 C.2       1 1N8         0.2668
     23 C27         3.7760   34.0150   57.7810 C.3       1 1N8         0.0680
     24 N6          3.7970   35.4930   57.8910 N.4       1 1N8         0.2523
     25 C28         4.9520   35.9320   58.7010 C.3       1 1N8        -0.0329
     26 C29         2.5630   36.0720   58.4440 C.3       1 1N8        -0.0329
     27 C30         5.5420   37.1550   58.0270 C.3       1 1N8        -0.0244
     28 C5          1.8260   35.1180   59.3770 C.3       1 1N8        -0.0244
     29 N1          9.7900   21.4520   58.1900 N.ar      1 1N8        -0.2426
     30 C2          8.7190   22.1740   57.7860 C.ar      1 1N8         0.0324
     31 C3          8.1960   23.2170   58.6010 C.ar      1 1N8         0.0219
     32 C4          8.8840   23.4720   59.9240 C.ar      1 1N8         0.0407
     33 N5          9.9810   22.6650   60.2400 N.ar      1 1N8        -0.2671
     34 C6         10.4070   21.6840   59.3830 C.ar      1 1N8         0.1875
     35 C7          7.0850   24.0310   58.2200 C.ar      1 1N8        -0.0380
     36 C8          6.5720   25.1220   59.0530 C.ar      1 1N8        -0.0137
     37 C9          7.2320   25.3710   60.3500 C.ar      1 1N8        -0.0495
     38 C10         8.3800   24.5490   60.7780 C.ar      1 1N8        -0.0408
     39 N2         11.4400   20.8790   59.7030 N.pl3     1 1N8        -0.2920
     40 C1         12.2420   21.0180   60.9180 C.3       1 1N8         0.0199
     41 O2          2.8020   34.2880   55.5870 O.2       1 1N8        -0.3687
     42 H1          1.9735   26.4571   58.3793 H         1 1N8         0.0569
     43 H2          2.6479   28.3265   56.7866 H         1 1N8         0.0651
     44 H3          3.6916   30.1125   56.2827 H         1 1N8         0.2244
     45 H4          4.3581   34.0858   53.7275 H         1 1N8         0.0609
     46 H5          4.8331   33.1101   51.4362 H         1 1N8         0.0745
     47 H6          4.9345   29.0313   53.1740 H         1 1N8         0.0584
     48 H7          6.8549   27.2155   57.3615 H         1 1N8         0.0656
     49 H8          2.4616   24.7658   59.6523 H         1 1N8         0.0406
     50 H9          3.9810   24.8254   60.6086 H         1 1N8         0.0406
     51 H10         3.8594   23.7404   59.1822 H         1 1N8         0.0406
     52 H11         4.4501   31.8606   56.7022 H         1 1N8         0.2494
     53 H12         4.7468   33.6094   58.1020 H         1 1N8         0.1072
     54 H13         2.9794   33.6106   58.4228 H         1 1N8         0.1072
     55 H14         3.9102   35.8597   56.9589 H         1 1N8         0.2053
     56 H15         5.7036   35.1303   58.7490 H         1 1N8         0.0812
     57 H16         4.6219   36.1866   59.7189 H         1 1N8         0.0812
     58 H17         1.8944   36.3344   57.6109 H         1 1N8         0.0812
     59 H18         2.8230   36.9812   59.0058 H         1 1N8         0.0812
     60 H19         6.4076   37.5105   58.6052 H         1 1N8         0.0281
     61 H20         4.7824   37.9492   57.9784 H         1 1N8         0.0281
     62 H21         5.8641   36.8928   57.0084 H         1 1N8         0.0281
     63 H22         0.9161   35.6061   59.7564 H         1 1N8         0.0281
     64 H23         2.4793   34.8532   60.2214 H         1 1N8         0.0281
     65 H24         1.5507   34.2064   58.8265 H         1 1N8         0.0281
     66 H25         8.2544   21.9555   56.8313 H         1 1N8         0.1001
     67 H26         6.5995   23.8323   57.2714 H         1 1N8         0.0669
     68 H27         6.8699   26.1647   60.9934 H         1 1N8         0.0676
     69 H28         8.8543   24.7442   61.7330 H         1 1N8         0.0618
     70 H29        11.6794   20.1185   59.0509 H         1 1N8         0.1867
     71 H30        13.0177   20.2382   60.9365 H         1 1N8         0.0489
     72 H31        11.5933   20.9108   61.7998 H         1 1N8         0.0489
     73 H32        12.7184   22.0094   60.9315 H         1 1N8         0.0489
@<TRIPOS>BOND
     1    1    2 ar 
     2   19    1 ar 
     3    3    2 ar 
     4    3    4 1  
     5   17    3 ar 
     6    4    5 am 
     7    4   16 2  
     8    5    6 1  
     9    6    7 ar 
    10    6   11 ar 
    11    7    8 ar 
    12    7   21 1  
    13    8    9 ar 
    14   10    9 ar 
    15   11   10 ar 
    16   10   12 1  
    17   12   13 1  
    18   12   14 1  
    19   12   15 1  
    20   18   17 ar 
    21   18   19 ar 
    22   36   18 1  
    23   19   20 1  
    24   21   22 am 
    25   22   23 1  
    26   22   41 2  
    27   23   24 1  
    28   24   25 1  
    29   24   26 1  
    30   25   27 1  
    31   26   28 1  
    32   30   29 ar 
    33   29   34 ar 
    34   31   30 ar 
    35   31   32 ar 
    36   35   31 ar 
    37   32   33 ar 
    38   32   38 ar 
    39   33   34 ar 
    40   34   39 1  
    41   35   36 ar 
    42   36   37 ar 
    43   37   38 ar 
    44   39   40 1  
    45    1   42 1  
    46    2   43 1  
    47    5   44 1  
    48    8   45 1  
    49    9   46 1  
    50   11   47 1  
    51   17   48 1  
    52   20   49 1  
    53   20   50 1  
    54   20   51 1  
    55   21   52 1  
    56   23   53 1  
    57   23   54 1  
    58   24   55 1  
    59   25   56 1  
    60   25   57 1  
    61   26   58 1  
    62   26   59 1  
    63   27   60 1  
    64   27   61 1  
    65   27   62 1  
    66   28   63 1  
    67   28   64 1  
    68   28   65 1  
    69   30   66 1  
    70   35   67 1  
    71   37   68 1  
    72   38   69 1  
    73   39   70 1  
    74   40   71 1  
    75   40   72 1  
    76   40   73 1  
@<TRIPOS>SUBSTRUCTURE
     1 1N8         1

