### 
### Created by X-TOOL on Mon Sep 10 21:12:55 2018
### 

@<TRIPOS>MOLECULE
2ogy_ligand
   56    58     1     0     0
SMALL
GAST_HUCK


@<TRIPOS>ATOM
      1 N1         -9.2630   76.3060  121.3150 N.2       1 C2F        -0.2895
      2 C2         -8.5850   77.3990  120.8580 C.2       1 C2F         0.2289
      3 NA2        -8.1560   78.3200  121.7590 N.pl3     1 C2F        -0.2835
      4 N3         -8.3300   77.5840  119.5250 N.am      1 C2F        -0.1887
      5 C4         -8.7290   76.7050  118.5670 C.2       1 C2F         0.2108
      6 O4         -8.4730   76.9120  117.3720 O.2       1 C2F        -0.4227
      7 C4A        -9.4800   75.4800  118.9790 C.2       1 C2F         0.1036
      8 N5         -9.9450   74.4870  118.0270 N.pl3     1 C2F        -0.3311
      9 C6        -10.1440   73.1320  118.6510 C.3       1 C2F         0.0660
     10 C7        -10.8860   73.1940  120.0340 C.3       1 C2F         0.0453
     11 N8        -10.3900   74.2530  120.9250 N.pl3     1 C2F        -0.3234
     12 C8A        -9.7230   75.3410  120.4630 C.2       1 C2F         0.0745
     13 C9         -8.7660   72.4400  118.8140 C.3       1 C2F         0.0475
     14 N10        -8.8650   70.9940  118.9260 N.pl3     1 C2F        -0.3178
     15 C11       -11.1930   74.9590  117.3840 C.3       1 C2F         0.0047
     16 C12        -9.3870   68.2930  115.7430 C.ar      1 C2F         0.0362
     17 C13        -9.5400   67.8750  117.0990 C.ar      1 C2F        -0.0535
     18 C14        -9.3600   68.7960  118.1530 C.ar      1 C2F        -0.0382
     19 C15        -9.0260   70.1440  117.8660 C.ar      1 C2F         0.0433
     20 C16        -8.8730   70.5610  116.4930 C.ar      1 C2F        -0.0382
     21 C17        -9.0550   69.6380  115.4430 C.ar      1 C2F        -0.0535
     22 C          -9.5810   67.2980  114.6400 C.2       1 C2F         0.1968
     23 O          -8.7690   67.2500  113.7310 O.2       1 C2F        -0.3908
     24 N         -10.6590   66.5100  114.7260 N.am      1 C2F        -0.2725
     25 CA        -11.1160   65.4600  113.8250 C.3       1 C2F         0.0951
     26 CB        -12.2900   64.6760  114.4480 C.3       1 C2F        -0.0064
     27 CG        -12.1370   63.1840  114.1260 C.3       1 C2F         0.0038
     28 CD        -13.2850   62.3730  114.7310 C.2       1 C2F         0.0350
     29 OE1       -14.4000   62.9700  114.7530 O.co2     1 C2F        -0.5690
     30 OE2       -13.1350   61.2030  115.1710 O.co2     1 C2F        -0.5690
     31 CT        -11.4750   66.0330  112.4620 C.2       1 C2F         0.0601
     32 O1        -12.0830   67.1260  112.3980 O.co2     1 C2F        -0.5666
     33 O2        -11.1480   65.4050  111.4350 O.co2     1 C2F        -0.5666
     34 H1         -8.3451   78.1857  122.7625 H         1 C2F         0.1881
     35 H2         -7.6415   79.1529  121.4389 H         1 C2F         0.1881
     36 H3         -7.8281   78.4019  119.2437 H         1 C2F         0.2504
     37 H4        -10.7594   72.5299  117.9664 H         1 C2F         0.0569
     38 H5        -10.7576   72.2260  120.5405 H         1 C2F         0.0532
     39 H6        -11.9554   73.3708  119.8465 H         1 C2F         0.0532
     40 H7        -10.5549   74.1660  121.9380 H         1 C2F         0.1744
     41 H8         -8.2837   72.8295  119.7227 H         1 C2F         0.0536
     42 H9         -8.1467   72.6818  117.9377 H         1 C2F         0.0536
     43 H10        -8.8102   70.5810  119.8680 H         1 C2F         0.1775
     44 H11       -11.0228   75.9491  116.9360 H         1 C2F         0.0457
     45 H12       -11.9901   75.0301  118.1387 H         1 C2F         0.0457
     46 H13       -11.4929   74.2484  116.5997 H         1 C2F         0.0457
     47 H14        -9.7957   66.8451  117.3204 H         1 C2F         0.0636
     48 H15        -9.4770   68.4733  119.1812 H         1 C2F         0.0530
     49 H16        -8.6167   71.5899  116.2677 H         1 C2F         0.0530
     50 H17        -8.9417   69.9549  114.4126 H         1 C2F         0.0636
     51 H18       -11.2367   66.6646  115.5275 H         1 C2F         0.1864
     52 H19       -10.2843   64.7548  113.6806 H         1 C2F         0.0726
     53 H20       -13.2391   65.0453  114.0323 H         1 C2F         0.0323
     54 H21       -12.2877   64.8177  115.5388 H         1 C2F         0.0323
     55 H22       -11.1840   62.8224  114.5395 H         1 C2F         0.0432
     56 H23       -12.1376   63.0495  113.0343 H         1 C2F         0.0432
@<TRIPOS>BOND
     1    1    2 2  
     2   12    1 1  
     3    2    3 1  
     4    4    2 am 
     5    5    4 am 
     6    5    6 2  
     7    7    5 1  
     8    8    7 1  
     9    7   12 2  
    10    9    8 1  
    11    8   15 1  
    12    9   10 1  
    13   13    9 1  
    14   10   11 1  
    15   11   12 1  
    16   14   13 1  
    17   19   14 1  
    18   17   16 ar 
    19   16   21 ar 
    20   16   22 1  
    21   18   17 ar 
    22   18   19 ar 
    23   19   20 ar 
    24   20   21 ar 
    25   22   23 2  
    26   22   24 am 
    27   24   25 1  
    28   25   26 1  
    29   25   31 1  
    30   26   27 1  
    31   27   28 1  
    32   28   29 ar 
    33   28   30 ar 
    34   31   32 ar 
    35   31   33 ar 
    36    3   34 1  
    37    3   35 1  
    38    4   36 1  
    39    9   37 1  
    40   10   38 1  
    41   10   39 1  
    42   11   40 1  
    43   13   41 1  
    44   13   42 1  
    45   14   43 1  
    46   15   44 1  
    47   15   45 1  
    48   15   46 1  
    49   17   47 1  
    50   18   48 1  
    51   20   49 1  
    52   21   50 1  
    53   24   51 1  
    54   25   52 1  
    55   26   53 1  
    56   26   54 1  
    57   27   55 1  
    58   27   56 1  
@<TRIPOS>SUBSTRUCTURE
     1 C2F         1

