### 
### Created by X-TOOL on Mon Sep 10 21:12:56 2018
### 

@<TRIPOS>MOLECULE
2ogz_ligand
   46    47     1     0     0
SMALL
GAST_HUCK


@<TRIPOS>ATOM
      1 C1         34.2130   52.6560   94.4520 C.ar      1 U1N         0.0425
      2 C2         34.1970   53.5420   95.5800 C.ar      1 U1N        -0.0485
      3 C3         35.4170   54.1410   96.0020 C.ar      1 U1N        -0.0544
      4 C4         36.6450   53.8670   95.3240 C.ar      1 U1N        -0.0381
      5 C5         36.6460   52.9900   94.2130 C.ar      1 U1N        -0.0544
      6 C6         35.4460   52.3890   93.7790 C.ar      1 U1N        -0.0485
      7 C7         37.9420   54.4870   95.7580 C.3       1 U1N        -0.0119
      8 C8         37.8530   55.9950   95.9480 C.3       1 U1N         0.0004
      9 C9         37.8050   56.8150   94.6430 C.3       1 U1N        -0.0219
     10 C11        38.4450   58.1650   94.9440 C.3       1 U1N        -0.0215
     11 N12        38.5370   56.1390   93.5360 N.4       1 U1N         0.2448
     12 C13        38.1230   56.5430   92.1780 C.3       1 U1N         0.0410
     13 C14        36.7270   56.0100   91.7850 C.2       1 U1N         0.1742
     14 O15        35.6870   56.5530   92.1200 O.2       1 U1N        -0.3748
     15 C16        36.5970   54.7540   90.9250 C.ar      1 U1N         0.0338
     16 C17        37.5710   53.6990   90.9160 C.ar      1 U1N        -0.0446
     17 C18        37.3870   52.5590   90.0940 C.ar      1 U1N        -0.0220
     18 C19        36.2390   52.4710   89.2750 C.ar      1 U1N         0.1379
     19 F20        36.0780   51.4110   88.5040 F         1 U1N        -0.1791
     20 C21        35.2610   53.4920   89.2640 C.ar      1 U1N        -0.0220
     21 C22        35.4420   54.6290   90.0850 C.ar      1 U1N        -0.0446
     22 C23        33.0140   51.9660   93.9350 C.2       1 U1N         0.1974
     23 N24        31.7430   52.1500   94.5410 N.am      1 U1N        -0.3011
     24 O25        33.0390   51.2110   92.9880 O.2       1 U1N        -0.3880
     25 H1         33.2707   53.7519   96.1025 H         1 U1N         0.0652
     26 H2         35.4149   54.8154   96.8507 H         1 U1N         0.0570
     27 H3         37.5736   52.7792   93.6931 H         1 U1N         0.0570
     28 H4         35.4587   51.7185   92.9273 H         1 U1N         0.0652
     29 H5         38.7036   54.2756   94.9930 H         1 U1N         0.0438
     30 H6         38.2448   54.0319   96.7125 H         1 U1N         0.0438
     31 H7         38.7334   56.3191   96.5223 H         1 U1N         0.0343
     32 H8         36.9403   56.2133   96.5218 H         1 U1N         0.0343
     33 H9         36.7575   56.9587   94.3396 H         1 U1N         0.0850
     34 H10        38.4328   58.7869   94.0368 H         1 U1N         0.0284
     35 H11        39.4844   58.0134   95.2707 H         1 U1N         0.0284
     36 H12        37.8797   58.6691   95.7417 H         1 U1N         0.0284
     37 H13        38.3910   55.1456   93.6251 H         1 U1N         0.2034
     38 H14        39.5184   56.3449   93.6382 H         1 U1N         0.2034
     39 H15        38.8600   56.1574   91.4583 H         1 U1N         0.1043
     40 H16        38.1041   57.6418   92.1303 H         1 U1N         0.1043
     41 H17        38.4528   53.7749   91.5419 H         1 U1N         0.0662
     42 H18        38.1210   51.7613   90.0937 H         1 U1N         0.0617
     43 H19        34.3833   53.4043   88.6340 H         1 U1N         0.0617
     44 H20        34.6974   55.4167   90.0791 H         1 U1N         0.0662
     45 H21        30.9421   51.6744   94.1772 H         1 U1N         0.1806
     46 H22        31.6489   52.7551   95.3316 H         1 U1N         0.1806
@<TRIPOS>BOND
     1    1    2 ar 
     2    1    6 ar 
     3    1   22 1  
     4    2    3 ar 
     5    3    4 ar 
     6    4    5 ar 
     7    4    7 1  
     8    5    6 ar 
     9    7    8 1  
    10    8    9 1  
    11    9   10 1  
    12    9   11 1  
    13   11   12 1  
    14   12   13 1  
    15   13   14 2  
    16   13   15 1  
    17   15   16 ar 
    18   15   21 ar 
    19   16   17 ar 
    20   17   18 ar 
    21   18   19 1  
    22   18   20 ar 
    23   20   21 ar 
    24   22   23 am 
    25   22   24 2  
    26    2   25 1  
    27    3   26 1  
    28    5   27 1  
    29    6   28 1  
    30    7   29 1  
    31    7   30 1  
    32    8   31 1  
    33    8   32 1  
    34    9   33 1  
    35   10   34 1  
    36   10   35 1  
    37   10   36 1  
    38   11   37 1  
    39   11   38 1  
    40   12   39 1  
    41   12   40 1  
    42   16   41 1  
    43   17   42 1  
    44   20   43 1  
    45   21   44 1  
    46   23   45 1  
    47   23   46 1  
@<TRIPOS>SUBSTRUCTURE
     1 U1N         1

