### 
### Created by X-TOOL on Mon Sep 10 21:12:56 2018
### 

@<TRIPOS>MOLECULE
2oh0_ligand
   51    55     1     0     0
SMALL
GAST_HUCK


@<TRIPOS>ATOM
      1 N1          3.3250   10.2010    4.8580 N.pl3     1 2PY        -0.2446
      2 N3          9.5060   10.5300   -0.9050 N.ar      1 2PY        -0.3066
      3 C4          4.0270   10.0650    2.7230 C.ar      1 2PY        -0.0129
      4 C5          4.2100    9.9710    1.3510 C.ar      1 2PY        -0.0572
      5 C6          5.5260    9.9600    0.8100 C.ar      1 2PY        -0.0525
      6 C8          4.6670   10.2380    4.9680 C.2       1 2PY         0.1095
      7 C10        13.4490   13.5440    0.2790 C.ar      1 2PY        -0.0768
      8 C13        14.1020   11.0450    1.4890 C.ar      1 2PY        -0.0214
      9 C15        12.8190   13.1790    1.5080 C.ar      1 2PY        -0.0792
     10 C17        14.6510    9.7490    1.8010 C.2       1 2PY        -0.0409
     11 C20         8.0730   10.0080    1.0060 C.ar      1 2PY         0.0004
     12 C21         9.1970    9.4240    1.6440 C.ar      1 2PY        -0.0068
     13 C22        10.4730    9.3980    0.9970 C.ar      1 2PY         0.1190
     14 C24        11.8040    8.2200    2.7230 C.3       1 2PY         0.1156
     15 C1          6.6950   10.0440    1.6390 C.ar      1 2PY        -0.0124
     16 C2          6.4860   10.1420    3.0590 C.ar      1 2PY        -0.0375
     17 C3          5.1800   10.1540    3.6060 C.ar      1 2PY         0.0343
     18 N5          2.9580   10.1020    3.5760 N.2       1 2PY        -0.3338
     19 C11        14.4000   12.6690   -0.3400 C.ar      1 2PY        -0.0443
     20 C12        14.7040   11.4490    0.2720 C.ar      1 2PY         0.0603
     21 C14        13.1290   11.9370    2.1310 C.ar      1 2PY        -0.0747
     22 N2         15.5800   10.4480   -0.1330 N.pl3     1 2PY        -0.2891
     23 C16        15.5430    9.4320    0.7880 C.2       1 2PY         0.0166
     24 C18        10.5650    9.9710   -0.2860 C.ar      1 2PY         0.0391
     25 C19         8.2920   10.5480   -0.2800 C.ar      1 2PY         0.0072
     26 O1         11.6750    8.8550    1.4630 O.3       1 2PY        -0.3048
     27 C23        13.2770    7.7430    2.7970 C.3       1 2PY         0.0083
     28 C25        14.3050    8.8880    3.0220 C.3       1 2PY         0.0094
     29 N4         13.5810    7.0080    1.5440 N.4       1 2PY         0.2236
     30 H1          2.6710   10.2432    5.6526 H         1 2PY         0.2935
     31 H2          3.3517    9.9060    0.6921 H         1 2PY         0.0620
     32 H3          5.6500    9.8857   -0.2643 H         1 2PY         0.0632
     33 H4          5.2488   10.3148    5.8853 H         1 2PY         0.1370
     34 H5         13.2056   14.4909   -0.1893 H         1 2PY         0.0530
     35 H6         12.1025   13.8500    1.9678 H         1 2PY         0.0510
     36 H7          9.0883    8.9926    2.6325 H         1 2PY         0.0660
     37 H8         11.1183    7.3628    2.7936 H         1 2PY         0.0675
     38 H9         11.5885    8.9298    3.5352 H         1 2PY         0.0675
     39 H10         7.3420   10.2077    3.7208 H         1 2PY         0.0643
     40 H11        14.8781   12.9495   -1.2716 H         1 2PY         0.0541
     41 H12        12.6544   11.6548    3.0638 H         1 2PY         0.0540
     42 H13        16.1605   10.4663   -0.9836 H         1 2PY         0.2216
     43 H14        16.1266    8.5143    0.7319 H         1 2PY         0.0795
     44 H15        11.5223    9.9623   -0.7944 H         1 2PY         0.0746
     45 H16         7.4537   11.0000   -0.7977 H         1 2PY         0.0736
     46 H17        13.3667    7.0475    3.6445 H         1 2PY         0.0892
     47 H18        13.8977    9.5549    3.7962 H         1 2PY         0.0405
     48 H19        15.2382    8.4323    3.3844 H         1 2PY         0.0405
     49 H20        12.9057    6.2709    1.4146 H         1 2PY         0.1999
     50 H21        14.5053    6.6103    1.6035 H         1 2PY         0.1999
     51 H22        13.5384    7.6436    0.7628 H         1 2PY         0.1999
@<TRIPOS>BOND
     1    6    1 1  
     2    1   18 1  
     3   24    2 ar 
     4    2   25 ar 
     5    4    3 ar 
     6   17    3 ar 
     7    3   18 2  
     8    5    4 ar 
     9   15    5 ar 
    10   17    6 2  
    11    9    7 ar 
    12   19    7 ar 
    13   10    8 1  
    14    8   20 ar 
    15    8   21 ar 
    16   21    9 ar 
    17   10   23 2  
    18   28   10 1  
    19   12   11 ar 
    20   11   15 1  
    21   11   25 ar 
    22   13   12 ar 
    23   13   24 ar 
    24   26   13 1  
    25   14   26 1  
    26   27   14 1  
    27   15   16 ar 
    28   16   17 ar 
    29   20   19 ar 
    30   22   20 1  
    31   23   22 1  
    32   27   28 1  
    33   27   29 1  
    34    1   30 1  
    35    4   31 1  
    36    5   32 1  
    37    6   33 1  
    38    7   34 1  
    39    9   35 1  
    40   12   36 1  
    41   14   37 1  
    42   14   38 1  
    43   16   39 1  
    44   19   40 1  
    45   21   41 1  
    46   22   42 1  
    47   23   43 1  
    48   24   44 1  
    49   25   45 1  
    50   27   46 1  
    51   28   47 1  
    52   28   48 1  
    53   29   49 1  
    54   29   50 1  
    55   29   51 1  
@<TRIPOS>SUBSTRUCTURE
     1 2PY         1

