### 
### Created by X-TOOL on Mon Sep 10 21:12:55 2018
### 

@<TRIPOS>MOLECULE
2oh4_ligand
   53    56     1     0     0
SMALL
GAST_HUCK


@<TRIPOS>ATOM
      1 C5          3.8180   42.1630   16.2660 C.ar      1 GIG         0.0265
      2 C6          3.3520   40.9610   15.7890 C.ar      1 GIG        -0.0149
      3 C7          2.2310   40.9280   14.9250 C.ar      1 GIG         0.1321
      4 C8          1.6380   42.1490   14.5570 C.ar      1 GIG         0.1896
      5 C10         3.2090   43.3680   15.9180 C.ar      1 GIG        -0.0454
      6 N12         1.7150   39.7440   14.3920 N.am      1 GIG        -0.2079
      7 C13         1.8400   38.4790   14.9620 C.2       1 GIG         0.3138
      8 C17         0.3750   35.3350   13.5620 C.ar      1 GIG        -0.0484
      9 C20         1.3240   34.2650   15.9590 C.ar      1 GIG        -0.0416
     10 C21         1.5310   35.6090   15.6870 C.ar      1 GIG        -0.0484
     11 C24         0.9770   30.2490   16.5390 C.ar      1 GIG        -0.0141
     12 C36         2.5920   24.1590   20.7880 C.3       1 GIG         0.0670
     13 O35         3.3860   24.9300   19.8640 O.3       1 GIG        -0.2608
     14 C33         2.7940   26.0050   19.3060 C.2       1 GIG         0.3609
     15 O34         1.5340   26.0010   19.2070 O.2       1 GIG        -0.3635
     16 N32         3.6610   26.6580   18.5000 N.am      1 GIG        -0.1606
     17 C27         3.2900   27.8030   17.7700 C.2       1 GIG         0.2384
     18 N28         4.1140   28.5060   16.9830 N.2       1 GIG        -0.3213
     19 C29         3.3300   29.5070   16.4530 C.ar      1 GIG        -0.0008
     20 C30         3.6970   30.5510   15.5730 C.ar      1 GIG        -0.0755
     21 C31         2.6930   31.4170   15.1850 C.ar      1 GIG        -0.0468
     22 C23         1.3710   31.2660   15.6690 C.ar      1 GIG         0.0955
     23 O22         0.3720   32.1280   15.2970 O.3       1 GIG        -0.2758
     24 C19         0.6090   33.4740   15.0400 C.ar      1 GIG         0.0985
     25 C16         1.0590   36.1610   14.4710 C.ar      1 GIG         0.0572
     26 N15         1.2720   37.5070   14.1350 N.am      1 GIG        -0.2203
     27 O14         2.7540   38.2140   15.7960 O.2       1 GIG        -0.3818
     28 C9          2.1110   43.3720   15.0650 C.ar      1 GIG        -0.0056
     29 F11         0.5910   42.1310   13.7320 F         1 GIG        -0.1626
     30 C2          5.0010   42.1560   17.2260 C.3       1 GIG         0.3661
     31 F3          5.1800   43.3280   17.8870 F         1 GIG        -0.2267
     32 F4          4.8570   41.2930   18.2530 F         1 GIG        -0.2267
     33 F1          6.1940   41.7900   16.7140 F         1 GIG        -0.2267
     34 C18         0.1510   33.9940   13.8360 C.ar      1 GIG        -0.0416
     35 C25         1.9790   29.3760   16.9330 C.ar      1 GIG         0.0655
     36 N26         1.9620   28.2750   17.7700 N.pl3     1 GIG        -0.2319
     37 H1          3.8432   40.0378   16.0746 H         1 GIG         0.0680
     38 H2          3.5918   44.3022   16.3127 H         1 GIG         0.0744
     39 H3          1.2140   39.8102   13.5291 H         1 GIG         0.2256
     40 H4          0.0158   35.7542   12.6291 H         1 GIG         0.0479
     41 H5          1.7099   33.8269   16.8724 H         1 GIG         0.0516
     42 H6          2.0521   36.2348   16.4024 H         1 GIG         0.0479
     43 H7         -0.0456   30.1481   16.8842 H         1 GIG         0.0448
     44 H8          3.1877   23.3163   21.1688 H         1 GIG         0.0575
     45 H9          1.7000   23.7739   20.2723 H         1 GIG         0.0575
     46 H10         2.2826   24.7984   21.6279 H         1 GIG         0.0575
     47 H11         4.5973   26.3161   18.4197 H         1 GIG         0.2414
     48 H12         4.7155   30.6662   15.2203 H         1 GIG         0.0494
     49 H13         2.9209   32.2249   14.4991 H         1 GIG         0.0459
     50 H14         0.9915   37.7967   13.2199 H         1 GIG         0.2228
     51 H15         1.6269   44.3038   14.7956 H         1 GIG         0.0662
     52 H16        -0.3711   33.3642   13.1248 H         1 GIG         0.0516
     53 H17         1.1565   27.8859   18.2806 H         1 GIG         0.2286
@<TRIPOS>BOND
     1    2    1 ar 
     2    1    5 ar 
     3    1   30 1  
     4    3    2 ar 
     5    3    4 ar 
     6    6    3 1  
     7    4   28 ar 
     8    4   29 1  
     9   28    5 ar 
    10    7    6 am 
    11   26    7 am 
    12    7   27 2  
    13   25    8 ar 
    14    8   34 ar 
    15   10    9 ar 
    16    9   24 ar 
    17   25   10 ar 
    18   22   11 ar 
    19   11   35 ar 
    20   13   12 1  
    21   14   13 1  
    22   14   15 2  
    23   16   14 am 
    24   17   16 1  
    25   18   17 2  
    26   17   36 1  
    27   19   18 1  
    28   20   19 ar 
    29   35   19 ar 
    30   21   20 ar 
    31   22   21 ar 
    32   23   22 1  
    33   24   23 1  
    34   34   24 ar 
    35   25   26 1  
    36   30   31 1  
    37   30   32 1  
    38   30   33 1  
    39   35   36 1  
    40    2   37 1  
    41    5   38 1  
    42    6   39 1  
    43    8   40 1  
    44    9   41 1  
    45   10   42 1  
    46   11   43 1  
    47   12   44 1  
    48   12   45 1  
    49   12   46 1  
    50   16   47 1  
    51   20   48 1  
    52   21   49 1  
    53   26   50 1  
    54   28   51 1  
    55   34   52 1  
    56   36   53 1  
@<TRIPOS>SUBSTRUCTURE
     1 GIG         1

