### 
### Created by X-TOOL on Mon Sep 10 21:12:56 2018
### 

@<TRIPOS>MOLECULE
2ohk_ligand
   19    20     1     0     0
SMALL
GAST_HUCK


@<TRIPOS>ATOM
      1 N1         66.6510   49.0460    6.1240 N.pl3     1 1SQ        -0.3155
      2 C2         67.4210   49.0870    7.2440 C.ar      1 1SQ         0.1223
      3 N3         67.8830   50.2920    7.6400 N.ar      1 1SQ        -0.2916
      4 C4         68.6510   50.3330    8.7350 C.ar      1 1SQ        -0.0144
      5 C5         68.9550   49.2220    9.4970 C.ar      1 1SQ        -0.0498
      6 C6         68.4550   47.9810    9.1330 C.ar      1 1SQ        -0.0142
      7 C7         68.7150   46.8260    9.8620 C.ar      1 1SQ        -0.0523
      8 C8         68.1960   45.6130    9.4540 C.ar      1 1SQ        -0.0593
      9 C9         67.4250   45.5400    8.3140 C.ar      1 1SQ        -0.0583
     10 C10        67.1560   46.6740    7.5840 C.ar      1 1SQ        -0.0462
     11 C11        67.6570   47.9060    7.9780 C.ar      1 1SQ         0.0336
     12 H1         66.2785   48.1465    5.7878 H         1 1SQ         0.1821
     13 H2         66.4403   49.9144    5.6118 H         1 1SQ         0.1821
     14 H3         69.0567   51.2906    9.0407 H         1 1SQ         0.0720
     15 H4         69.5819   49.3198   10.3760 H         1 1SQ         0.0557
     16 H5         69.3278   46.8778   10.7546 H         1 1SQ         0.0616
     17 H6         68.3953   44.7173   10.0311 H         1 1SQ         0.0647
     18 H7         67.0287   44.5841    7.9912 H         1 1SQ         0.0611
     19 H8         66.5457   46.6043    6.6908 H         1 1SQ         0.0663
@<TRIPOS>BOND
     1    1    2 1  
     2    2    3 ar 
     3    2   11 ar 
     4    3    4 ar 
     5    4    5 ar 
     6    5    6 ar 
     7    6    7 ar 
     8    6   11 ar 
     9    7    8 ar 
    10    8    9 ar 
    11    9   10 ar 
    12   10   11 ar 
    13    1   12 1  
    14    1   13 1  
    15    4   14 1  
    16    5   15 1  
    17    7   16 1  
    18    8   17 1  
    19    9   18 1  
    20   10   19 1  
@<TRIPOS>SUBSTRUCTURE
     1 1SQ         1

