### 
### Created by X-TOOL on Mon Sep 10 21:12:56 2018
### 

@<TRIPOS>MOLECULE
2ohl_ligand
   19    20     1     0     0
SMALL
GAST_HUCK


@<TRIPOS>ATOM
      1 N1         65.9390   48.6290    6.0130 N.pl3     1 2AQ        -0.3191
      2 C2         66.6300   48.6680    7.0830 C.ar      1 2AQ         0.1076
      3 C3         66.9230   47.5020    7.7790 C.ar      1 2AQ        -0.0091
      4 C4         67.6720   47.5720    8.9280 C.ar      1 2AQ        -0.0394
      5 C5         68.1000   48.8100    9.3810 C.ar      1 2AQ        -0.0028
      6 C6         68.8550   48.9590   10.5330 C.ar      1 2AQ        -0.0516
      7 C7         69.2520   50.2120   10.9470 C.ar      1 2AQ        -0.0604
      8 C8         68.9030   51.3310   10.2150 C.ar      1 2AQ        -0.0610
      9 C9         68.1580   51.2020    9.0600 C.ar      1 2AQ        -0.0475
     10 C10        67.7480   49.9540    8.6280 C.ar      1 2AQ         0.0274
     11 N11        67.0270   49.8790    7.5020 N.ar      1 2AQ        -0.2921
     12 H1         65.6081   47.7252    5.6463 H         1 2AQ         0.1795
     13 H2         65.7114   49.5013    5.5148 H         1 2AQ         0.1795
     14 H3         66.5635   46.5451    7.4183 H         1 2AQ         0.0647
     15 H4         67.9253   46.6703    9.4738 H         1 2AQ         0.0755
     16 H5         69.1348   48.0859   11.1114 H         1 2AQ         0.0644
     17 H6         69.8406   50.3204   11.8508 H         1 2AQ         0.0604
     18 H7         69.2154   52.3138   10.5490 H         1 2AQ         0.0638
     19 H8         67.8929   52.0841    8.4884 H         1 2AQ         0.0603
@<TRIPOS>BOND
     1    1    2 1  
     2    2    3 ar 
     3    2   11 ar 
     4    3    4 ar 
     5    4    5 ar 
     6    5    6 ar 
     7    5   10 ar 
     8    6    7 ar 
     9    7    8 ar 
    10    8    9 ar 
    11    9   10 ar 
    12   10   11 ar 
    13    1   12 1  
    14    1   13 1  
    15    3   14 1  
    16    4   15 1  
    17    6   16 1  
    18    7   17 1  
    19    8   18 1  
    20    9   19 1  
@<TRIPOS>SUBSTRUCTURE
     1 2AQ         1

