### 
### Created by X-TOOL on Mon Sep 10 21:12:56 2018
### 

@<TRIPOS>MOLECULE
2ohm_ligand
   28    29     1     0     0
SMALL
GAST_HUCK


@<TRIPOS>ATOM
      1 N1         65.6880   48.6310    6.2310 N.pl3     1 8AP        -0.3263
      2 C2         66.2870   47.8660    7.2320 C.ar      1 8AP         0.1292
      3 N3         66.0580   46.5570    7.2700 N.ar      1 8AP        -0.3002
      4 C4         66.5910   45.7550    8.1840 C.ar      1 8AP        -0.0194
      5 C5         67.4340   46.2650    9.1590 C.ar      1 8AP        -0.0613
      6 C6         67.7060   47.6270    9.1660 C.ar      1 8AP        -0.0364
      7 C7         67.1160   48.4480    8.2020 C.ar      1 8AP         0.0878
      8 N8         67.3950   49.8210    8.1900 N.pl3     1 8AP        -0.3100
      9 C9         68.5800   50.3200    8.9060 C.3       1 8AP         0.0568
     10 C10        69.8690   49.8130    8.2810 C.ar      1 8AP        -0.0219
     11 C11        69.8650   49.0380    7.1180 C.ar      1 8AP        -0.0585
     12 C12        71.0520   48.5880    6.5590 C.ar      1 8AP        -0.0685
     13 C13        72.2570   48.9160    7.1620 C.ar      1 8AP        -0.0687
     14 C14        72.2660   49.6880    8.3180 C.ar      1 8AP        -0.0685
     15 C15        71.0770   50.1340    8.8800 C.ar      1 8AP        -0.0585
     16 H1         65.8560   49.6463    6.1887 H         1 8AP         0.1730
     17 H2         65.0777   48.1805    5.5342 H         1 8AP         0.1730
     18 H3         66.3655   44.6948    8.1677 H         1 8AP         0.0656
     19 H4         67.8737   45.6116    9.9038 H         1 8AP         0.0560
     20 H5         68.3696   48.0488    9.9122 H         1 8AP         0.0581
     21 H6         66.7778   50.4736    7.6859 H         1 8AP         0.1768
     22 H7         68.5336   49.9815    9.9516 H         1 8AP         0.0673
     23 H8         68.5778   51.4196    8.8761 H         1 8AP         0.0673
     24 H9         68.9221   48.7853    6.6467 H         1 8AP         0.0557
     25 H10        71.0379   47.9850    5.6583 H         1 8AP         0.0599
     26 H11        73.1905   48.5709    6.7325 H         1 8AP         0.0559
     27 H12        73.2100   49.9443    8.7851 H         1 8AP         0.0599
     28 H13        71.0936   50.7314    9.7844 H         1 8AP         0.0557
@<TRIPOS>BOND
     1    1    2 1  
     2    2    3 ar 
     3    2    7 ar 
     4    3    4 ar 
     5    4    5 ar 
     6    5    6 ar 
     7    6    7 ar 
     8    7    8 1  
     9    8    9 1  
    10    9   10 1  
    11   10   11 ar 
    12   10   15 ar 
    13   11   12 ar 
    14   12   13 ar 
    15   13   14 ar 
    16   14   15 ar 
    17    1   16 1  
    18    1   17 1  
    19    4   18 1  
    20    5   19 1  
    21    6   20 1  
    22    8   21 1  
    23    9   22 1  
    24    9   23 1  
    25   11   24 1  
    26   12   25 1  
    27   13   26 1  
    28   14   27 1  
    29   15   28 1  
@<TRIPOS>SUBSTRUCTURE
     1 8AP         1

