### 
### Created by X-TOOL on Mon Sep 10 21:12:55 2018
### 

@<TRIPOS>MOLECULE
2ohr_ligand
   37    39     1     0     0
SMALL
GAST_HUCK


@<TRIPOS>ATOM
      1 N1         65.3690   47.2000    6.3800 N.pl3     1 8IP        -0.3263
      2 C2         66.0320   46.3570    7.1920 C.ar      1 8IP         0.1292
      3 N3         65.6790   45.0520    7.1510 N.ar      1 8IP        -0.3002
      4 C4         66.3160   44.2090    7.9730 C.ar      1 8IP        -0.0194
      5 C5         67.2970   44.6060    8.8580 C.ar      1 8IP        -0.0613
      6 C6         67.6600   45.9320    8.9150 C.ar      1 8IP        -0.0364
      7 C7         67.0250   46.8470    8.0850 C.ar      1 8IP         0.0878
      8 N8         67.3140   48.2130    8.0970 N.pl3     1 8IP        -0.3100
      9 C9         68.2930   48.8430    8.9680 C.3       1 8IP         0.0569
     10 C10        69.7330   48.5410    8.6180 C.ar      1 8IP        -0.0206
     11 C11        70.7450   48.9240    9.4820 C.ar      1 8IP        -0.0575
     12 C12        72.0640   48.6670    9.1750 C.ar      1 8IP        -0.0668
     13 C13        72.3920   48.0050    8.0120 C.ar      1 8IP        -0.0592
     14 C14        71.4000   47.6030    7.1250 C.ar      1 8IP        -0.0174
     15 C15        70.0700   47.8750    7.4430 C.ar      1 8IP        -0.0493
     16 C16        71.7530   46.8550    5.8850 C.ar      1 8IP         0.0079
     17 C17        72.7980   45.9420    5.8710 C.ar      1 8IP        -0.0351
     18 C18        73.0820   45.2550    4.7120 C.ar      1 8IP        -0.0338
     19 C19        72.2990   45.4660    3.5970 C.ar      1 8IP         0.0108
     20 N20        71.2840   46.3340    3.5720 N.ar      1 8IP        -0.2963
     21 C21        71.0160   46.9940    4.7090 C.ar      1 8IP         0.0186
     22 H1         65.6034   48.2030    6.3767 H         1 8IP         0.1730
     23 H2         64.6270   46.8425    5.7615 H         1 8IP         0.1730
     24 H3         66.0469   43.1594    7.9416 H         1 8IP         0.0656
     25 H4         67.7778   43.8795    9.5030 H         1 8IP         0.0560
     26 H5         68.4334   46.2591    9.6005 H         1 8IP         0.0581
     27 H6         66.7970   48.8172    7.4424 H         1 8IP         0.1768
     28 H7         68.1101   48.4977    9.9963 H         1 8IP         0.0673
     29 H8         68.1483   49.9322    8.9157 H         1 8IP         0.0673
     30 H9         70.4978   49.4304   10.4080 H         1 8IP         0.0566
     31 H10        72.8474   48.9874    9.8522 H         1 8IP         0.0603
     32 H11        73.4316   47.7960    7.7870 H         1 8IP         0.0575
     33 H12        69.2851   47.5626    6.7637 H         1 8IP         0.0569
     34 H13        73.3861   45.7710    6.7654 H         1 8IP         0.0741
     35 H14        73.9107   44.5571    4.6767 H         1 8IP         0.0709
     36 H15        72.5174   44.9008    2.6982 H         1 8IP         0.0820
     37 H16        70.1747   47.6775    4.7140 H         1 8IP         0.0831
@<TRIPOS>BOND
     1    1    2 1  
     2    2    3 ar 
     3    2    7 ar 
     4    3    4 ar 
     5    4    5 ar 
     6    5    6 ar 
     7    6    7 ar 
     8    7    8 1  
     9    8    9 1  
    10    9   10 1  
    11   10   11 ar 
    12   10   15 ar 
    13   11   12 ar 
    14   12   13 ar 
    15   13   14 ar 
    16   14   15 ar 
    17   14   16 1  
    18   16   17 ar 
    19   16   21 ar 
    20   17   18 ar 
    21   18   19 ar 
    22   19   20 ar 
    23   20   21 ar 
    24    1   22 1  
    25    1   23 1  
    26    4   24 1  
    27    5   25 1  
    28    6   26 1  
    29    8   27 1  
    30    9   28 1  
    31    9   29 1  
    32   11   30 1  
    33   12   31 1  
    34   13   32 1  
    35   15   33 1  
    36   17   34 1  
    37   18   35 1  
    38   19   36 1  
    39   21   37 1  
@<TRIPOS>SUBSTRUCTURE
     1 8IP         1

