### 
### Created by X-TOOL on Mon Sep 10 21:12:56 2018
### 

@<TRIPOS>MOLECULE
2oht_ligand
   42    45     1     0     0
SMALL
GAST_HUCK


@<TRIPOS>ATOM
      1 N1         65.8610   48.7170    6.5440 N.pl3     1 IP6        -0.3263
      2 C2         65.7760   48.1960    7.8330 C.ar      1 IP6         0.1292
      3 N3         65.1480   47.0390    8.0370 N.ar      1 IP6        -0.3002
      4 C4         65.0470   46.5000    9.2420 C.ar      1 IP6        -0.0194
      5 C5         65.5920   47.1180   10.3530 C.ar      1 IP6        -0.0613
      6 C6         66.2570   48.3260   10.1850 C.ar      1 IP6        -0.0364
      7 C7         66.3570   48.8900    8.9100 C.ar      1 IP6         0.0878
      8 N8         67.0270   50.1180    8.6990 N.pl3     1 IP6        -0.3100
      9 C9         67.7440   50.8000    9.7950 C.3       1 IP6         0.0565
     10 C10        69.1070   50.1540    9.9970 C.ar      1 IP6        -0.0227
     11 C11        69.5460   49.9200   11.3020 C.ar      1 IP6        -0.0594
     12 C12        70.7790   49.3260   11.5120 C.ar      1 IP6        -0.0689
     13 C13        71.5790   48.9590   10.4280 C.ar      1 IP6        -0.0629
     14 C14        71.1570   49.2000    9.1100 C.ar      1 IP6        -0.0317
     15 C15        69.9000   49.7890    8.8990 C.ar      1 IP6        -0.0531
     16 C16        72.0310   48.7840    7.9840 C.ar      1 IP6        -0.0337
     17 C17        73.4380   48.8230    8.1250 C.ar      1 IP6        -0.0708
     18 C18        74.2530   48.4180    7.0920 C.ar      1 IP6        -0.0739
     19 C19        73.6950   47.9500    5.8810 C.ar      1 IP6        -0.0269
     20 C20        74.2490   47.4550    4.6050 C.2       1 IP6        -0.0628
     21 C21        73.2110   47.1310    3.7960 C.2       1 IP6         0.0223
     22 N22        72.0250   47.3840    4.4400 N.pl3     1 IP6        -0.2792
     23 C23        72.2780   47.8790    5.7250 C.ar      1 IP6         0.0648
     24 C24        71.4560   48.2980    6.7960 C.ar      1 IP6        -0.0351
     25 H1         66.3455   49.6112    6.3809 H         1 IP6         0.1730
     26 H2         65.4394   48.2081    5.7540 H         1 IP6         0.1730
     27 H3         64.5272   45.5561    9.3602 H         1 IP6         0.0656
     28 H4         65.5020   46.6686   11.3353 H         1 IP6         0.0560
     29 H5         66.6964   48.8290   11.0388 H         1 IP6         0.0581
     30 H6         67.0144   50.5450    7.7618 H         1 IP6         0.1768
     31 H7         67.1587   50.7162   10.7226 H         1 IP6         0.0673
     32 H8         67.8769   51.8617    9.5399 H         1 IP6         0.0673
     33 H9         68.9255   50.2016   12.1450 H         1 IP6         0.0550
     34 H10        71.1250   49.1449   12.5232 H         1 IP6         0.0597
     35 H11        72.5365   48.4828   10.6055 H         1 IP6         0.0557
     36 H12        69.5432   49.9613    7.8900 H         1 IP6         0.0550
     37 H13        73.8771   49.1739    9.0519 H         1 IP6         0.0524
     38 H14        75.3300   48.4584    7.2084 H         1 IP6         0.0539
     39 H15        75.3058   47.3659    4.3575 H         1 IP6         0.0291
     40 H16        73.3036   46.7305    2.7876 H         1 IP6         0.0940
     41 H17        71.0890   47.2323    4.0378 H         1 IP6         0.2270
     42 H18        70.3775   48.2445    6.7012 H         1 IP6         0.0553
@<TRIPOS>BOND
     1    1    2 1  
     2    2    3 ar 
     3    2    7 ar 
     4    3    4 ar 
     5    4    5 ar 
     6    5    6 ar 
     7    6    7 ar 
     8    7    8 1  
     9    8    9 1  
    10    9   10 1  
    11   10   11 ar 
    12   10   15 ar 
    13   11   12 ar 
    14   12   13 ar 
    15   13   14 ar 
    16   14   15 ar 
    17   14   16 1  
    18   16   17 ar 
    19   16   24 ar 
    20   17   18 ar 
    21   18   19 ar 
    22   19   20 1  
    23   19   23 ar 
    24   20   21 2  
    25   21   22 1  
    26   22   23 1  
    27   23   24 ar 
    28    1   25 1  
    29    1   26 1  
    30    4   27 1  
    31    5   28 1  
    32    6   29 1  
    33    8   30 1  
    34    9   31 1  
    35    9   32 1  
    36   11   33 1  
    37   12   34 1  
    38   13   35 1  
    39   15   36 1  
    40   17   37 1  
    41   18   38 1  
    42   20   39 1  
    43   21   40 1  
    44   22   41 1  
    45   24   42 1  
@<TRIPOS>SUBSTRUCTURE
     1 IP6         1

