### 
### Created by X-TOOL on Mon Sep 10 21:12:55 2018
### 

@<TRIPOS>MOLECULE
2ohu_ligand
   55    59     1     0     0
SMALL
GAST_HUCK


@<TRIPOS>ATOM
      1 N1         66.0360   48.6110    5.9490 N.pl3     1 IP7        -0.3263
      2 C2         65.8280   48.1070    7.2250 C.ar      1 IP7         0.1292
      3 N3         65.2290   46.9250    7.3770 N.ar      1 IP7        -0.3002
      4 C4         65.0120   46.3850    8.5740 C.ar      1 IP7        -0.0194
      5 C5         65.3990   47.0460    9.7300 C.ar      1 IP7        -0.0613
      6 C6         66.0280   48.2850    9.6220 C.ar      1 IP7        -0.0365
      7 C7         66.2470   48.8450    8.3540 C.ar      1 IP7         0.0876
      8 N8         66.9010   50.0870    8.2030 N.pl3     1 IP7        -0.3115
      9 C9         67.5590   50.7320    9.3440 C.3       1 IP7         0.0551
     10 C10        68.8540   50.0560    9.7630 C.ar      1 IP7         0.0083
     11 C11        69.7790   49.7240    8.7840 C.ar      1 IP7        -0.0602
     12 C12        70.9900   49.1200    9.1360 C.ar      1 IP7        -0.0416
     13 C13        71.2790   48.8260   10.4910 C.ar      1 IP7        -0.0704
     14 C14        70.3510   49.1470   11.4760 C.ar      1 IP7        -0.0382
     15 C15        69.1360   49.7630   11.1220 C.ar      1 IP7         0.0987
     16 O16        68.2380   50.0740   12.1090 O.3       1 IP7        -0.3059
     17 C17        68.5890   51.3460   12.6680 C.3       1 IP7         0.1182
     18 C18        67.7320   52.4160   12.0360 C.ar      1 IP7         0.0583
     19 C19        66.3800   52.5190   12.3870 C.ar      1 IP7        -0.0298
     20 C20        65.5840   53.5110   11.8020 C.ar      1 IP7        -0.0488
     21 C21        66.2090   54.3670   10.8910 C.ar      1 IP7        -0.0410
     22 C22        67.5550   54.2120   10.5740 C.ar      1 IP7         0.0029
     23 N23        68.2680   53.2470   11.1420 N.ar      1 IP7        -0.2954
     24 C24        71.9470   48.7460    8.0740 C.ar      1 IP7        -0.0404
     25 C25        73.3390   48.8440    8.2790 C.ar      1 IP7        -0.0730
     26 C26        74.2010   48.4470    7.2890 C.ar      1 IP7        -0.0751
     27 C27        73.6900   47.9400    6.0730 C.ar      1 IP7        -0.0281
     28 C28        74.2930   47.4450    4.8410 C.2       1 IP7        -0.0638
     29 C29        73.3020   47.0690    4.0120 C.2       1 IP7         0.0215
     30 N30        72.0920   47.2820    4.5890 N.pl3     1 IP7        -0.2800
     31 C31        72.2850   47.8090    5.8700 C.ar      1 IP7         0.0630
     32 C32        71.4230   48.2120    6.9000 C.ar      1 IP7        -0.0380
     33 H1         66.4980   49.5231    5.8245 H         1 IP7         0.1730
     34 H2         65.7284   48.0730    5.1263 H         1 IP7         0.1730
     35 H3         64.5275   45.4180    8.6460 H         1 IP7         0.0656
     36 H4         65.2150   46.6055   10.7032 H         1 IP7         0.0560
     37 H5         66.3465   48.8136   10.5132 H         1 IP7         0.0581
     38 H6         66.9162   50.5455    7.2808 H         1 IP7         0.1765
     39 H7         66.8667   50.7166   10.1987 H         1 IP7         0.0650
     40 H8         67.7831   51.7741    9.0724 H         1 IP7         0.0650
     41 H9         69.5623   49.9335    7.7427 H         1 IP7         0.0525
     42 H10        72.2174   48.3539   10.7586 H         1 IP7         0.0535
     43 H11        70.5633   48.9230   12.5152 H         1 IP7         0.0526
     44 H12        69.6497   51.5569   12.4668 H         1 IP7         0.0807
     45 H13        68.4178   51.3309   13.7545 H         1 IP7         0.0807
     46 H14        65.9516   51.8332   13.1089 H         1 IP7         0.0652
     47 H15        64.5321   53.6105   12.0443 H         1 IP7         0.0719
     48 H16        65.6378   55.1620   10.4253 H         1 IP7         0.0652
     49 H17        68.0228   54.8813    9.8611 H         1 IP7         0.0803
     50 H18        73.7257   49.2313    9.2147 H         1 IP7         0.0513
     51 H19        75.2720   48.5220    7.4389 H         1 IP7         0.0537
     52 H20        75.3597   47.3893    4.6288 H         1 IP7         0.0289
     53 H21        73.4501   46.6520    3.0170 H         1 IP7         0.0933
     54 H22        71.1791   47.0870    4.1537 H         1 IP7         0.2267
     55 H23        70.3504   48.1079    6.7823 H         1 IP7         0.0535
@<TRIPOS>BOND
     1    1    2 1  
     2    2    3 ar 
     3    2    7 ar 
     4    3    4 ar 
     5    4    5 ar 
     6    5    6 ar 
     7    6    7 ar 
     8    7    8 1  
     9    8    9 1  
    10    9   10 1  
    11   10   11 ar 
    12   10   15 ar 
    13   11   12 ar 
    14   12   13 ar 
    15   12   24 1  
    16   13   14 ar 
    17   14   15 ar 
    18   15   16 1  
    19   16   17 1  
    20   17   18 1  
    21   18   19 ar 
    22   18   23 ar 
    23   19   20 ar 
    24   20   21 ar 
    25   21   22 ar 
    26   22   23 ar 
    27   24   25 ar 
    28   24   32 ar 
    29   25   26 ar 
    30   26   27 ar 
    31   27   28 1  
    32   27   31 ar 
    33   28   29 2  
    34   29   30 1  
    35   30   31 1  
    36   31   32 ar 
    37    1   33 1  
    38    1   34 1  
    39    4   35 1  
    40    5   36 1  
    41    6   37 1  
    42    8   38 1  
    43    9   39 1  
    44    9   40 1  
    45   11   41 1  
    46   13   42 1  
    47   14   43 1  
    48   17   44 1  
    49   17   45 1  
    50   19   46 1  
    51   20   47 1  
    52   21   48 1  
    53   22   49 1  
    54   25   50 1  
    55   26   51 1  
    56   28   52 1  
    57   29   53 1  
    58   30   54 1  
    59   32   55 1  
@<TRIPOS>SUBSTRUCTURE
     1 IP7         1

