### 
### Created by X-TOOL on Mon Sep 10 21:12:56 2018
### 

@<TRIPOS>MOLECULE
2ohv_ligand
   37    38     1     0     0
SMALL
GAST_HUCK


@<TRIPOS>ATOM
      1 C8         36.2470   32.8940   68.4700 C.ar      1 NHL        -0.0565
      2 C7         34.9780   32.3740   68.0820 C.ar      1 NHL        -0.0567
      3 C3         33.9610   32.1660   69.0540 C.ar      1 NHL        -0.0222
      4 C2         32.6940   31.6490   68.6630 C.ar      1 NHL        -0.0568
      5 C1         31.6820   31.4440   69.6360 C.ar      1 NHL        -0.0634
      6 C6         31.9310   31.7550   71.0100 C.ar      1 NHL        -0.0637
      7 C5         33.2000   32.2750   71.4190 C.ar      1 NHL        -0.0578
      8 C4         34.2260   32.4860   70.4540 C.ar      1 NHL        -0.0259
      9 C10        35.5000   33.0080   70.8410 C.ar      1 NHL        -0.0548
     10 C9         36.5170   33.2200   69.8520 C.ar      1 NHL        -0.0403
     11 C11        37.8870   33.7850   70.2440 C.3       1 NHL        -0.0042
     12 CG         38.0840   35.2250   69.6560 C.3       1 NHL         0.0282
     13 CD         39.4530   35.3250   68.9520 C.2       1 NHL         0.0401
     14 OE2        39.5110   35.2990   67.6190 O.co2     1 NHL        -0.5685
     15 OE1        40.5100   35.4340   69.5830 O.co2     1 NHL        -0.5685
     16 CB         37.9710   36.3020   70.7970 C.3       1 NHL         0.0186
     17 CA         38.1470   37.7960   70.4170 C.3       1 NHL         0.0303
     18 N          37.2920   38.1220   69.2290 N.4       1 NHL         0.2328
     19 C          37.7820   38.6400   71.6250 C.2       1 NHL         0.0845
     20 OXT        38.5120   38.7260   72.5890 O.co2     1 NHL        -0.5643
     21 O          36.6110   39.2780   71.5890 O.co2     1 NHL        -0.5643
     22 H1         37.0166   33.0464   67.7219 H         1 NHL         0.0586
     23 H2         34.7873   32.1361   67.0418 H         1 NHL         0.0620
     24 H3         32.5023   31.4121   67.6227 H         1 NHL         0.0619
     25 H4         30.7171   31.0505   69.3374 H         1 NHL         0.0598
     26 H5         31.1523   31.5955   71.7471 H         1 NHL         0.0611
     27 H6         33.3801   32.5080   72.4622 H         1 NHL         0.0603
     28 H7         35.6969   33.2432   71.8807 H         1 NHL         0.0531
     29 H8         38.6749   33.1247   69.8526 H         1 NHL         0.0449
     30 H9         37.9580   33.8305   71.3408 H         1 NHL         0.0449
     31 H10        37.2930   35.4145   68.9155 H         1 NHL         0.0492
     32 H11        38.7395   36.0639   71.5472 H         1 NHL         0.0361
     33 H12        36.9732   36.1958   71.2477 H         1 NHL         0.0361
     34 H13        39.1987   37.9840   70.1551 H         1 NHL         0.1025
     35 H14        37.4101   39.0932   68.9865 H         1 NHL         0.2010
     36 H15        36.3249   37.9468   69.4528 H         1 NHL         0.2010
     37 H16        37.5663   37.5452   68.4492 H         1 NHL         0.2010
@<TRIPOS>BOND
     1    1    2 ar 
     2    1   10 ar 
     3    2    3 ar 
     4    3    4 ar 
     5    3    8 ar 
     6    4    5 ar 
     7    5    6 ar 
     8    6    7 ar 
     9    7    8 ar 
    10    8    9 ar 
    11    9   10 ar 
    12   10   11 1  
    13   11   12 1  
    14   12   13 1  
    15   12   16 1  
    16   13   14 ar 
    17   13   15 ar 
    18   16   17 1  
    19   17   18 1  
    20   17   19 1  
    21   19   20 ar 
    22   19   21 ar 
    23    1   22 1  
    24    2   23 1  
    25    4   24 1  
    26    5   25 1  
    27    6   26 1  
    28    7   27 1  
    29    9   28 1  
    30   11   29 1  
    31   11   30 1  
    32   12   31 1  
    33   16   32 1  
    34   16   33 1  
    35   17   34 1  
    36   18   35 1  
    37   18   36 1  
    38   18   37 1  
@<TRIPOS>SUBSTRUCTURE
     1 NHL         1

