### 
### Created by X-TOOL on Mon Sep 10 21:12:56 2018
### 

@<TRIPOS>MOLECULE
2oi0_ligand
   37    38     1     0     0
SMALL
GAST_HUCK


@<TRIPOS>ATOM
      1 C          46.0850   28.4790    2.5260 C.ar      1 283        -0.0313
      2 C1         45.1140   28.8150    1.5370 C.ar      1 283        -0.0440
      3 C2         43.3680   28.5170    3.1750 C.ar      1 283        -0.0440
      4 C3         44.3110   28.1830    4.1440 C.ar      1 283        -0.0313
      5 C4         45.6660   28.1620    3.8390 C.ar      1 283         0.0925
      6 O          46.4720   27.8170    4.9230 O.3       1 283        -0.3055
      7 C5         47.9140   27.7740    4.7600 C.3       1 283         0.1308
      8 C6         48.5850   23.9670    3.0390 C.3       1 283        -0.0025
      9 C7         48.4120   25.3010    3.6900 C.1       1 283        -0.1029
     10 C8         48.2690   26.3640    4.1920 C.1       1 283        -0.0692
     11 C9         43.7530   28.8330    1.8840 C.ar      1 283         0.0971
     12 O1         42.9950   28.7670   -0.4940 O.2       1 283        -0.1515
     13 O2         41.1530   28.7870    1.1990 O.2       1 283        -0.1515
     14 S          42.4650   29.2650    0.7610 S.o2      1 283         0.0657
     15 C10        40.8840   31.5860    0.4110 C.3       1 283         0.0306
     16 N          42.2240   31.0160    0.7550 N.am      1 283        -0.2342
     17 C11        42.4910   31.6260    2.0950 C.3       1 283         0.0411
     18 C12        41.2000   31.4320    2.8880 C.3       1 283         0.0208
     19 S1         41.1580   31.9760    4.5860 S.3       1 283        -0.1732
     20 C13        40.2900   31.9010    1.7620 C.3       1 283        -0.0227
     21 H1         47.1389   28.4667    2.2726 H         1 283         0.0542
     22 H2         45.4236   29.0545    0.5261 H         1 283         0.0608
     23 H3         42.3160   28.5296    3.4362 H         1 283         0.0608
     24 H4         43.9838   27.9366    5.1476 H         1 283         0.0542
     25 H5         48.4083   27.9252    5.7310 H         1 283         0.0752
     26 H6         48.2380   28.5563    4.0578 H         1 283         0.0752
     27 H7         49.0067   23.2565    3.7653 H         1 283         0.0362
     28 H8         49.2673   24.0631    2.1816 H         1 283         0.0362
     29 H9         47.6084   23.5993    2.6911 H         1 283         0.0362
     30 H10        40.2690   30.8512   -0.1293 H         1 283         0.0478
     31 H11        40.9864   32.4966   -0.1975 H         1 283         0.0478
     32 H12        42.7233   32.6963    1.9922 H         1 283         0.0489
     33 H13        43.3290   31.1149    2.5914 H         1 283         0.0489
     34 H14        41.0256   30.3509    2.9916 H         1 283         0.0426
     35 H15        40.2488   31.7842    4.9766 H         1 283         0.1020
     36 H16        39.3175   31.3951    1.8528 H         1 283         0.0292
     37 H17        40.1470   32.9884    1.8460 H         1 283         0.0292
@<TRIPOS>BOND
     1    1    2 ar 
     2    5    1 ar 
     3    2   11 ar 
     4    4    3 ar 
     5    3   11 ar 
     6    5    4 ar 
     7    6    5 1  
     8    7    6 1  
     9   10    7 1  
    10    9    8 1  
    11    9   10 3  
    12   11   14 1  
    13   14   12 2  
    14   14   13 2  
    15   14   16 am 
    16   16   15 1  
    17   15   20 1  
    18   16   17 1  
    19   17   18 1  
    20   18   19 1  
    21   18   20 1  
    22    1   21 1  
    23    2   22 1  
    24    3   23 1  
    25    4   24 1  
    26    7   25 1  
    27    7   26 1  
    28    8   27 1  
    29    8   28 1  
    30    8   29 1  
    31   15   30 1  
    32   15   31 1  
    33   17   32 1  
    34   17   33 1  
    35   18   34 1  
    36   19   35 1  
    37   20   36 1  
    38   20   37 1  
@<TRIPOS>SUBSTRUCTURE
     1 283         1

