### 
### Created by X-TOOL on Mon Sep 10 21:12:56 2018
### 

@<TRIPOS>MOLECULE
2oic_ligand
   62    69     1     0     0
SMALL
GAST_HUCK


@<TRIPOS>ATOM
      1 O4        -19.2060   12.5950   -3.9270 O.3       1 STU        -0.3149
      2 C25       -19.4840   11.9690   -5.1960 C.3       1 STU         0.1668
      3 C24       -20.1470   12.9620   -6.1700 C.3       1 STU         0.0455
      4 C23       -21.2590   13.8520   -5.6080 C.3       1 STU         0.0141
      5 C22       -21.4710   13.6810   -4.1070 C.3       1 STU         0.1556
      6 C21       -20.2810   13.1910   -3.2150 C.3       1 STU         0.2020
      7 C26       -19.6730   14.3440   -2.4030 C.3       1 STU        -0.0059
      8 N2        -20.8400   12.1340   -2.3120 N.pl3     1 STU        -0.2292
      9 C18       -21.1800   10.8270   -2.7250 C.ar      1 STU         0.0978
     10 C19       -20.7420   10.1370   -3.8510 C.ar      1 STU         0.0952
     11 C6        -21.0940    8.7990   -4.0080 C.ar      1 STU        -0.0018
     12 C7        -21.7930    8.1650   -2.9600 C.ar      1 STU         0.0320
     13 C10       -22.1910    8.8270   -1.8130 C.ar      1 STU        -0.0168
     14 C11       -21.8690   10.1870   -1.6930 C.ar      1 STU         0.0011
     15 C12       -22.0990   11.1460   -0.6940 C.ar      1 STU        -0.0075
     16 C17       -21.5590   12.3550   -1.1110 C.ar      1 STU         0.0695
     17 C16       -21.5980   13.5060   -0.3060 C.ar      1 STU        -0.0408
     18 C15       -22.2670   13.4120    0.9180 C.ar      1 STU        -0.0739
     19 C14       -22.8220   12.1910    1.3150 C.ar      1 STU        -0.0759
     20 C13       -22.7480   11.0380    0.5250 C.ar      1 STU        -0.0696
     21 C9        -22.9390    7.9540   -0.9250 C.3       1 STU         0.0603
     22 N1        -22.9640    6.6640   -1.6590 N.am      1 STU        -0.2790
     23 C8        -22.2760    6.8460   -2.8310 C.2       1 STU         0.1871
     24 O5        -22.1420    5.8780   -3.6870 O.2       1 STU        -0.3964
     25 C5        -20.5860    8.3920   -5.2430 C.ar      1 STU        -0.0072
     26 C20       -19.9240    9.4750   -5.8230 C.ar      1 STU         0.0681
     27 C1        -19.3620    9.3660   -7.0940 C.ar      1 STU        -0.0404
     28 C2        -19.4010    8.1140   -7.7280 C.ar      1 STU        -0.0732
     29 C3        -20.0380    7.0210   -7.1060 C.ar      1 STU        -0.0750
     30 C4        -20.6500    7.1500   -5.8570 C.ar      1 STU        -0.0685
     31 N3        -20.1420   10.6360   -5.0380 N.pl3     1 STU        -0.2376
     32 O6        -22.5610   12.7400   -4.1920 O.3       1 STU        -0.3686
     33 C27       -23.7780   13.1960   -3.6340 C.3       1 STU         0.0373
     34 N4        -21.2350   15.2490   -6.0430 N.4       1 STU         0.2291
     35 C28       -22.0060   16.3020   -5.3550 C.3       1 STU        -0.0445
     36 H1        -18.5037   11.7456   -5.6422 H         1 STU         0.0933
     37 H2        -20.5762   12.3782   -6.9976 H         1 STU         0.0372
     38 H3        -19.3578   13.6228   -6.5580 H         1 STU         0.0372
     39 H4        -22.1767   13.4492   -6.0613 H         1 STU         0.0880
     40 H5        -21.8118   14.6328   -3.6735 H         1 STU         0.0710
     41 H6        -20.4655   14.8451   -1.8278 H         1 STU         0.0284
     42 H7        -19.2036   15.0665   -3.0868 H         1 STU         0.0284
     43 H8        -18.9145   13.9463   -1.7127 H         1 STU         0.0284
     44 H9        -21.1279   14.4304   -0.6216 H         1 STU         0.0538
     45 H10       -22.3553   14.2828    1.5575 H         1 STU         0.0561
     46 H11       -23.3290   12.1356    2.2715 H         1 STU         0.0516
     47 H12       -23.1805   10.0998    0.8533 H         1 STU         0.0566
     48 H13       -23.9580    8.3354   -0.7631 H         1 STU         0.0679
     49 H14       -22.4294    7.8466    0.0439 H         1 STU         0.0679
     50 H15       -23.4019    5.8180   -1.3548 H         1 STU         0.1863
     51 H16       -18.9081   10.2229   -7.5787 H         1 STU         0.0539
     52 H17       -18.9391    7.9872   -8.7004 H         1 STU         0.0568
     53 H18       -20.0532    6.0601   -7.6076 H         1 STU         0.0516
     54 H19       -21.1544    6.3136   -5.3868 H         1 STU         0.0576
     55 H20       -24.5465   12.4168   -3.7441 H         1 STU         0.0524
     56 H21       -24.1025   14.1075   -4.1572 H         1 STU         0.0524
     57 H22       -23.6315   13.4183   -2.5667 H         1 STU         0.0524
     58 H23       -21.5500   15.2505   -7.0005 H         1 STU         0.2014
     59 H24       -20.2701   15.5381   -6.0063 H         1 STU         0.2014
     60 H25       -21.8350   17.2671   -5.8543 H         1 STU         0.0777
     61 H26       -21.6805   16.3690   -4.3064 H         1 STU         0.0777
     62 H27       -23.0773   16.0551   -5.3914 H         1 STU         0.0777
@<TRIPOS>BOND
     1    1    2 1  
     2    1    6 1  
     3    2    3 1  
     4    2   31 1  
     5    3    4 1  
     6    4    5 1  
     7    4   34 1  
     8    5    6 1  
     9    5   32 1  
    10    6    7 1  
    11    6    8 1  
    12    8    9 1  
    13    8   16 1  
    14    9   10 ar 
    15    9   14 ar 
    16   10   11 ar 
    17   10   31 1  
    18   11   12 ar 
    19   11   25 1  
    20   12   13 ar 
    21   12   23 1  
    22   13   14 ar 
    23   13   21 1  
    24   14   15 1  
    25   15   16 ar 
    26   15   20 ar 
    27   16   17 ar 
    28   17   18 ar 
    29   18   19 ar 
    30   19   20 ar 
    31   21   22 1  
    32   22   23 am 
    33   23   24 2  
    34   25   26 ar 
    35   25   30 ar 
    36   26   27 ar 
    37   26   31 1  
    38   27   28 ar 
    39   28   29 ar 
    40   29   30 ar 
    41   32   33 1  
    42   34   35 1  
    43    2   36 1  
    44    3   37 1  
    45    3   38 1  
    46    4   39 1  
    47    5   40 1  
    48    7   41 1  
    49    7   42 1  
    50    7   43 1  
    51   17   44 1  
    52   18   45 1  
    53   19   46 1  
    54   20   47 1  
    55   21   48 1  
    56   21   49 1  
    57   22   50 1  
    58   27   51 1  
    59   28   52 1  
    60   29   53 1  
    61   30   54 1  
    62   33   55 1  
    63   33   56 1  
    64   33   57 1  
    65   34   58 1  
    66   34   59 1  
    67   35   60 1  
    68   35   61 1  
    69   35   62 1  
@<TRIPOS>SUBSTRUCTURE
     1 STU         1

