### 
### Created by X-TOOL on Mon Sep 10 21:12:56 2018
### 

@<TRIPOS>MOLECULE
2oiq_ligand
   70    74     1     0     0
SMALL
GAST_HUCK


@<TRIPOS>ATOM
      1 C1        -11.1220  -38.3790    4.6200 C.ar      1 STI        -0.0301
      2 C6         -9.7790  -38.3860    5.1300 C.ar      1 STI        -0.0291
      3 C5         -9.2980  -37.3120    5.9840 C.ar      1 STI         0.0316
      4 C4        -10.2170  -36.2370    6.3060 C.ar      1 STI         0.0248
      5 N3        -11.5040  -36.2560    5.8020 N.ar      1 STI        -0.2920
      6 C2        -11.9780  -37.2840    4.9760 C.ar      1 STI         0.0142
      7 C7         -7.9150  -37.2720    6.5440 C.ar      1 STI         0.0621
      8 C12        -6.8940  -38.2340    6.2310 C.ar      1 STI        -0.0153
      9 C11        -5.6290  -38.0610    6.8560 C.ar      1 STI         0.0146
     10 N10        -5.4180  -37.0020    7.7260 N.ar      1 STI        -0.2516
     11 C9         -6.4260  -36.0960    8.0030 C.ar      1 STI         0.2094
     12 N8         -7.6360  -36.2430    7.4180 N.ar      1 STI        -0.2455
     13 N13        -6.2570  -35.0200    8.8790 N.pl3     1 STI        -0.2475
     14 C14        -5.0470  -34.7870    9.5530 C.ar      1 STI         0.0547
     15 C19        -4.7380  -35.4710   10.8230 C.ar      1 STI        -0.0359
     16 C18        -3.4860  -35.1870   11.4650 C.ar      1 STI        -0.0821
     17 C17        -2.5540  -34.2550   10.8850 C.ar      1 STI        -0.0588
     18 C16        -2.8490  -33.5860    9.6540 C.ar      1 STI         0.0494
     19 C15        -4.1170  -33.8700    8.9950 C.ar      1 STI        -0.0244
     20 N21        -1.8690  -32.6710    9.1410 N.am      1 STI        -0.2404
     21 C22        -1.9080  -31.9060    7.9800 C.2       1 STI         0.2255
     22 C23        -0.8600  -30.8410    7.8060 C.ar      1 STI         0.0485
     23 C25        -1.0090  -29.7530    6.8310 C.ar      1 STI        -0.0479
     24 C26         0.0370  -28.7610    6.6940 C.ar      1 STI        -0.0494
     25 C27         1.2290  -28.8560    7.5320 C.ar      1 STI         0.0061
     26 C28         1.3410  -29.9390    8.4860 C.ar      1 STI        -0.0494
     27 C29         0.3270  -30.9070    8.6230 C.ar      1 STI        -0.0479
     28 C46         2.3970  -27.8610    7.4480 C.3       1 STI         0.0045
     29 N48         3.7840  -28.4040    7.2950 N.4       1 STI         0.2553
     30 C53         3.8780  -29.3120    6.1010 C.3       1 STI         0.0110
     31 C52         5.3100  -29.8900    5.9360 C.3       1 STI         0.0092
     32 N51         6.3280  -28.7710    5.8300 N.4       1 STI         0.2405
     33 C54         7.7060  -29.2570    5.6640 C.3       1 STI        -0.0427
     34 C50         6.2650  -27.8480    7.0440 C.3       1 STI         0.0092
     35 C49         4.8180  -27.2860    7.1930 C.3       1 STI         0.0110
     36 O29        -2.7290  -32.0460    7.0730 O.2       1 STI        -0.3771
     37 C20        -5.6940  -36.4790   11.5050 C.3       1 STI        -0.0402
     38 H1        -11.4793  -39.1800    3.9829 H         1 STI         0.0718
     39 H2         -9.1147  -39.2036    4.8745 H         1 STI         0.0773
     40 H3         -9.8949  -35.4197    6.9411 H         1 STI         0.0864
     41 H4        -12.9958  -37.2518    4.6044 H         1 STI         0.0847
     42 H5         -7.0804  -39.0552    5.5484 H         1 STI         0.0677
     43 H6         -4.8259  -38.7599    6.6516 H         1 STI         0.0893
     44 H7         -7.0460  -34.3766    9.0354 H         1 STI         0.2158
     45 H8         -3.2390  -35.6803   12.3981 H         1 STI         0.0490
     46 H9         -1.6145  -34.0569   11.3882 H         1 STI         0.0394
     47 H10        -4.3549  -33.3724    8.0618 H         1 STI         0.0399
     48 H11        -1.0432  -32.5694    9.6957 H         1 STI         0.2227
     49 H12        -1.8994  -29.6927    6.2157 H         1 STI         0.0652
     50 H13        -0.0640  -27.9553    5.9759 H         1 STI         0.0572
     51 H14         2.2254  -30.0066    9.1092 H         1 STI         0.0572
     52 H15         0.4393  -31.7063    9.3466 H         1 STI         0.0652
     53 H16         2.3818  -27.2626    8.3709 H         1 STI         0.0991
     54 H17         2.2063  -27.2074    6.5840 H         1 STI         0.0991
     55 H18         3.9946  -28.9470    8.1177 H         1 STI         0.2053
     56 H19         3.6164  -28.7421    5.1972 H         1 STI         0.0868
     57 H20         3.1694  -30.1438    6.2279 H         1 STI         0.0868
     58 H21         5.3497  -30.5025    5.0232 H         1 STI         0.0868
     59 H22         5.5501  -30.5157    6.8082 H         1 STI         0.0868
     60 H23         6.0936  -28.2293    5.0129 H         1 STI         0.2035
     61 H24         8.3913  -28.3994    5.5938 H         1 STI         0.0778
     62 H25         7.7748  -29.8575    4.7449 H         1 STI         0.0778
     63 H26         7.9827  -29.8776    6.5291 H         1 STI         0.0778
     64 H27         6.9701  -27.0147    6.9084 H         1 STI         0.0868
     65 H28         6.5343  -28.4127    7.9487 H         1 STI         0.0868
     66 H29         4.7672  -26.6698    8.1028 H         1 STI         0.0868
     67 H30         4.5853  -26.6645    6.3157 H         1 STI         0.0868
     68 H31        -6.6040  -36.5901   10.8971 H         1 STI         0.0342
     69 H32        -5.9641  -36.1092   12.5051 H         1 STI         0.0342
     70 H33        -5.1935  -37.4542   11.5974 H         1 STI         0.0342
@<TRIPOS>BOND
     1    1    2 ar 
     2    1    6 ar 
     3    2    3 ar 
     4    3    4 ar 
     5    3    7 1  
     6    4    5 ar 
     7    5    6 ar 
     8    7    8 ar 
     9    7   12 ar 
    10    8    9 ar 
    11    9   10 ar 
    12   10   11 ar 
    13   11   12 ar 
    14   11   13 1  
    15   13   14 1  
    16   14   15 ar 
    17   14   19 ar 
    18   15   16 ar 
    19   15   37 1  
    20   16   17 ar 
    21   17   18 ar 
    22   18   19 ar 
    23   18   20 1  
    24   20   21 am 
    25   21   22 1  
    26   21   36 2  
    27   22   23 ar 
    28   22   27 ar 
    29   23   24 ar 
    30   24   25 ar 
    31   25   26 ar 
    32   25   28 1  
    33   26   27 ar 
    34   28   29 1  
    35   29   30 1  
    36   29   35 1  
    37   30   31 1  
    38   31   32 1  
    39   32   33 1  
    40   32   34 1  
    41   34   35 1  
    42    1   38 1  
    43    2   39 1  
    44    4   40 1  
    45    6   41 1  
    46    8   42 1  
    47    9   43 1  
    48   13   44 1  
    49   16   45 1  
    50   17   46 1  
    51   19   47 1  
    52   20   48 1  
    53   23   49 1  
    54   24   50 1  
    55   26   51 1  
    56   27   52 1  
    57   28   53 1  
    58   28   54 1  
    59   29   55 1  
    60   30   56 1  
    61   30   57 1  
    62   31   58 1  
    63   31   59 1  
    64   32   60 1  
    65   33   61 1  
    66   33   62 1  
    67   33   63 1  
    68   34   64 1  
    69   34   65 1  
    70   35   66 1  
    71   35   67 1  
    72   37   68 1  
    73   37   69 1  
    74   37   70 1  
@<TRIPOS>SUBSTRUCTURE
     1 STI         1

