### 
### Created by X-TOOL on Mon Sep 10 21:12:56 2018
### 

@<TRIPOS>MOLECULE
2oj9_ligand
   49    53     1     0     0
SMALL
GAST_HUCK


@<TRIPOS>ATOM
      1 C           3.1460   -4.5250   18.4410 C.2       1 BMI         0.1864
      2 O           2.7560   -5.6360   17.8830 O.2       1 BMI        -0.3926
      3 N           4.9310   -3.2670   21.6820 N.pl3     1 BMI        -0.2735
      4 N1          2.8980   -3.3310   17.9320 N.2       1 BMI        -0.2972
      5 C1          4.2240   -3.3630   20.4270 C.2       1 BMI         0.1074
      6 C2          3.9510   -2.1660   19.7420 C.2       1 BMI        -0.0109
      7 C3          3.2890   -2.2380   18.5760 C.2       1 BMI        -0.0160
      8 C4          6.1460   -2.3190   21.8520 C.3       1 BMI         0.0865
      9 C5          8.4580   -4.0300   24.2910 C.ar      1 BMI        -0.0488
     10 C6          7.5420   -3.1670   23.7480 C.ar      1 BMI        -0.0302
     11 C7          9.0360   -4.9650   23.4230 C.ar      1 BMI        -0.0410
     12 C8          7.2110   -3.2340   22.4120 C.ar      1 BMI         0.0524
     13 N2          7.7620   -4.1500   21.5760 N.ar      1 BMI        -0.2958
     14 C9          8.6570   -5.0060   22.0630 C.ar      1 BMI         0.0029
     15 C10         3.8190   -4.5490   19.7500 C.3       1 BMI         0.1893
     16 C11         5.9250  -12.1070   22.5390 C.2       1 BMI         0.0489
     17 C12         5.5650   -9.8540   21.5280 C.ar      1 BMI         0.0779
     18 C13         5.0230   -9.2590   20.4490 C.ar      1 BMI        -0.0149
     19 N3          5.9050  -11.2140   21.5020 N.pl3     1 BMI        -0.2174
     20 C14         6.3110  -11.8600   20.4050 C.2       1 BMI         0.1103
     21 N4          6.6000  -13.1510   20.6500 N.2       1 BMI        -0.3281
     22 C15         6.3520  -13.3410   21.9890 C.2       1 BMI        -0.0212
     23 C16         4.7380   -7.8890   20.5150 C.ar      1 BMI         0.0696
     24 N5          4.6790   -5.9430   21.4200 N.2       1 BMI        -0.3169
     25 C17         4.1620   -5.8220   20.3210 C.2       1 BMI         0.1618
     26 N6          4.2050   -6.9530   19.6740 N.pl3     1 BMI        -0.2464
     27 C18         5.0030   -7.2570   21.5870 C.ar      1 BMI         0.0213
     28 C19         5.5310   -7.8880   22.6180 C.ar      1 BMI        -0.0487
     29 C20         5.7990   -9.1700   22.6200 C.ar      1 BMI        -0.0403
     30 C21         5.7950   -7.0590   23.8340 C.3       1 BMI        -0.0356
     31 H1          4.6221   -3.8397   22.4804 H         1 BMI         0.2024
     32 H2          4.2680   -1.2058   20.1464 H         1 BMI         0.0324
     33 H3          3.0441   -1.2881   18.1031 H         1 BMI         0.0991
     34 H4          5.9165   -1.5030   22.5530 H         1 BMI         0.0739
     35 H5          6.4562   -1.8956   20.8853 H         1 BMI         0.0739
     36 H6          8.7223   -3.9908   25.3415 H         1 BMI         0.0719
     37 H7          7.0713   -2.4213   24.3784 H         1 BMI         0.0652
     38 H8          9.7782   -5.6609   23.7970 H         1 BMI         0.0652
     39 H9          9.1015   -5.7453   21.4066 H         1 BMI         0.0803
     40 H10         2.8500   -4.5376   20.2705 H         1 BMI         0.1094
     41 H11         5.6650  -11.9090   23.5778 H         1 BMI         0.0869
     42 H12         4.8120   -9.8267   19.5500 H         1 BMI         0.0439
     43 H13         6.3980  -11.3945   19.4243 H         1 BMI         0.1228
     44 H14         6.4643  -14.2778   22.5327 H         1 BMI         0.0451
     45 H15         3.8938   -7.1121   18.7051 H         1 BMI         0.2313
     46 H16         6.2039   -9.6522   23.5024 H         1 BMI         0.0429
     47 H17         5.5066   -6.0160   23.6364 H         1 BMI         0.0382
     48 H18         6.8658   -7.1026   24.0821 H         1 BMI         0.0382
     49 H19         5.2069   -7.4484   24.6781 H         1 BMI         0.0382
@<TRIPOS>BOND
     1    1    2 2  
     2    1    4 1  
     3   15    1 1  
     4    5    3 1  
     5    3    8 1  
     6    4    7 2  
     7    5    6 2  
     8   15    5 1  
     9    6    7 1  
    10    8   12 1  
    11   10    9 ar 
    12    9   11 ar 
    13   12   10 ar 
    14   14   11 ar 
    15   12   13 ar 
    16   13   14 ar 
    17   25   15 1  
    18   19   16 1  
    19   16   22 2  
    20   18   17 ar 
    21   17   19 1  
    22   17   29 ar 
    23   23   18 ar 
    24   19   20 1  
    25   20   21 2  
    26   21   22 1  
    27   23   26 1  
    28   27   23 ar 
    29   24   25 2  
    30   24   27 1  
    31   25   26 1  
    32   27   28 ar 
    33   28   29 ar 
    34   28   30 1  
    35    3   31 1  
    36    6   32 1  
    37    7   33 1  
    38    8   34 1  
    39    8   35 1  
    40    9   36 1  
    41   10   37 1  
    42   11   38 1  
    43   14   39 1  
    44   15   40 1  
    45   16   41 1  
    46   18   42 1  
    47   20   43 1  
    48   22   44 1  
    49   26   45 1  
    50   29   46 1  
    51   30   47 1  
    52   30   48 1  
    53   30   49 1  
@<TRIPOS>SUBSTRUCTURE
     1 BMI         1

