### 
### Created by X-TOOL on Mon Sep 10 21:12:56 2018
### 

@<TRIPOS>MOLECULE
2ojf_ligand
   50    54     1     0     0
SMALL
GAST_HUCK


@<TRIPOS>ATOM
      1 C4         13.3740   13.0890    1.3650 C.ar      1 4PY        -0.0747
      2 C5         15.5740   10.1310    1.2720 C.2       1 4PY         0.0166
      3 C6         14.3980   10.7900    3.5360 C.3       1 4PY         0.0094
      4 C8         14.5050   12.5900   -1.1970 C.ar      1 4PY        -0.0443
      5 C10        13.4150    9.5980    3.8410 C.3       1 4PY         0.0083
      6 C15        10.8350    9.9870    1.1300 C.ar      1 4PY         0.1208
      7 C17        10.9420   10.1600   -0.2710 C.ar      1 4PY         0.0408
      8 C20         6.9620   10.0700    1.4110 C.ar      1 4PY         0.0581
      9 C21         8.5940   10.2670   -0.5150 C.ar      1 4PY         0.0105
     10 C22         6.6430   10.1660    2.7970 C.ar      1 4PY        -0.0104
     11 C24         5.3090   10.1230    3.2080 C.ar      1 4PY         0.0536
     12 C26         4.2500    9.9800    2.2190 C.ar      1 4PY         0.0150
     13 C1         14.2380   11.9930    1.1710 C.ar      1 4PY        -0.0214
     14 C2         14.7290   10.9640    2.0510 C.2       1 4PY        -0.0409
     15 C3         14.8100   11.7400   -0.1280 C.ar      1 4PY         0.0603
     16 N7         15.6170   10.5960   -0.0110 N.pl3     1 4PY        -0.2891
     17 C9         13.0650   13.9550    0.2750 C.ar      1 4PY        -0.0792
     18 C11        13.6330   13.7020   -1.0080 C.ar      1 4PY        -0.0768
     19 C12        11.9520    9.6930    3.3180 C.3       1 4PY         0.1157
     20 N13        14.0050    8.3540    3.3330 N.4       1 4PY         0.2236
     21 O14        12.0090    9.8580    1.8940 O.3       1 4PY        -0.3044
     22 C16         9.5220    9.9560    1.6960 C.ar      1 4PY        -0.0034
     23 C18         8.3660   10.0990    0.8690 C.ar      1 4PY         0.0179
     24 N19         9.8470   10.2970   -1.0690 N.ar      1 4PY        -0.3045
     25 N23         5.8920    9.9360    0.5030 N.ar      1 4PY        -0.2898
     26 C25         4.5810    9.8910    0.8800 C.ar      1 4PY         0.0143
     27 C27         4.6750   10.1940    4.5240 C.2       1 4PY         0.1175
     28 N28         3.1040    9.9740    2.9800 N.2       1 4PY        -0.3268
     29 N29         3.3670   10.0980    4.2980 N.pl3     1 4PY        -0.2425
     30 H1         12.9442   13.2739    2.3428 H         1 4PY         0.0540
     31 H2         16.1062    9.2555    1.6410 H         1 4PY         0.0795
     32 H3         15.3370   10.6112    4.0804 H         1 4PY         0.0405
     33 H4         13.9357   11.7202    3.8980 H         1 4PY         0.0405
     34 H5         14.9342   12.4019   -2.1745 H         1 4PY         0.0541
     35 H6         13.3486    9.5262    4.9366 H         1 4PY         0.0892
     36 H7         11.9270   10.1842   -0.7230 H         1 4PY         0.0759
     37 H8          7.7372   10.3774   -1.1698 H         1 4PY         0.0752
     38 H9          7.4342   10.2722    3.5304 H         1 4PY         0.0734
     39 H10        16.1592   10.1721   -0.7773 H         1 4PY         0.2216
     40 H11        12.4024   14.8004    0.4210 H         1 4PY         0.0510
     41 H12        13.4015   14.3560   -1.8409 H         1 4PY         0.0530
     42 H13        11.4457   10.5558    3.7753 H         1 4PY         0.0675
     43 H14        11.4043    8.7721    3.5670 H         1 4PY         0.0675
     44 H15        14.9546    8.2739    3.6615 H         1 4PY         0.1999
     45 H16        13.9980    8.3659    2.3251 H         1 4PY         0.1999
     46 H17        13.4677    7.5678    3.6635 H         1 4PY         0.1999
     47 H18         9.4026    9.8224    2.7651 H         1 4PY         0.0676
     48 H19         3.8029    9.7859    0.1326 H         1 4PY         0.0829
     49 H20         5.1700   10.3027    5.4879 H         1 4PY         0.1389
     50 H21         2.6474   10.1160    5.0347 H         1 4PY         0.2937
@<TRIPOS>BOND
     1   13    1 ar 
     2    1   17 ar 
     3   14    2 2  
     4    2   16 1  
     5    5    3 1  
     6    3   14 1  
     7   15    4 ar 
     8    4   18 ar 
     9   19    5 1  
    10    5   20 1  
    11    6    7 ar 
    12   21    6 1  
    13    6   22 ar 
    14    7   24 ar 
    15    8   10 ar 
    16   23    8 1  
    17    8   25 ar 
    18    9   23 ar 
    19   24    9 ar 
    20   10   11 ar 
    21   11   12 ar 
    22   11   27 2  
    23   12   26 ar 
    24   12   28 2  
    25   14   13 1  
    26   13   15 ar 
    27   15   16 1  
    28   17   18 ar 
    29   19   21 1  
    30   22   23 ar 
    31   25   26 ar 
    32   27   29 1  
    33   28   29 1  
    34    1   30 1  
    35    2   31 1  
    36    3   32 1  
    37    3   33 1  
    38    4   34 1  
    39    5   35 1  
    40    7   36 1  
    41    9   37 1  
    42   10   38 1  
    43   16   39 1  
    44   17   40 1  
    45   18   41 1  
    46   19   42 1  
    47   19   43 1  
    48   20   44 1  
    49   20   45 1  
    50   20   46 1  
    51   22   47 1  
    52   26   48 1  
    53   27   49 1  
    54   29   50 1  
@<TRIPOS>SUBSTRUCTURE
     1 4PY         1

