### 
### Created by X-TOOL on Mon Sep 10 21:12:56 2018
### 

@<TRIPOS>MOLECULE
2ojg_ligand
   37    39     1     0     0
SMALL
GAST_HUCK


@<TRIPOS>ATOM
      1 C1         -9.1600   13.4150   41.2390 C.3       1 19A         0.0213
      2 N2        -10.6260   13.2630   41.1770 N.am      1 19A        -0.2794
      3 C3        -11.4360   14.2250   41.9340 C.3       1 19A         0.0213
      4 C4        -11.1760   12.2240   40.4120 C.2       1 19A         0.2200
      5 O5        -10.4080   11.4850   39.8100 O.2       1 19A        -0.3909
      6 C6        -12.6640   11.9330   40.2690 C.2       1 19A         0.1286
      7 C7        -13.7000   12.3210   41.0960 C.2       1 19A        -0.0455
      8 C8        -14.9110   11.8230   40.5940 C.2       1 19A         0.0096
      9 C9        -14.5920   11.1230   39.4520 C.2       1 19A         0.0430
     10 N10       -13.2440   11.1880   39.2590 N.pl3     1 19A        -0.2717
     11 C12       -16.2930   12.0050   41.1940 C.2       1 19A         0.0827
     12 N13       -17.2510   11.0900   41.1270 N.pl3     1 19A        -0.2185
     13 N14       -18.3840   11.5640   41.7800 N.2       1 19A        -0.2233
     14 C16       -18.1310   12.7850   42.2610 C.2       1 19A         0.0010
     15 C17       -16.8370   13.1240   41.9330 C.2       1 19A        -0.0003
     16 C18       -16.1830   14.4280   42.3110 C.ar      1 19A        -0.0390
     17 C19       -15.4870   15.2460   41.3680 C.ar      1 19A        -0.0642
     18 C20       -14.8960   16.4610   41.7790 C.ar      1 19A        -0.0684
     19 C21       -15.0050   16.8690   43.1270 C.ar      1 19A        -0.0681
     20 C22       -15.6960   16.0630   44.0740 C.ar      1 19A        -0.0684
     21 C23       -16.2800   14.8590   43.6720 C.ar      1 19A        -0.0642
     22 H1         -8.9071   14.2736   41.8784 H         1 19A         0.0485
     23 H2         -8.7656   13.5835   40.2261 H         1 19A         0.0485
     24 H3         -8.7140   12.5013   41.6588 H         1 19A         0.0485
     25 H4        -12.5027   13.9936   41.7975 H         1 19A         0.0485
     26 H5        -11.2321   15.2427   41.5699 H         1 19A         0.0485
     27 H6        -11.1803   14.1595   43.0019 H         1 19A         0.0485
     28 H7        -13.5929   12.9210   41.9985 H         1 19A         0.0396
     29 H8        -15.3002   10.6029   38.8086 H         1 19A         0.0968
     30 H9        -12.7348   10.7486   38.4789 H         1 19A         0.2391
     31 H10       -17.1689   10.1733   40.6645 H         1 19A         0.2529
     32 H11       -18.8300   13.4069   42.8182 H         1 19A         0.0666
     33 H12       -15.4125   14.9325   40.3330 H         1 19A         0.0562
     34 H13       -14.3620   17.0768   41.0644 H         1 19A         0.0600
     35 H14       -14.5581   17.8048   43.4427 H         1 19A         0.0564
     36 H15       -15.7694   16.3828   45.1071 H         1 19A         0.0600
     37 H16       -16.8091   14.2484   44.3947 H         1 19A         0.0562
@<TRIPOS>BOND
     1    1    2 1  
     2    2    3 1  
     3    2    4 am 
     4    4    5 2  
     5    4    6 1  
     6    6    7 2  
     7    6   10 1  
     8    7    8 1  
     9    8    9 2  
    10    8   11 1  
    11    9   10 1  
    12   11   12 1  
    13   11   15 2  
    14   12   13 1  
    15   13   14 2  
    16   14   15 1  
    17   15   16 1  
    18   16   17 ar 
    19   16   21 ar 
    20   17   18 ar 
    21   18   19 ar 
    22   19   20 ar 
    23   20   21 ar 
    24    1   22 1  
    25    1   23 1  
    26    1   24 1  
    27    3   25 1  
    28    3   26 1  
    29    3   27 1  
    30    7   28 1  
    31    9   29 1  
    32   10   30 1  
    33   12   31 1  
    34   14   32 1  
    35   17   33 1  
    36   18   34 1  
    37   19   35 1  
    38   20   36 1  
    39   21   37 1  
@<TRIPOS>SUBSTRUCTURE
     1 19A         1

