### 
### Created by X-TOOL on Mon Sep 10 21:12:56 2018
### 

@<TRIPOS>MOLECULE
2oji_ligand
   44    47     1     0     0
SMALL
GAST_HUCK


@<TRIPOS>ATOM
      1 C2        -15.0190   16.5280   41.7210 C.ar      1 33A         0.0350
      2 C3        -15.1330   16.9420   43.0660 C.ar      1 33A        -0.0532
      3 C4        -15.8810   16.1680   43.9790 C.ar      1 33A        -0.0668
      4 C5        -16.5060   14.9910   43.5450 C.ar      1 33A        -0.0627
      5 C6        -16.3990   14.5670   42.1920 C.ar      1 33A        -0.0355
      6 C7        -15.6460   15.3510   41.2780 C.ar      1 33A        -0.0489
      7 C8        -17.1040   13.3000   41.7970 C.2       1 33A         0.0034
      8 CL1       -14.0950   17.4800   40.6190 Cl        1 33A        -0.0722
      9 C9        -18.3780   13.0100   42.1990 C.2       1 33A         0.0597
     10 N10       -18.7230   11.8160   41.7000 N.pl3     1 33A        -0.2218
     11 N12       -17.6560   11.3130   40.9530 N.2       1 33A        -0.2230
     12 C13       -16.6530   12.1800   40.9800 C.2       1 33A         0.0266
     13 C14       -15.3240   11.9530   40.2680 C.2       1 33A        -0.0201
     14 C15       -15.1460   11.2170   39.1160 C.2       1 33A         0.0350
     15 N16       -13.8340   11.2270   38.7860 N.pl3     1 33A        -0.2752
     16 C18       -13.1400   11.9770   39.7230 C.2       1 33A         0.1263
     17 C19       -14.0460   12.4250   40.6380 C.2       1 33A        -0.0511
     18 C20       -11.6870   12.2440   39.7410 C.2       1 33A         0.2190
     19 O21       -10.9670   11.6280   38.9740 O.2       1 33A        -0.3914
     20 N22       -11.1610   13.1890   40.6010 N.am      1 33A        -0.2758
     21 C23        -9.7020   13.5030   40.6460 C.3       1 33A         0.0635
     22 C24        -9.3670   14.6840   39.7390 C.ar      1 33A        -0.0211
     23 C25        -8.0520   14.8510   39.2360 C.ar      1 33A        -0.0584
     24 C26        -7.7490   15.9470   38.3900 C.ar      1 33A        -0.0685
     25 C27        -8.7530   16.8810   38.0400 C.ar      1 33A        -0.0687
     26 C28       -10.0600   16.7300   38.5320 C.ar      1 33A        -0.0685
     27 C29       -10.3690   15.6310   39.3840 C.ar      1 33A        -0.0584
     28 H1        -14.6469   17.8527   43.3969 H         1 33A         0.0578
     29 H2        -15.9718   16.4828   45.0123 H         1 33A         0.0603
     30 H3        -17.0776   14.3970   44.2489 H         1 33A         0.0572
     31 H4        -15.5553   15.0427   40.2427 H         1 33A         0.0577
     32 H5        -19.0075   13.6442   42.8214 H         1 33A         0.1038
     33 H6        -19.6279   11.3455   41.8438 H         1 33A         0.2579
     34 H7        -15.9340   10.7096   38.5614 H         1 33A         0.0924
     35 H8        -13.4182   10.7541   37.9709 H         1 33A         0.2375
     36 H9        -13.8219   13.0422   41.5068 H         1 33A         0.0386
     37 H10       -11.7793   13.6799   41.2148 H         1 33A         0.1864
     38 H11        -9.1342   12.6217   40.3130 H         1 33A         0.0682
     39 H12        -9.4196   13.7521   41.6795 H         1 33A         0.0682
     40 H13        -7.2774   14.1396   39.4988 H         1 33A         0.0557
     41 H14        -6.7419   16.0706   38.0086 H         1 33A         0.0599
     42 H15        -8.5128   17.7150   37.3906 H         1 33A         0.0559
     43 H16       -10.8291   17.4457   38.2649 H         1 33A         0.0599
     44 H17       -11.3769   15.5146   39.7658 H         1 33A         0.0557
@<TRIPOS>BOND
     1    1    2 ar 
     2    1    6 ar 
     3    1    8 1  
     4    2    3 ar 
     5    3    4 ar 
     6    4    5 ar 
     7    5    6 ar 
     8    5    7 1  
     9    7    9 2  
    10    7   12 1  
    11    9   10 1  
    12   10   11 1  
    13   11   12 2  
    14   12   13 1  
    15   13   14 2  
    16   13   17 1  
    17   14   15 1  
    18   15   16 1  
    19   16   17 2  
    20   16   18 1  
    21   18   19 2  
    22   18   20 am 
    23   20   21 1  
    24   21   22 1  
    25   22   23 ar 
    26   22   27 ar 
    27   23   24 ar 
    28   24   25 ar 
    29   25   26 ar 
    30   26   27 ar 
    31    2   28 1  
    32    3   29 1  
    33    4   30 1  
    34    6   31 1  
    35    9   32 1  
    36   10   33 1  
    37   14   34 1  
    38   15   35 1  
    39   17   36 1  
    40   20   37 1  
    41   21   38 1  
    42   21   39 1  
    43   23   40 1  
    44   24   41 1  
    45   25   42 1  
    46   26   43 1  
    47   27   44 1  
@<TRIPOS>SUBSTRUCTURE
     1 33A         1

