### 
### Created by X-TOOL on Mon Sep 10 21:12:56 2018
### 

@<TRIPOS>MOLECULE
2ojj_ligand
   48    51     1     0     0
SMALL
GAST_HUCK


@<TRIPOS>ATOM
      1 C11       -15.3650   10.7910   38.9080 C.2       1 82A         0.0430
      2 C14       -17.0040   11.9200   40.5070 C.2       1 82A         0.0827
      3 N16       -19.1210   11.5370   41.0460 N.2       1 82A        -0.2233
      4 C18       -18.8210   12.7250   41.5930 C.2       1 82A         0.0010
      5 C19       -17.5190   13.0330   41.3010 C.2       1 82A        -0.0002
      6 C20       -16.8320   14.3010   41.7590 C.ar      1 82A        -0.0385
      7 C21       -16.8760   14.6680   43.1410 C.ar      1 82A        -0.0641
      8 C22       -16.2430   15.8460   43.5840 C.ar      1 82A        -0.0679
      9 C23       -15.5620   16.6710   42.6650 C.ar      1 82A        -0.0542
     10 C24       -15.5100   16.3220   41.2980 C.ar      1 82A         0.0339
     11 C26       -16.1420   15.1490   40.8420 C.ar      1 82A        -0.0503
     12 C27       -10.1420   14.9500   39.0730 C.ar      1 82A        -0.0193
     13 C29       -11.0190   17.1410   38.3980 C.ar      1 82A        -0.0342
     14 C30       -10.0620   17.2120   37.3650 C.ar      1 82A         0.1390
     15 O1        -10.7570   14.0480   42.3490 O.3       1 82A        -0.3907
     16 C2         -9.6880   14.0930   41.3990 C.3       1 82A         0.0762
     17 C3        -10.2010   13.7330   39.9910 C.3       1 82A         0.0959
     18 N5        -11.6050   13.2710   40.0360 N.am      1 82A        -0.2711
     19 C6        -12.0370   12.1940   39.3230 C.2       1 82A         0.2201
     20 O7        -11.2670   11.5630   38.6150 O.2       1 82A        -0.3910
     21 C8        -13.4560   11.8120   39.3730 C.2       1 82A         0.1286
     22 C9        -14.4120   12.3460   40.1910 C.2       1 82A        -0.0455
     23 C10       -15.6370   11.6980   39.8960 C.2       1 82A         0.0096
     24 N12       -14.0580   10.8570   38.5930 N.pl3     1 82A        -0.2717
     25 N15       -17.9950   11.0550   40.3820 N.pl3     1 82A        -0.2185
     26 CL25      -14.6630   17.3360   40.1770 Cl        1 82A        -0.0725
     27 C28       -11.0620   16.0180   39.2470 C.ar      1 82A        -0.0596
     28 F31       -10.0380   18.2980   36.5590 F         1 82A        -0.1884
     29 C32        -9.1350   16.1460   37.1820 C.ar      1 82A         0.0669
     30 CL33       -7.9440   16.2140   35.9090 Cl        1 82A        -0.0739
     31 C34        -9.1810   15.0170   38.0390 C.ar      1 82A        -0.0458
     32 H1        -16.0912   10.1216   38.4492 H         1 82A         0.0968
     33 H2        -19.5025   13.3439   42.1748 H         1 82A         0.0666
     34 H3        -17.3988   14.0368   43.8505 H         1 82A         0.0564
     35 H4        -16.2794   16.1186   44.6325 H         1 82A         0.0600
     36 H5        -15.0765   17.5768   43.0097 H         1 82A         0.0570
     37 H6        -16.1041   14.8893   39.7902 H         1 82A         0.0568
     38 H7        -11.7234   17.9527   38.5391 H         1 82A         0.0587
     39 H8        -10.4237   14.2721   43.2099 H         1 82A         0.2097
     40 H9         -8.9099   13.3742   41.6954 H         1 82A         0.0602
     41 H10        -9.2625   15.1072   41.3807 H         1 82A         0.0602
     42 H11        -9.5686   12.9330   39.5786 H         1 82A         0.0733
     43 H12       -12.2587   13.7656   40.6087 H         1 82A         0.1867
     44 H13       -14.2598   13.1273   40.9342 H         1 82A         0.0396
     45 H14       -13.5854   10.2826   37.8805 H         1 82A         0.2391
     46 H15       -17.9430   10.1616   39.8720 H         1 82A         0.2529
     47 H16       -11.8016   15.9685   40.0379 H         1 82A         0.0550
     48 H17        -8.4777   14.2038   37.9007 H         1 82A         0.0553
@<TRIPOS>BOND
     1    1   23 2  
     2   24    1 1  
     3    2    5 2  
     4   23    2 1  
     5    2   25 1  
     6    3    4 2  
     7   25    3 1  
     8    5    4 1  
     9    5    6 1  
    10    6    7 ar 
    11    6   11 ar 
    12    7    8 ar 
    13    8    9 ar 
    14   10    9 ar 
    15   11   10 ar 
    16   10   26 1  
    17   17   12 1  
    18   12   27 ar 
    19   12   31 ar 
    20   13   14 ar 
    21   27   13 ar 
    22   14   28 1  
    23   14   29 ar 
    24   16   15 1  
    25   17   16 1  
    26   18   17 1  
    27   19   18 am 
    28   19   20 2  
    29   21   19 1  
    30   21   22 2  
    31   21   24 1  
    32   22   23 1  
    33   29   30 1  
    34   29   31 ar 
    35    1   32 1  
    36    4   33 1  
    37    7   34 1  
    38    8   35 1  
    39    9   36 1  
    40   11   37 1  
    41   13   38 1  
    42   15   39 1  
    43   16   40 1  
    44   16   41 1  
    45   17   42 1  
    46   18   43 1  
    47   22   44 1  
    48   24   45 1  
    49   25   46 1  
    50   27   47 1  
    51   31   48 1  
@<TRIPOS>SUBSTRUCTURE
     1 82A         1

