### 
### Created by X-TOOL on Mon Sep 10 21:12:56 2018
### 

@<TRIPOS>MOLECULE
2ok1_ligand
   44    47     1     0     0
SMALL
GAST_HUCK


@<TRIPOS>ATOM
      1 C2         -3.4060   10.2520   21.9310 C.ar      1 33A         0.0350
      2 C3         -3.6070   11.6320   22.1580 C.ar      1 33A        -0.0532
      3 C4         -4.9090   12.1740   22.1280 C.ar      1 33A        -0.0668
      4 C5         -6.0190   11.3500   21.8610 C.ar      1 33A        -0.0627
      5 C6         -5.8430    9.9530   21.6340 C.ar      1 33A        -0.0355
      6 C7         -4.5110    9.4160   21.6670 C.ar      1 33A        -0.0489
      7 C8         -7.0010    9.0210   21.3370 C.2       1 33A         0.0034
      8 CL1        -1.7920    9.5870   21.9640 Cl        1 33A        -0.0722
      9 C9         -6.8530    7.8560   20.6300 C.2       1 33A         0.0597
     10 N10        -8.0420    7.2500   20.5290 N.2       1 33A        -0.2218
     11 N12        -8.9940    8.0230   21.1790 N.pl3     1 33A        -0.2230
     12 C13        -8.4240    9.0970   21.6820 C.2       1 33A         0.0266
     13 C14        -9.2210   10.1220   22.4430 C.2       1 33A        -0.0201
     14 C15        -8.8550   10.8910   23.5220 C.2       1 33A         0.0350
     15 N16        -9.9060   11.6660   23.8790 N.pl3     1 33A        -0.2752
     16 C18       -10.9640   11.4000   23.0350 C.2       1 33A         0.1263
     17 C19       -10.5550   10.4520   22.1450 C.2       1 33A        -0.0511
     18 C20       -12.3010   12.0180   23.0730 C.2       1 33A         0.2190
     19 O21       -12.5460   12.8870   23.8990 O.2       1 33A        -0.3914
     20 N22       -13.2480   11.6100   22.1770 N.am      1 33A        -0.2758
     21 C23       -14.6020   12.1830   22.1460 C.3       1 33A         0.0635
     22 C24       -14.7690   12.9390   20.8550 C.ar      1 33A        -0.0211
     23 C25       -14.5430   14.3340   20.8220 C.ar      1 33A        -0.0584
     24 C26       -14.6960   15.0440   19.6100 C.ar      1 33A        -0.0685
     25 C27       -15.0660   14.3630   18.4320 C.ar      1 33A        -0.0687
     26 C28       -15.2920   12.9700   18.4660 C.ar      1 33A        -0.0685
     27 C29       -15.1390   12.2560   19.6770 C.ar      1 33A        -0.0584
     28 H1         -2.7580   12.2763   22.3558 H         1 33A         0.0578
     29 H2         -5.0559   13.2322   22.3118 H         1 33A         0.0603
     30 H3         -7.0135   11.7800   21.8278 H         1 33A         0.0572
     31 H4         -4.3536    8.3586   21.4874 H         1 33A         0.0577
     32 H5         -5.9172    7.4830   20.2164 H         1 33A         0.1038
     33 H6         -9.9946    7.7912   21.2559 H         1 33A         0.0000
     34 H7         -7.8810   10.8788   24.0089 H         1 33A         0.0924
     35 H8         -9.9142   12.3438   24.6545 H         1 33A         0.2375
     36 H9        -11.1561   10.0250   21.3436 H         1 33A         0.0386
     37 H10       -13.0119   10.8957   21.5182 H         1 33A         0.1864
     38 H11       -14.7354   12.8672   22.9969 H         1 33A         0.0682
     39 H12       -15.3480   11.3767   22.2034 H         1 33A         0.0682
     40 H13       -14.2527   14.8583   21.7253 H         1 33A         0.0557
     41 H14       -14.5286   16.1147   19.5857 H         1 33A         0.0599
     42 H15       -15.1767   14.9083   17.5017 H         1 33A         0.0559
     43 H16       -15.5833   12.4468   17.5624 H         1 33A         0.0599
     44 H17       -15.3058   11.1852   19.7003 H         1 33A         0.0557
@<TRIPOS>BOND
     1    1    2 ar 
     2    1    6 ar 
     3    1    8 1  
     4    2    3 ar 
     5    3    4 ar 
     6    4    5 ar 
     7    5    6 ar 
     8    5    7 1  
     9    7    9 1  
    10    7   12 2  
    11    9   10 2  
    12   10   11 1  
    13   11   12 1  
    14   12   13 1  
    15   13   14 2  
    16   13   17 1  
    17   14   15 1  
    18   15   16 1  
    19   16   17 2  
    20   16   18 1  
    21   18   19 2  
    22   18   20 am 
    23   20   21 1  
    24   21   22 1  
    25   22   23 ar 
    26   22   27 ar 
    27   23   24 ar 
    28   24   25 ar 
    29   25   26 ar 
    30   26   27 ar 
    31    2   28 1  
    32    3   29 1  
    33    4   30 1  
    34    6   31 1  
    35    9   32 1  
    36   11   33 1  
    37   14   34 1  
    38   15   35 1  
    39   17   36 1  
    40   20   37 1  
    41   21   38 1  
    42   21   39 1  
    43   23   40 1  
    44   24   41 1  
    45   25   42 1  
    46   26   43 1  
    47   27   44 1  
@<TRIPOS>SUBSTRUCTURE
     1 33A         1

