### 
### Created by X-TOOL on Mon Sep 10 21:12:45 2018
### 

@<TRIPOS>MOLECULE
2olb_ligand
   69    68     1     0     0
SMALL
GAST_HUCK


@<TRIPOS>ATOM
      1 N           6.9400   16.7800   15.2420 N.4       1 LYS         0.2379
      2 CA          6.5110   18.1000   14.6390 C.3       1 LYS         0.0650
      3 C           5.3150   18.6000   15.4640 C.2       1 LYS         0.2267
      4 O           4.5190   17.8340   16.0260 O.2       1 LYS        -0.3907
      5 CB          6.1690   18.0650   13.1680 C.3       1 LYS         0.0080
      6 CG          5.2840   16.9110   12.7450 C.3       1 LYS        -0.0410
      7 CD          5.2350   16.7790   11.2090 C.3       1 LYS        -0.0123
      8 CE          6.4850   16.0800   10.6940 C.3       1 LYS        -0.0354
      9 NZ          6.4490   14.6190   11.0410 N.4       1 LYS         0.2185
     10 N           5.2380   19.9040   15.5650 N.am      1 LYS        -0.2610
     11 CA          4.1810   20.5480   16.3260 C.3       1 LYS         0.1311
     12 C           2.8690   20.5120   15.5430 C.2       1 LYS         0.2033
     13 O           2.8130   20.7590   14.3570 O.2       1 LYS        -0.3944
     14 CB          4.5720   22.0490   16.5940 C.3       1 LYS        -0.0122
     15 CG          5.5030   22.0830   17.8720 C.3       1 LYS        -0.0440
     16 CD          5.7550   23.4500   18.3690 C.3       1 LYS        -0.0124
     17 CE          6.4210   23.5250   19.7390 C.3       1 LYS        -0.0354
     18 NZ          7.2180   22.3310   20.1020 N.4       1 LYS         0.2185
     19 N           1.8010   20.2070   16.3100 N.am      1 LYS        -0.2695
     20 CA          0.4570   20.1860   15.7510 C.3       1 LYS         0.0944
     21 C          -0.5260   20.7670   16.8180 C.2       1 LYS         0.0601
     22 O          -1.7000   20.3460   16.8040 O.co2     1 LYS        -0.5666
     23 CB          0.0050   18.8020   15.3110 C.3       1 LYS        -0.0177
     24 CG         -1.0890   18.9880   14.2210 C.3       1 LYS        -0.0446
     25 CD         -1.6830   17.6400   13.8820 C.3       1 LYS        -0.0125
     26 CE         -2.6230   17.6560   12.6830 C.3       1 LYS        -0.0354
     27 NZ         -3.7330   18.6580   12.8350 N.4       1 LYS         0.2185
     28 OXT        -0.1580   21.6290   17.6390 O.co2     1 LYS        -0.5666
     29 H1          7.7265   16.4155   14.7276 H         1 LYS         0.2015
     30 H2          6.1753   16.1249   15.1954 H         1 LYS         0.2015
     31 H3          7.2040   16.9203   16.2046 H         1 LYS         0.2015
     32 H4          7.3433   18.8091   14.7587 H         1 LYS         0.1098
     33 H5          7.1090   18.0003   12.6003 H         1 LYS         0.0346
     34 H6          5.6518   19.0023   12.9153 H         1 LYS         0.0346
     35 H7          4.2654   17.0828   13.1229 H         1 LYS         0.0270
     36 H8          5.6814   15.9787   13.1726 H         1 LYS         0.0270
     37 H9          5.1706   17.7817   10.7613 H         1 LYS         0.0317
     38 H10         4.3490   16.1926   10.9241 H         1 LYS         0.0317
     39 H11         7.3725   16.5397   11.1533 H         1 LYS         0.0813
     40 H12         6.5383   16.1916    9.6010 H         1 LYS         0.0813
     41 H13         7.2823   14.1706   10.6937 H         1 LYS         0.1994
     42 H14         5.6381   14.1935   10.6198 H         1 LYS         0.1994
     43 H15         6.4025   14.5125   12.0423 H         1 LYS         0.1994
     44 H16         5.9236   20.4700   15.1071 H         1 LYS         0.1884
     45 H17         4.0502   20.0235   17.2840 H         1 LYS         0.0800
     46 H18         3.6657   22.6456   16.7749 H         1 LYS         0.0312
     47 H19         5.1119   22.4561   15.7264 H         1 LYS         0.0312
     48 H20         6.4675   21.6207   17.6149 H         1 LYS         0.0269
     49 H21         5.0202   21.5031   18.6723 H         1 LYS         0.0269
     50 H22         4.7900   23.9744   18.4296 H         1 LYS         0.0317
     51 H23         6.4057   23.9619   17.6448 H         1 LYS         0.0317
     52 H24         5.6342   23.6558   20.4965 H         1 LYS         0.0813
     53 H25         7.0885   24.3992   19.7488 H         1 LYS         0.0813
     54 H26         7.6214   22.4616   21.0165 H         1 LYS         0.1994
     55 H27         7.9539   22.1999   19.4258 H         1 LYS         0.1994
     56 H28         6.6213   21.5187   20.1109 H         1 LYS         0.1994
     57 H29         1.9351   19.9921   17.2774 H         1 LYS         0.1875
     58 H30         0.4442   20.8391   14.8660 H         1 LYS         0.0726
     59 H31        -0.4101   18.2528   16.1689 H         1 LYS         0.0305
     60 H32         0.8569   18.2437   14.8956 H         1 LYS         0.0305
     61 H33        -0.6395   19.4297   13.3194 H         1 LYS         0.0269
     62 H34        -1.8783   19.6533   14.6009 H         1 LYS         0.0269
     63 H35        -2.2454   17.2809   14.7565 H         1 LYS         0.0317
     64 H36        -0.8589   16.9444   13.6651 H         1 LYS         0.0317
     65 H37        -3.0647   16.6552   12.5676 H         1 LYS         0.0813
     66 H38        -2.0424   17.9066   11.7829 H         1 LYS         0.0813
     67 H39        -4.3248   18.6301   12.0195 H         1 LYS         0.1994
     68 H40        -3.3410   19.5813   12.9341 H         1 LYS         0.1994
     69 H41        -4.2777   18.4346   13.6532 H         1 LYS         0.1994
@<TRIPOS>BOND
     1    2    1 1  
     2    2    5 1  
     3    3    2 1  
     4    3    4 2  
     5    5    6 1  
     6    6    7 1  
     7    7    8 1  
     8    8    9 1  
     9   11   10 1  
    10   11   14 1  
    11   12   11 1  
    12   12   13 2  
    13   14   15 1  
    14   15   16 1  
    15   16   17 1  
    16   17   18 1  
    17   10    3 am 
    18   19   20 1  
    19   20   23 1  
    20   20   21 1  
    21   21   22 ar 
    22   21   28 ar 
    23   23   24 1  
    24   24   25 1  
    25   25   26 1  
    26   26   27 1  
    27   12   19 am 
    28    1   29 1  
    29    1   30 1  
    30    1   31 1  
    31    2   32 1  
    32    5   33 1  
    33    5   34 1  
    34    6   35 1  
    35    6   36 1  
    36    7   37 1  
    37    7   38 1  
    38    8   39 1  
    39    8   40 1  
    40    9   41 1  
    41    9   42 1  
    42    9   43 1  
    43   10   44 1  
    44   11   45 1  
    45   14   46 1  
    46   14   47 1  
    47   15   48 1  
    48   15   49 1  
    49   16   50 1  
    50   16   51 1  
    51   17   52 1  
    52   17   53 1  
    53   18   54 1  
    54   18   55 1  
    55   18   56 1  
    56   19   57 1  
    57   20   58 1  
    58   23   59 1  
    59   23   60 1  
    60   24   61 1  
    61   24   62 1  
    62   25   63 1  
    63   25   64 1  
    64   26   65 1  
    65   26   66 1  
    66   27   67 1  
    67   27   68 1  
    68   27   69 1  
@<TRIPOS>SUBSTRUCTURE
     1 LYS         1

