### 
### Created by X-TOOL on Mon Sep 10 21:12:58 2018
### 

@<TRIPOS>MOLECULE
2ole_ligand
   55    57     1     0     0
SMALL
GAST_HUCK


@<TRIPOS>ATOM
      1 CAY        -5.4750    1.1060   -6.2450 C.ar      1 KR2        -0.0419
      2 CBC        -5.9740    0.5210   -5.0840 C.ar      1 KR2        -0.0562
      3 CBB        -5.3750    0.7910   -3.8550 C.ar      1 KR2        -0.0575
      4 CBA        -4.2710    1.6380   -3.7920 C.ar      1 KR2        -0.0562
      5 CAZ        -3.7700    2.2190   -4.9540 C.ar      1 KR2        -0.0419
      6 CAX        -4.3790    1.9630   -6.1800 C.ar      1 KR2         0.0519
      7 CAW        -4.0080    2.8210   -7.3950 C.2       1 KR2         0.2286
      8 OAA        -2.5800    2.8910   -7.4840 O.2       1 KR2        -0.3825
      9 NAR        -4.5980    4.1320   -7.0760 N.am      1 KR2        -0.1656
     10 CAV        -5.3410    4.6290   -8.2460 C.3       1 KR2         0.0587
     11 CDD        -5.0780    6.0960   -8.5930 C.3       1 KR2        -0.0303
     12 CNN        -3.6960    6.3320   -9.2070 C.3       1 KR2        -0.0492
     13 CAT        -2.5940    6.5150   -8.1580 C.3       1 KR2        -0.0302
     14 CAS        -2.3730    5.2730   -7.2870 C.3       1 KR2         0.0592
     15 NAQ        -3.6160    4.9300   -6.5750 N.am      1 KR2        -0.1666
     16 CAO        -3.9800    5.6090   -5.4930 C.2       1 KR2         0.2052
     17 OAP        -5.2630    5.6880   -5.0560 O.2       1 KR2        -0.3947
     18 CAN        -2.9320    6.4220   -4.7380 C.3       1 KR2         0.0838
     19 CAL        -3.3090    6.5330   -3.2610 C.3       1 KR2         0.0010
     20 NAM        -2.5420    7.6660   -2.7260 N.4       1 KR2         0.2238
     21 CAK        -2.8660    5.3930   -2.3450 C.3       1 KR2         0.0243
     22 CAG        -3.4910    5.1700   -1.1220 C.ar      1 KR2        -0.0094
     23 CAH        -4.5280    5.9890   -0.7030 C.ar      1 KR2        -0.0298
     24 CAC        -5.0210    5.9430    0.5990 C.ar      1 KR2         0.1544
     25 FAB        -6.1310    6.6440    0.8930 F         1 KR2        -0.1895
     26 CAD        -4.4370    5.0680    1.5100 C.ar      1 KR2         0.1560
     27 FAI        -4.6000    5.2210    2.8390 F         1 KR2        -0.1911
     28 CAE        -3.4590    4.1870    1.0700 C.ar      1 KR2        -0.0030
     29 CAF        -2.9900    4.2170   -0.2390 C.ar      1 KR2         0.1274
     30 FAJ        -1.9950    3.3780   -0.5720 F         1 KR2        -0.1934
     31 H1         -5.9403    0.8941   -7.2009 H         1 KR2         0.0669
     32 H2         -6.8282   -0.1443   -5.1362 H         1 KR2         0.0629
     33 H3         -5.7676    0.3426   -2.9495 H         1 KR2         0.0653
     34 H4         -3.8013    1.8451   -2.8372 H         1 KR2         0.0629
     35 H5         -2.9054    2.8710   -4.9043 H         1 KR2         0.0669
     36 H6         -6.4160    4.5118   -8.0446 H         1 KR2         0.0545
     37 H7         -5.0617    4.0157   -9.1154 H         1 KR2         0.0545
     38 H8         -5.1580    6.6928   -7.6724 H         1 KR2         0.0285
     39 H9         -5.8413    6.4274   -9.3124 H         1 KR2         0.0285
     40 H10        -3.7399    7.2376   -9.8298 H         1 KR2         0.0267
     41 H11        -3.4401    5.4665   -9.8358 H         1 KR2         0.0267
     42 H12        -2.8706    7.3551   -7.5041 H         1 KR2         0.0285
     43 H13        -1.6530    6.7489   -8.6774 H         1 KR2         0.0285
     44 H14        -1.5784    5.4783   -6.5546 H         1 KR2         0.0546
     45 H15        -2.0740    4.4287   -7.9255 H         1 KR2         0.0546
     46 H16        -2.8718    7.4302   -5.1738 H         1 KR2         0.0561
     47 H17        -1.9545    5.9253   -4.8265 H         1 KR2         0.0561
     48 H18        -4.3949    6.6856   -3.1748 H         1 KR2         0.0898
     49 H19        -2.7550    7.7839   -1.7478 H         1 KR2         0.2000
     50 H20        -2.7885    8.5052   -3.2270 H         1 KR2         0.2000
     51 H21        -1.5563    7.4863   -2.8359 H         1 KR2         0.2000
     52 H22        -1.8019    5.5644   -2.1253 H         1 KR2         0.0467
     53 H23        -2.9757    4.4652   -2.9256 H         1 KR2         0.0467
     54 H24        -4.9676    6.6848   -1.4084 H         1 KR2         0.0522
     55 H25        -3.0515    3.4591    1.7622 H         1 KR2         0.0562
@<TRIPOS>BOND
     1    1    2 ar 
     2    1    6 ar 
     3    2    3 ar 
     4    3    4 ar 
     5    4    5 ar 
     6    5    6 ar 
     7    6    7 1  
     8    7    8 2  
     9    7    9 am 
    10    9   10 1  
    11    9   15 1  
    12   10   11 1  
    13   11   12 1  
    14   12   13 1  
    15   13   14 1  
    16   14   15 1  
    17   15   16 am 
    18   16   17 2  
    19   16   18 1  
    20   18   19 1  
    21   19   20 1  
    22   19   21 1  
    23   21   22 1  
    24   22   23 ar 
    25   22   29 ar 
    26   23   24 ar 
    27   24   25 1  
    28   24   26 ar 
    29   26   27 1  
    30   26   28 ar 
    31   28   29 ar 
    32   29   30 1  
    33    1   31 1  
    34    2   32 1  
    35    3   33 1  
    36    4   34 1  
    37    5   35 1  
    38   10   36 1  
    39   10   37 1  
    40   11   38 1  
    41   11   39 1  
    42   12   40 1  
    43   12   41 1  
    44   13   42 1  
    45   13   43 1  
    46   14   44 1  
    47   14   45 1  
    48   18   46 1  
    49   18   47 1  
    50   19   48 1  
    51   20   49 1  
    52   20   50 1  
    53   20   51 1  
    54   21   52 1  
    55   21   53 1  
    56   23   54 1  
    57   28   55 1  
@<TRIPOS>SUBSTRUCTURE
     1 KR2         1

