### 
### Created by X-TOOL on Mon Sep 10 21:12:56 2018
### 

@<TRIPOS>MOLECULE
2on3_ligand
   18    17     1     0     0
SMALL
GAST_HUCK


@<TRIPOS>ATOM
      1 N1        -27.5770  -11.7780   20.8920 N.4       1 XAP         0.2186
      2 C1        -27.3250  -11.4570   19.5050 C.3       1 XAP        -0.0331
      3 C2        -26.1650  -12.2810   18.9590 C.3       1 XAP         0.0160
      4 C3        -26.2000  -12.2860   17.4490 C.3       1 XAP         0.0964
      5 O1        -27.5330  -11.8780   17.1540 O.3       1 XAP        -0.3322
      6 N2        -28.6170  -12.7810   17.4520 N.4       1 XAP         0.3859
      7 H1        -28.3466  -11.2222   21.2310 H         1 XAP         0.1994
      8 H2        -26.7532  -11.5796   21.4379 H         1 XAP         0.1994
      9 H3        -27.8071  -12.7559   20.9741 H         1 XAP         0.1994
     10 H4        -27.0784  -10.3883   19.4216 H         1 XAP         0.0814
     11 H5        -28.2285  -11.6720   18.9155 H         1 XAP         0.0814
     12 H6        -26.2462  -13.3139   19.3285 H         1 XAP         0.0341
     13 H7        -25.2151  -11.8433   19.2998 H         1 XAP         0.0341
     14 H8        -25.9985  -13.2922   17.0529 H         1 XAP         0.0617
     15 H9        -25.4692  -11.5758   17.0349 H         1 XAP         0.0617
     16 H10       -29.4916  -12.3543   17.1892 H         1 XAP         0.2319
     17 H11       -28.6248  -12.9823   18.4397 H         1 XAP         0.2319
     18 H12       -28.4925  -13.6376   16.9354 H         1 XAP         0.2319
@<TRIPOS>BOND
     1    1    2 1  
     2    2    3 1  
     3    3    4 1  
     4    4    5 1  
     5    5    6 1  
     6    1    7 1  
     7    1    8 1  
     8    1    9 1  
     9    2   10 1  
    10    2   11 1  
    11    3   12 1  
    12    3   13 1  
    13    4   14 1  
    14    4   15 1  
    15    6   16 1  
    16    6   17 1  
    17    6   18 1  
@<TRIPOS>SUBSTRUCTURE
     1 XAP         1

