### 
### Created by X-TOOL on Mon Sep 10 21:12:56 2018
### 

@<TRIPOS>MOLECULE
2on6_ligand
   34    36     1     0     0
SMALL
GAST_HUCK


@<TRIPOS>ATOM
      1 C9         13.5460   11.8920   57.8740 C.2       1 IMH         0.0057
      2 C8         14.5140   12.6510   57.2000 C.2       1 IMH         0.0223
      3 N7         14.9500   11.9320   56.0930 N.pl3     1 IMH        -0.2895
      4 C5         14.3450   10.7150   56.0180 C.2       1 IMH         0.1348
      5 C6         14.3540    9.5200   55.1430 C.2       1 IMH         0.2413
      6 O6         15.1470    9.4410   54.0480 O.2       1 IMH        -0.4013
      7 N1         13.5340    8.4750   55.4520 N.am      1 IMH        -0.2067
      8 C2         12.7090    8.4630   56.5240 C.2       1 IMH         0.1146
      9 N3         12.6340    9.5040   57.3650 N.2       1 IMH        -0.3199
     10 C4         13.4170   10.5970   57.1610 C.2       1 IMH         0.0184
     11 O5'        11.8990   15.7990   61.6140 O.3       1 IMH        -0.3894
     12 C5'        11.0290   14.9850   60.8250 C.3       1 IMH         0.0894
     13 C4'        11.5770   13.5810   60.7170 C.3       1 IMH         0.0313
     14 N4'        11.7040   13.1300   59.3210 N.4       1 IMH         0.2435
     15 C3'        12.9960   13.5380   61.2970 C.3       1 IMH         0.1317
     16 O3'        13.0530   13.0910   62.6700 O.3       1 IMH        -0.3832
     17 C2'        13.8320   12.7190   60.2760 C.3       1 IMH         0.1327
     18 O2'        14.7220   11.7240   60.8560 O.3       1 IMH        -0.3821
     19 C1'        12.8400   12.2090   59.1820 C.3       1 IMH         0.0244
     20 H1         14.8654   13.6387   57.4947 H         1 IMH         0.0779
     21 H2         15.6439   12.2770   55.4145 H         1 IMH         0.2273
     22 H3         13.5431    7.6739   54.8535 H         1 IMH         0.2519
     23 H4         12.0905    7.5858   56.7083 H         1 IMH         0.1426
     24 H5         12.7566   15.8312   61.2067 H         1 IMH         0.2097
     25 H6         10.9412   15.4184   59.8178 H         1 IMH         0.0614
     26 H7         10.0363   14.9514   61.2975 H         1 IMH         0.0614
     27 H8         10.9171   12.8962   61.2698 H         1 IMH         0.0900
     28 H9         11.8502   13.9300   58.7254 H         1 IMH         0.2029
     29 H10        10.8573   12.6569   59.0464 H         1 IMH         0.2029
     30 H11        13.3917   14.5643   61.2992 H         1 IMH         0.0680
     31 H12        12.5433   13.6791   63.2147 H         1 IMH         0.2102
     32 H13        14.5017   13.4340   59.7757 H         1 IMH         0.0693
     33 H14        15.1893   11.2753   60.1611 H         1 IMH         0.2103
     34 H15        12.4565   11.2308   59.5077 H         1 IMH         0.0961
@<TRIPOS>BOND
     1    1    2 2  
     2    1   10 1  
     3   19    1 1  
     4    2    3 1  
     5    4    3 1  
     6    4    5 1  
     7   10    4 2  
     8    5    6 2  
     9    5    7 am 
    10    8    7 am 
    11    9    8 2  
    12   10    9 1  
    13   12   11 1  
    14   13   12 1  
    15   14   13 1  
    16   13   15 1  
    17   14   19 1  
    18   15   16 1  
    19   15   17 1  
    20   17   18 1  
    21   17   19 1  
    22    2   20 1  
    23    3   21 1  
    24    7   22 1  
    25    8   23 1  
    26   11   24 1  
    27   12   25 1  
    28   12   26 1  
    29   13   27 1  
    30   14   28 1  
    31   14   29 1  
    32   15   30 1  
    33   16   31 1  
    34   17   32 1  
    35   18   33 1  
    36   19   34 1  
@<TRIPOS>SUBSTRUCTURE
     1 IMH         1

