### 
### Created by X-TOOL on Mon Sep 10 21:12:58 2018
### 

@<TRIPOS>MOLECULE
2onc_ligand
   50    53     1     0     0
SMALL
GAST_HUCK


@<TRIPOS>ATOM
      1 N1        -43.4770  -20.3300   19.0220 N.4       1 SY1         0.2223
      2 C4        -45.8340  -21.2380   16.3980 C.3       1 SY1        -0.0263
      3 C5        -44.8550  -20.7110   15.3710 C.3       1 SY1         0.0287
      4 C7        -43.6780  -19.3870   16.9680 C.3       1 SY1         0.0709
      5 C8        -43.7380  -18.7240   14.6910 C.cat     1 SY1         0.2203
      6 C10       -43.7220  -16.6570   13.4990 C.ar      1 SY1         0.1977
      7 C13       -42.6830  -15.0430   11.4940 C.ar      1 SY1         0.0143
      8 C15       -42.7010  -17.1230   12.6830 C.ar      1 SY1         0.1701
      9 C20       -40.6500  -20.7220   14.1100 C.ar      1 SY1         0.0147
     10 C21       -40.0220  -21.6200   13.2430 C.ar      1 SY1        -0.0467
     11 C22       -38.6320  -21.7740   13.2280 C.ar      1 SY1        -0.0598
     12 C24       -38.4630  -20.1260   14.9670 C.ar      1 SY1        -0.0334
     13 C26       -40.3650  -19.1370   15.8070 C.1       1 SY1         0.0935
     14 N27       -40.8610  -18.4350   16.5820 N.1       1 SY1        -0.3348
     15 C25       -39.8520  -19.9760   14.9780 C.ar      1 SY1         0.0989
     16 C23       -37.8420  -21.0220   14.0950 C.ar      1 SY1        -0.0574
     17 C19       -42.1750  -20.6120   14.0800 C.3       1 SY1         0.0737
     18 N18       -42.7290  -19.2440   13.9170 N.am      1 SY1        -0.2194
     19 N6        -44.4670  -19.3490   15.7490 N.pl3     1 SY1        -0.2978
     20 C3        -45.1670  -21.2750   17.7760 C.3       1 SY1        -0.0057
     21 C2        -44.5320  -19.9080   18.1250 C.3       1 SY1        -0.0025
     22 C16       -42.2010  -18.4920   12.9300 C.2       1 SY1         0.2482
     23 O17       -41.2800  -18.9250   12.1940 O.2       1 SY1        -0.3641
     24 N9        -44.2010  -17.4680   14.4650 N.pl3     1 SY1        -0.2124
     25 C14       -42.1720  -16.3280   11.6720 C.ar      1 SY1         0.0323
     26 C12       -43.7080  -14.5680   12.3210 C.ar      1 SY1         0.0158
     27 C11       -44.2360  -15.3730   13.3230 C.ar      1 SY1         0.0619
     28 H1        -42.9632  -19.5230   19.3396 H         1 SY1         0.1998
     29 H2        -42.8534  -20.9556   18.5365 H         1 SY1         0.1998
     30 H3        -43.8798  -20.8051   19.8145 H         1 SY1         0.1998
     31 H4        -46.1478  -22.2540   16.1164 H         1 SY1         0.0289
     32 H5        -46.7143  -20.5795   16.4356 H         1 SY1         0.0289
     33 H6        -45.3297  -20.6989   14.3788 H         1 SY1         0.0538
     34 H7        -43.9642  -21.3557   15.3435 H         1 SY1         0.0538
     35 H8        -43.3231  -18.3731   17.2045 H         1 SY1         0.0594
     36 H9        -42.8148  -20.0532   16.8231 H         1 SY1         0.0594
     37 H10       -42.2844  -14.4082   10.7109 H         1 SY1         0.1238
     38 H11       -40.6269  -22.2117   12.5655 H         1 SY1         0.0582
     39 H12       -38.1705  -22.4766   12.5436 H         1 SY1         0.0671
     40 H13       -37.8577  -19.5371   15.6466 H         1 SY1         0.0699
     41 H14       -36.7635  -21.1308   14.0925 H         1 SY1         0.0584
     42 H15       -42.5599  -21.0197   15.0264 H         1 SY1         0.0708
     43 H16       -42.5395  -21.2241   13.2419 H         1 SY1         0.0708
     44 H17       -44.3821  -22.0457   17.7745 H         1 SY1         0.0321
     45 H18       -45.9236  -21.5237   18.5347 H         1 SY1         0.0321
     46 H19       -45.2475  -19.1729   18.5221 H         1 SY1         0.0872
     47 H20       -44.9603  -17.1145   15.0644 H         1 SY1         0.2598
     48 H21       -41.3779  -16.7001   11.0348 H         1 SY1         0.0913
     49 H22       -44.0926  -13.5646   12.1785 H         1 SY1         0.0909
     50 H23       -45.0352  -15.0083   13.9581 H         1 SY1         0.1008
@<TRIPOS>BOND
     1   21    1 1  
     2    3    2 1  
     3    2   20 1  
     4   19    3 1  
     5   19    4 1  
     6    4   21 1  
     7   18    5 ar 
     8    5   19 ar 
     9    5   24 ar 
    10    6    8 ar 
    11   24    6 1  
    12    6   27 ar 
    13   25    7 ar 
    14    7   26 ar 
    15    8   22 1  
    16    8   25 ar 
    17    9   10 ar 
    18    9   15 ar 
    19   17    9 1  
    20   10   11 ar 
    21   11   16 ar 
    22   15   12 ar 
    23   12   16 ar 
    24   13   14 3  
    25   15   13 1  
    26   17   18 1  
    27   18   22 am 
    28   20   21 1  
    29   22   23 2  
    30   26   27 ar 
    31    1   28 1  
    32    1   29 1  
    33    1   30 1  
    34    2   31 1  
    35    2   32 1  
    36    3   33 1  
    37    3   34 1  
    38    4   35 1  
    39    4   36 1  
    40    7   37 1  
    41   10   38 1  
    42   11   39 1  
    43   12   40 1  
    44   16   41 1  
    45   17   42 1  
    46   17   43 1  
    47   20   44 1  
    48   20   45 1  
    49   21   46 1  
    50   24   47 1  
    51   25   48 1  
    52   26   49 1  
    53   27   50 1  
@<TRIPOS>SUBSTRUCTURE
     1 SY1         1

