### 
### Created by X-TOOL on Mon Sep 10 21:12:56 2018
### 

@<TRIPOS>MOLECULE
2ony_ligand
   37    39     1     0     0
SMALL
GAST_HUCK


@<TRIPOS>ATOM
      1 C1         28.9560   46.0530   19.3380 C.3       1 TMJ         0.0189
      2 C10        26.8880   44.9480   12.0170 C.ar      1 TMJ         0.0630
      3 C14        25.1990   46.4240   10.3670 C.ar      1 TMJ         0.0218
      4 C13        24.9650   46.3800   11.7390 C.ar      1 TMJ        -0.0639
      5 C15        26.2700   45.7260    9.8210 C.ar      1 TMJ        -0.0639
      6 C12        25.8090   45.6430   12.5630 C.ar      1 TMJ        -0.0448
      7 C11        27.1150   44.9840   10.6470 C.ar      1 TMJ        -0.0448
      8 C6         28.1800   46.1170   16.9370 C.ar      1 TMJ        -0.0646
      9 C4         28.5290   43.9580   17.9440 C.ar      1 TMJ         0.0053
     10 C2         29.0420   45.0830   20.5150 C.3       1 TMJ        -0.0238
     11 C3         28.9000   43.0900   19.1510 C.3       1 TMJ        -0.0020
     12 CL1        24.1780   47.3640    9.3320 Cl        1 TMJ        -0.0866
     13 N2         27.8280   44.2200   12.8850 N.am      1 TMJ        -0.1875
     14 S1         27.3180   43.3370   14.1570 S.o2      1 TMJ         0.0850
     15 O2         25.8960   43.2050   14.1190 O.2       1 TMJ        -0.1456
     16 O1         27.9440   41.9760   14.0780 O.2       1 TMJ        -0.1456
     17 C8         27.7920   44.1160   15.6510 C.ar      1 TMJ         0.1007
     18 C9         28.1550   43.3450   16.7510 C.ar      1 TMJ        -0.0347
     19 C7         27.8030   45.5050   15.7450 C.ar      1 TMJ        -0.0484
     20 C5         28.5450   45.3460   18.0390 C.ar      1 TMJ        -0.0308
     21 N1         29.7350   43.8580   20.0840 N.4       1 TMJ         0.2394
     22 H1         29.9404   46.5214   19.1912 H         1 TMJ         0.0463
     23 H2         28.2118   46.8288   19.5708 H         1 TMJ         0.0463
     24 H3         24.1263   46.9193   12.1642 H         1 TMJ         0.0579
     25 H4         26.4489   45.7582    8.7523 H         1 TMJ         0.0579
     26 H5         25.6279   45.6087   13.6312 H         1 TMJ         0.0483
     27 H6         27.9475   44.4364   10.2202 H         1 TMJ         0.0483
     28 H7         28.1897   47.1986   17.0084 H         1 TMJ         0.0538
     29 H8         28.0279   44.8304   20.8583 H         1 TMJ         0.0836
     30 H9         29.6015   45.5519   21.3379 H         1 TMJ         0.0836
     31 H10        29.4569   42.2061   18.8067 H         1 TMJ         0.0964
     32 H11        27.9819   42.7680   19.6642 H         1 TMJ         0.0964
     33 H12        28.8074   44.2685   12.6888 H         1 TMJ         0.2165
     34 H13        28.1466   42.2634   16.6789 H         1 TMJ         0.0559
     35 H14        27.5184   46.1091   14.8911 H         1 TMJ         0.0561
     36 H15        29.9365   43.2901   20.8920 H         1 TMJ         0.2028
     37 H16        30.5973   44.1092   19.6264 H         1 TMJ         0.2028
@<TRIPOS>BOND
     1    1   10 1  
     2   20    1 1  
     3    2    6 ar 
     4    2    7 ar 
     5   13    2 1  
     6    4    3 ar 
     7    5    3 ar 
     8    3   12 1  
     9    6    4 ar 
    10    7    5 ar 
    11    8   19 ar 
    12   20    8 ar 
    13    9   11 1  
    14   18    9 ar 
    15    9   20 ar 
    16   21   10 1  
    17   11   21 1  
    18   14   13 am 
    19   14   15 2  
    20   14   16 2  
    21   17   14 1  
    22   17   18 ar 
    23   17   19 ar 
    24    1   22 1  
    25    1   23 1  
    26    4   24 1  
    27    5   25 1  
    28    6   26 1  
    29    7   27 1  
    30    8   28 1  
    31   10   29 1  
    32   10   30 1  
    33   11   31 1  
    34   11   32 1  
    35   13   33 1  
    36   18   34 1  
    37   19   35 1  
    38   21   36 1  
    39   21   37 1  
@<TRIPOS>SUBSTRUCTURE
     1 TMJ         1

