### 
### Created by X-TOOL on Mon Sep 10 21:12:56 2018
### 

@<TRIPOS>MOLECULE
2onz_ligand
   37    39     1     0     0
SMALL
GAST_HUCK


@<TRIPOS>ATOM
      1 C1         29.1460   45.7480   19.2140 C.3       1 TMJ         0.0189
      2 C10        26.9180   44.6960   11.9630 C.ar      1 TMJ         0.0630
      3 C14        25.2000   46.2630   10.4130 C.ar      1 TMJ         0.0218
      4 C13        25.0010   46.1560   11.7850 C.ar      1 TMJ        -0.0639
      5 C15        26.2550   45.5750    9.8170 C.ar      1 TMJ        -0.0639
      6 C12        25.8560   45.3750   12.5590 C.ar      1 TMJ        -0.0448
      7 C11        27.1100   44.7940   10.5880 C.ar      1 TMJ        -0.0448
      8 C6         28.3710   45.8250   16.8110 C.ar      1 TMJ        -0.0646
      9 C4         28.6330   43.6650   17.8420 C.ar      1 TMJ         0.0053
     10 C2         29.3070   44.7710   20.3830 C.3       1 TMJ        -0.0238
     11 C3         29.0260   42.7920   19.0370 C.3       1 TMJ        -0.0020
     12 CL1        24.1760   47.2740    9.4500 Cl        1 TMJ        -0.0866
     13 N2         27.8750   43.9340   12.7760 N.am      1 TMJ        -0.1875
     14 S1         27.3940   43.0540   14.0630 S.o2      1 TMJ         0.0850
     15 O2         25.9700   42.9350   14.0530 O.2       1 TMJ        -0.1456
     16 O1         28.0080   41.6890   13.9830 O.2       1 TMJ        -0.1456
     17 C8         27.9030   43.8300   15.5460 C.ar      1 TMJ         0.1007
     18 C9         28.2310   43.0580   16.6520 C.ar      1 TMJ        -0.0347
     19 C7         27.9740   45.2220   15.6270 C.ar      1 TMJ        -0.0484
     20 C5         28.7020   45.0500   17.9260 C.ar      1 TMJ        -0.0308
     21 N1         29.9480   43.5350   19.9100 N.4       1 TMJ         0.2394
     22 H1         30.1111   46.2435   19.0324 H         1 TMJ         0.0463
     23 H2         28.3921   46.5018   19.4850 H         1 TMJ         0.0463
     24 H3         24.1775   46.6823   12.2539 H         1 TMJ         0.0579
     25 H4         26.4104   45.6487    8.7467 H         1 TMJ         0.0579
     26 H5         25.6953   45.2948   13.6280 H         1 TMJ         0.0483
     27 H6         27.9276   44.2606   10.1168 H         1 TMJ         0.0483
     28 H7         28.4250   46.9059   16.8722 H         1 TMJ         0.0538
     29 H8         28.3173   44.5333   20.8001 H         1 TMJ         0.0836
     30 H9         29.9320   45.2322   21.1618 H         1 TMJ         0.0836
     31 H10        29.5206   41.8783   18.6757 H         1 TMJ         0.0964
     32 H11        28.1236   42.5206   19.6044 H         1 TMJ         0.0964
     33 H12        28.8452   43.9551   12.5348 H         1 TMJ         0.2165
     34 H13        28.1744   41.9772   16.5907 H         1 TMJ         0.0559
     35 H14        27.7194   45.8300   14.7664 H         1 TMJ         0.0561
     36 H15        30.1925   42.9616   20.7021 H         1 TMJ         0.2028
     37 H16        30.7817   43.7679   19.3936 H         1 TMJ         0.2028
@<TRIPOS>BOND
     1    1   10 1  
     2   20    1 1  
     3    2    6 ar 
     4    2    7 ar 
     5   13    2 1  
     6    4    3 ar 
     7    5    3 ar 
     8    3   12 1  
     9    6    4 ar 
    10    7    5 ar 
    11    8   19 ar 
    12   20    8 ar 
    13    9   11 1  
    14   18    9 ar 
    15    9   20 ar 
    16   21   10 1  
    17   11   21 1  
    18   14   13 am 
    19   14   15 2  
    20   14   16 2  
    21   17   14 1  
    22   17   18 ar 
    23   17   19 ar 
    24    1   22 1  
    25    1   23 1  
    26    4   24 1  
    27    5   25 1  
    28    6   26 1  
    29    7   27 1  
    30    8   28 1  
    31   10   29 1  
    32   10   30 1  
    33   11   31 1  
    34   11   32 1  
    35   13   33 1  
    36   18   34 1  
    37   19   35 1  
    38   21   36 1  
    39   21   37 1  
@<TRIPOS>SUBSTRUCTURE
     1 TMJ         1

