### 
### Created by X-TOOL on Mon Sep 10 21:12:56 2018
### 

@<TRIPOS>MOLECULE
2oo8_ligand
   69    72     1     0     0
SMALL
GAST_HUCK


@<TRIPOS>ATOM
      1 C28        47.7220    4.8050   69.1940 C.3       1 RAJ        -0.0433
      2 N6         48.1310    5.5200   67.9610 N.4       1 RAJ         0.2310
      3 C29        47.3220    5.1350   66.7830 C.3       1 RAJ        -0.0433
      4 C27        49.5770    5.3540   67.6860 C.3       1 RAJ        -0.0306
      5 C26        50.0420    3.9000   67.5080 C.3       1 RAJ        -0.0025
      6 C25        51.4590    3.8820   66.9380 C.3       1 RAJ        -0.0110
      7 C20        52.5050    3.6470   68.0510 C.ar      1 RAJ        -0.0250
      8 C19        52.3400    2.6060   68.9780 C.ar      1 RAJ        -0.0095
      9 C21        53.6120    4.5050   68.1330 C.ar      1 RAJ        -0.0442
     10 C22        54.5780    4.3070   69.1350 C.ar      1 RAJ         0.0267
     11 C24        55.8000    5.2480   69.2450 C.3       1 RAJ         0.3708
     12 F2         55.4290    6.4110   69.7890 F         1 RAJ        -0.2213
     13 F3         56.7500    4.6740   70.0060 F         1 RAJ        -0.2213
     14 F1         56.3060    5.5180   68.0370 F         1 RAJ        -0.2213
     15 C23        54.4080    3.2650   70.0610 C.ar      1 RAJ        -0.0184
     16 C18        53.2760    2.4150   70.0030 C.ar      1 RAJ         0.0888
     17 N5         53.1440    1.3800   70.8590 N.am      1 RAJ        -0.2298
     18 C17        53.6190    1.3270   72.1150 C.2       1 RAJ         0.2249
     19 O1         54.1970    2.2520   72.6770 O.2       1 RAJ        -0.3762
     20 C12        53.3900    0.0110   72.8860 C.ar      1 RAJ         0.0393
     21 C11        53.6130    0.0030   74.2620 C.ar      1 RAJ        -0.0245
     22 C13        53.0070   -1.1710   72.2350 C.ar      1 RAJ        -0.0596
     23 C14        52.8210   -2.3450   72.9760 C.ar      1 RAJ        -0.0637
     24 C15        53.0400   -2.3420   74.3690 C.ar      1 RAJ        -0.0167
     25 C16        52.8350   -3.6500   75.1600 C.3       1 RAJ        -0.0311
     26 C10        53.4220   -1.1600   75.0220 C.ar      1 RAJ         0.0713
     27 N4         53.6760   -1.1230   76.3470 N.pl3     1 RAJ        -0.2584
     28 C9         52.8050   -0.9480   77.3320 C.ar      1 RAJ         0.1467
     29 N3         51.5180   -0.7250   77.0310 N.ar      1 RAJ        -0.2763
     30 C8         50.5910   -0.5390   77.9610 C.ar      1 RAJ         0.0003
     31 C7         50.9370   -0.5590   79.3090 C.ar      1 RAJ        -0.0431
     32 C6         52.2660   -0.7670   79.6760 C.ar      1 RAJ        -0.0389
     33 C5         53.2240   -0.9810   78.6790 C.ar      1 RAJ         0.0581
     34 C3         54.5540   -1.1730   79.0750 C.ar      1 RAJ         0.0710
     35 C2         54.8950   -1.1310   80.4200 C.ar      1 RAJ        -0.0052
     36 C1         56.2300   -1.3130   80.7790 C.ar      1 RAJ         0.0258
     37 N2         57.1410   -1.5040   79.8410 N.ar      1 RAJ        -0.2674
     38 C4         56.7990   -1.5130   78.5620 C.ar      1 RAJ         0.0850
     39 N1         55.5380   -1.3410   78.1840 N.ar      1 RAJ        -0.2617
     40 H1         46.6451    4.9522   69.3631 H         1 RAJ         0.0777
     41 H2         48.2853    5.2013   70.0517 H         1 RAJ         0.0777
     42 H3         47.9321    3.7311   69.0819 H         1 RAJ         0.0777
     43 H4         47.9683    6.5014   68.1236 H         1 RAJ         0.2028
     44 H5         47.6686    5.6944   65.9015 H         1 RAJ         0.0777
     45 H6         46.2639    5.3684   66.9726 H         1 RAJ         0.0777
     46 H7         47.4323    4.0561   66.5992 H         1 RAJ         0.0777
     47 H8         50.1365    5.7906   68.5265 H         1 RAJ         0.0816
     48 H9         49.8140    5.9033   66.7630 H         1 RAJ         0.0816
     49 H10        49.3625    3.3803   66.8165 H         1 RAJ         0.0339
     50 H11        50.0330    3.3907   68.4829 H         1 RAJ         0.0339
     51 H12        51.6628    4.8475   66.4520 H         1 RAJ         0.0431
     52 H13        51.5371    3.0741   66.1956 H         1 RAJ         0.0431
     53 H14        51.4835    1.9461   68.9005 H         1 RAJ         0.0702
     54 H15        53.7222    5.3187   67.4254 H         1 RAJ         0.0672
     55 H16        55.1541    3.1087   70.8317 H         1 RAJ         0.0665
     56 H17        52.6466    0.5781   70.5279 H         1 RAJ         0.2252
     57 H18        53.9400    0.9122   74.7534 H         1 RAJ         0.0564
     58 H19        52.8554   -1.1759   71.1617 H         1 RAJ         0.0555
     59 H20        52.5086   -3.2560   72.4785 H         1 RAJ         0.0537
     60 H21        52.5398   -4.4537   74.4694 H         1 RAJ         0.0379
     61 H22        52.0453   -3.5040   75.9117 H         1 RAJ         0.0379
     62 H23        53.7737   -3.9253   75.6630 H         1 RAJ         0.0379
     63 H24        54.6601   -1.2447   76.6256 H         1 RAJ         0.2133
     64 H25        49.5603   -0.3708   77.6703 H         1 RAJ         0.0810
     65 H26        50.1778   -0.4137   80.0690 H         1 RAJ         0.0612
     66 H27        52.5535   -0.7630   80.7212 H         1 RAJ         0.0736
     67 H28        54.1379   -0.9600   81.1767 H         1 RAJ         0.0766
     68 H29        56.5194   -1.2979   81.8235 H         1 RAJ         0.0924
     69 H30        57.5637   -1.6638   77.8086 H         1 RAJ         0.1121
@<TRIPOS>BOND
     1    1    2 1  
     2    2    3 1  
     3    2    4 1  
     4    4    5 1  
     5    5    6 1  
     6    6    7 1  
     7    7    8 ar 
     8    7    9 ar 
     9    8   16 ar 
    10    9   10 ar 
    11   10   11 1  
    12   10   15 ar 
    13   11   12 1  
    14   11   13 1  
    15   11   14 1  
    16   15   16 ar 
    17   16   17 1  
    18   17   18 am 
    19   18   19 2  
    20   18   20 1  
    21   20   21 ar 
    22   20   22 ar 
    23   21   26 ar 
    24   22   23 ar 
    25   23   24 ar 
    26   24   25 1  
    27   24   26 ar 
    28   26   27 1  
    29   27   28 1  
    30   28   29 ar 
    31   28   33 ar 
    32   29   30 ar 
    33   30   31 ar 
    34   31   32 ar 
    35   32   33 ar 
    36   33   34 1  
    37   34   35 ar 
    38   34   39 ar 
    39   35   36 ar 
    40   36   37 ar 
    41   37   38 ar 
    42   38   39 ar 
    43    1   40 1  
    44    1   41 1  
    45    1   42 1  
    46    2   43 1  
    47    3   44 1  
    48    3   45 1  
    49    3   46 1  
    50    4   47 1  
    51    4   48 1  
    52    5   49 1  
    53    5   50 1  
    54    6   51 1  
    55    6   52 1  
    56    8   53 1  
    57    9   54 1  
    58   15   55 1  
    59   17   56 1  
    60   21   57 1  
    61   22   58 1  
    62   23   59 1  
    63   25   60 1  
    64   25   61 1  
    65   25   62 1  
    66   27   63 1  
    67   30   64 1  
    68   31   65 1  
    69   32   66 1  
    70   35   67 1  
    71   36   68 1  
    72   38   69 1  
@<TRIPOS>SUBSTRUCTURE
     1 RAJ         1

