### 
### Created by X-TOOL on Mon Sep 10 21:12:55 2018
### 

@<TRIPOS>MOLECULE
2ooh_ligand
   35    36     1     0     0
SMALL
GAST_HUCK


@<TRIPOS>ATOM
      1 C1        -50.1040   23.0020   33.6280 C.ar      1 OX3         0.0894
      2 O1        -48.7710   22.8570   33.7920 O.3       1 OX3        -0.3318
      3 C2        -50.9770   21.9120   33.8680 C.ar      1 OX3        -0.0316
      4 C3        -52.3760   22.0640   33.6820 C.ar      1 OX3        -0.0614
      5 C4        -52.8970   23.3090   33.2550 C.ar      1 OX3        -0.0198
      6 C5        -52.0230   24.4020   33.0230 C.ar      1 OX3        -0.0614
      7 C6        -50.6300   24.2540   33.2080 C.ar      1 OX3        -0.0316
      8 C7        -54.2250   23.6290   32.8910 C.2       1 OX3         0.0412
      9 N8        -54.7850   24.0620   31.7960 N.2       1 OX3        -0.1307
     10 O9        -54.1130   24.3510   30.6250 O.3       1 OX3        -0.1288
     11 C10       -54.0400   25.6480   30.1510 C.2       1 OX3         0.2857
     12 O10       -52.9840   26.0790   29.7830 O.2       1 OX3        -0.3592
     13 C11       -55.2960   26.5050   30.1080 C.3       1 OX3         0.0673
     14 C12       -56.4040   25.7710   29.2900 C.3       1 OX3        -0.0315
     15 C13       -57.6840   26.6400   29.2690 C.3       1 OX3        -0.0506
     16 C14       -57.3810   28.0010   28.6130 C.3       1 OX3        -0.0528
     17 C15       -56.2910   28.7340   29.4090 C.3       1 OX3        -0.0506
     18 C16       -54.9970   27.8840   29.4340 C.3       1 OX3        -0.0315
     19 H1        -48.3372   23.6779   33.5909 H         1 OX3         0.2491
     20 H2        -50.5754   20.9595   34.1945 H         1 OX3         0.0549
     21 H3        -53.0430   21.2296   33.8663 H         1 OX3         0.0597
     22 H4        -52.4259   25.3558   32.7021 H         1 OX3         0.0597
     23 H5        -49.9653   25.0917   33.0304 H         1 OX3         0.0549
     24 H6        -54.9358   23.4816   33.7028 H         1 OX3         0.0785
     25 H7        -55.6515   26.6737   31.1352 H         1 OX3         0.0558
     26 H8        -56.6259   24.8013   29.7595 H         1 OX3         0.0293
     27 H9        -56.0535   25.6082   28.2601 H         1 OX3         0.0293
     28 H10       -58.0328   26.8012   30.2997 H         1 OX3         0.0267
     29 H11       -58.4665   26.1236   28.6936 H         1 OX3         0.0267
     30 H12       -58.2960   28.6115   28.6001 H         1 OX3         0.0265
     31 H13       -57.0333   27.8396   27.5820 H         1 OX3         0.0265
     32 H14       -56.6396   28.8984   30.4393 H         1 OX3         0.0267
     33 H15       -56.0816   29.7036   28.9336 H         1 OX3         0.0267
     34 H16       -54.6448   27.7210   28.4047 H         1 OX3         0.0293
     35 H17       -54.2214   28.4127   30.0076 H         1 OX3         0.0293
@<TRIPOS>BOND
     1    1    2 1  
     2    1    3 ar 
     3    1    7 ar 
     4    3    4 ar 
     5    4    5 ar 
     6    5    6 ar 
     7    5    8 1  
     8    6    7 ar 
     9    8    9 2  
    10    9   10 1  
    11   10   11 1  
    12   11   12 2  
    13   11   13 1  
    14   13   14 1  
    15   13   18 1  
    16   14   15 1  
    17   15   16 1  
    18   16   17 1  
    19   17   18 1  
    20    2   19 1  
    21    3   20 1  
    22    4   21 1  
    23    6   22 1  
    24    7   23 1  
    25    8   24 1  
    26   13   25 1  
    27   14   26 1  
    28   14   27 1  
    29   15   28 1  
    30   15   29 1  
    31   16   30 1  
    32   16   31 1  
    33   17   32 1  
    34   17   33 1  
    35   18   34 1  
    36   18   35 1  
@<TRIPOS>SUBSTRUCTURE
     1 OX3         1

