### 
### Created by X-TOOL on Mon Sep 10 21:12:56 2018
### 

@<TRIPOS>MOLECULE
2ooz_ligand
   17    17     1     0     0
SMALL
GAST_HUCK


@<TRIPOS>ATOM
      1 O1         26.9660   36.1730   28.9960 O.3       1 OX5        -0.3322
      2 C1         27.0530   37.0070   27.9390 C.ar      1 OX5         0.0888
      3 C2         27.0980   38.4130   28.1510 C.ar      1 OX5        -0.0322
      4 C3         27.1920   39.2790   27.0550 C.ar      1 OX5        -0.0623
      5 C4         27.2440   38.7470   25.7310 C.ar      1 OX5        -0.0220
      6 C5         27.1960   37.3470   25.5220 C.ar      1 OX5        -0.0623
      7 C6         27.1010   36.4790   26.6240 C.ar      1 OX5        -0.0322
      8 C7         27.3450   39.6420   24.6020 C.2       1 OX5         0.0359
      9 N8         26.4310   40.4930   24.4480 N.2       1 OX5        -0.1618
     10 O9         26.4690   41.3810   23.4100 O.3       1 OX5        -0.2534
     11 H1         26.9460   35.2745   28.6882 H         1 OX5         0.2489
     12 H2         27.0596   38.8125   29.1580 H         1 OX5         0.0547
     13 H3         27.2252   40.3512   27.2112 H         1 OX5         0.0591
     14 H4         27.2324   36.9460   24.5156 H         1 OX5         0.0591
     15 H5         27.0645   35.4068   26.4684 H         1 OX5         0.0547
     16 H6         28.1825   39.5825   23.9085 H         1 OX5         0.0758
     17 H7         26.4718   40.9053   22.5877 H         1 OX5         0.2812
@<TRIPOS>BOND
     1    1    2 1  
     2    2    3 ar 
     3    2    7 ar 
     4    3    4 ar 
     5    4    5 ar 
     6    5    6 ar 
     7    5    8 1  
     8    6    7 ar 
     9    8    9 2  
    10    9   10 1  
    11    1   11 1  
    12    3   12 1  
    13    4   13 1  
    14    6   14 1  
    15    7   15 1  
    16    8   16 1  
    17   10   17 1  
@<TRIPOS>SUBSTRUCTURE
     1 OX5         1

