### 
### Created by X-TOOL on Mon Sep 10 21:12:55 2018
### 

@<TRIPOS>MOLECULE
2op3_ligand
   28    29     1     0     0
SMALL
GAST_HUCK


@<TRIPOS>ATOM
      1 C10        21.9560   33.1140   11.1230 C.ar      1 TF5        -0.0344
      2 C17        18.5390   38.0180    9.6380 C.2       1 TF5         0.1298
      3 C16        20.0050   38.2470    9.3550 C.3       1 TF5         0.1415
      4 C8         20.3670   34.3230   12.4260 C.ar      1 TF5         0.1974
      5 C7         21.0290   35.5210   12.1670 C.ar      1 TF5         0.1699
      6 C5         24.1160   39.1570   10.3970 C.ar      1 TF5        -0.0712
      7 C4         22.7530   39.0210   10.2030 C.ar      1 TF5        -0.0323
      8 C3         22.1390   37.8210   10.5360 C.ar      1 TF5         0.1029
      9 C2         22.8770   36.7840   11.0840 C.ar      1 TF5         0.0097
     10 O          20.7780   37.6420   10.3770 O.3       1 TF5        -0.2970
     11 C          24.8670   38.1150   10.9230 C.ar      1 TF5        -0.0731
     12 F13        19.2570   34.2780   13.1600 F         1 TF5        -0.1857
     13 F          20.6440   36.7350   12.6440 F         1 TF5        -0.1851
     14 C9         20.8130   33.1270   11.9010 C.ar      1 TF5         0.1629
     15 F14        20.1400   31.9740   12.1590 F         1 TF5        -0.1859
     16 C11        22.6310   34.3120   10.8690 C.ar      1 TF5        -0.0635
     17 C6         22.1640   35.5130   11.3960 C.ar      1 TF5         0.0075
     18 C1         24.2500   36.9190   11.2730 C.ar      1 TF5        -0.0637
     19 O20        17.9530   39.0810    9.5580 O.2       1 TF5        -0.3720
     20 H1         22.3263   32.1814   10.7128 H         1 TF5         0.0559
     21 H2         18.0816   37.0585    9.8748 H         1 TF5         0.1378
     22 H3         20.2102   39.3274    9.3296 H         1 TF5         0.0851
     23 H4         20.2661   37.8012    8.3839 H         1 TF5         0.0851
     24 H5         24.6036   40.0890   10.1349 H         1 TF5         0.0583
     25 H6         22.1719   39.8407    9.7963 H         1 TF5         0.0539
     26 H7         25.9356   38.2337   11.0611 H         1 TF5         0.0523
     27 H8         23.5254   34.3055   10.2566 H         1 TF5         0.0556
     28 H9         24.8302   36.1025   11.6875 H         1 TF5         0.0584
@<TRIPOS>BOND
     1   14    1 ar 
     2    1   16 ar 
     3    3    2 1  
     4    2   19 2  
     5   10    3 1  
     6    5    4 ar 
     7    4   12 1  
     8    4   14 ar 
     9    5   13 1  
    10   17    5 ar 
    11    7    6 ar 
    12    6   11 ar 
    13    8    7 ar 
    14    9    8 ar 
    15    8   10 1  
    16    9   17 1  
    17    9   18 ar 
    18   11   18 ar 
    19   14   15 1  
    20   16   17 ar 
    21    1   20 1  
    22    2   21 1  
    23    3   22 1  
    24    3   23 1  
    25    6   24 1  
    26    7   25 1  
    27   11   26 1  
    28   16   27 1  
    29   18   28 1  
@<TRIPOS>SUBSTRUCTURE
     1 TF5         1

