### 
### Created by X-TOOL on Mon Sep 10 21:12:55 2018
### 

@<TRIPOS>MOLECULE
2op9_ligand
   55    56     1     0     0
SMALL
GAST_HUCK


@<TRIPOS>ATOM
      1 O4         -6.5520   28.5150   71.1060 O.2       1 WR1        -0.3773
      2 C15        -6.5250   27.8900   72.1570 C.2       1 WR1         0.3240
      3 O5         -6.2310   26.4680   72.1340 O.3       1 WR1        -0.2505
      4 C16        -5.5160   25.8180   71.0780 C.3       1 WR1         0.1113
      5 C17        -4.1610   26.4210   70.7410 C.ar      1 WR1        -0.0130
      6 C18        -3.4620   25.9000   69.6440 C.ar      1 WR1        -0.0578
      7 C19        -2.2190   26.4200   69.2890 C.ar      1 WR1        -0.0685
      8 C20        -1.6640   27.4620   70.0320 C.ar      1 WR1        -0.0687
      9 C21        -2.3460   27.9720   71.1330 C.ar      1 WR1        -0.0685
     10 C22        -3.5920   27.4590   71.4880 C.ar      1 WR1        -0.0578
     11 N2         -6.6950   28.3820   73.3840 N.am      1 WR1        -0.2393
     12 C7         -6.9660   29.7610   73.7370 C.3       1 WR1         0.1423
     13 C8         -8.1050   29.7830   74.7610 C.3       1 WR1         0.0214
     14 C9         -9.3070   29.0590   74.1810 C.ar      1 WR1        -0.0386
     15 C10        -9.4620   27.6780   74.3360 C.ar      1 WR1        -0.0601
     16 C11       -10.5700   27.0350   73.7840 C.ar      1 WR1        -0.0686
     17 C12       -11.5180   27.7770   73.0800 C.ar      1 WR1        -0.0687
     18 C13       -11.3540   29.1540   72.9310 C.ar      1 WR1        -0.0686
     19 C14       -10.2570   29.7940   73.4820 C.ar      1 WR1        -0.0601
     20 C6         -5.7340   30.4410   74.3020 C.2       1 WR1         0.2059
     21 O3         -4.6870   29.8150   74.4860 O.2       1 WR1        -0.3942
     22 N1         -5.8250   31.7550   74.5470 N.am      1 WR1        -0.2650
     23 C4         -4.6800   32.5560   74.9540 C.3       1 WR1         0.1122
     24 C5         -5.1140   33.7280   75.8440 C.3       1 WR1        -0.0255
     25 C3         -3.8920   33.0250   73.7460 C.2       1 WR1         0.1321
     26 O2         -3.2570   34.0880   73.8110 O.2       1 WR1        -0.3891
     27 C2         -3.8880   32.1160   72.5040 C.3       1 WR1         0.0466
     28 C1         -3.0880   32.6100   71.2980 C.3       1 WR1         0.0599
     29 O1         -2.5760   31.4720   70.6260 O.3       1 WR1        -0.3926
     30 H1         -6.1392   25.8561   70.1724 H         1 WR1         0.0776
     31 H2         -5.3577   24.7695   71.3704 H         1 WR1         0.0776
     32 H3         -3.8907   25.0877   69.0682 H         1 WR1         0.0557
     33 H4         -1.6843   26.0156   68.4371 H         1 WR1         0.0599
     34 H5         -0.7015   27.8746   69.7519 H         1 WR1         0.0559
     35 H6         -1.9057   28.7721   71.7171 H         1 WR1         0.0599
     36 H7         -4.1209   27.8640   72.3431 H         1 WR1         0.0557
     37 H8         -6.6286   27.7312   74.1403 H         1 WR1         0.1901
     38 H9         -7.2822   30.3046   72.8345 H         1 WR1         0.0823
     39 H10        -8.3764   30.8245   74.9881 H         1 WR1         0.0474
     40 H11        -7.7811   29.2790   75.6835 H         1 WR1         0.0474
     41 H12        -8.7215   27.1074   74.8848 H         1 WR1         0.0557
     42 H13       -10.6935   25.9645   73.9016 H         1 WR1         0.0599
     43 H14       -12.3817   27.2839   72.6489 H         1 WR1         0.0559
     44 H15       -12.0907   29.7272   72.3798 H         1 WR1         0.0599
     45 H16       -10.1394   30.8656   73.3685 H         1 WR1         0.0557
     46 H17        -6.7136   32.2025   74.4464 H         1 WR1         0.1884
     47 H18        -4.0179   31.9133   75.5528 H         1 WR1         0.0788
     48 H19        -4.2299   34.3141   76.1353 H         1 WR1         0.0277
     49 H20        -5.6099   33.3396   76.7458 H         1 WR1         0.0277
     50 H21        -5.8133   34.3706   75.2890 H         1 WR1         0.0277
     51 H22        -4.9317   31.9861   72.1818 H         1 WR1         0.0517
     52 H23        -3.4729   31.1425   72.8040 H         1 WR1         0.0517
     53 H24        -2.2596   33.2506   71.6347 H         1 WR1         0.0583
     54 H25        -3.7421   33.1811   70.6228 H         1 WR1         0.0583
     55 H26        -3.2968   30.9222   70.3424 H         1 WR1         0.2096
@<TRIPOS>BOND
     1    1    2 2  
     2    2    3 1  
     3    2   11 am 
     4    3    4 1  
     5    4    5 1  
     6    5    6 ar 
     7    5   10 ar 
     8    6    7 ar 
     9    7    8 ar 
    10    8    9 ar 
    11    9   10 ar 
    12   11   12 1  
    13   12   13 1  
    14   12   20 1  
    15   13   14 1  
    16   14   15 ar 
    17   14   19 ar 
    18   15   16 ar 
    19   16   17 ar 
    20   17   18 ar 
    21   18   19 ar 
    22   20   21 2  
    23   20   22 am 
    24   22   23 1  
    25   23   24 1  
    26   23   25 1  
    27   25   26 2  
    28   25   27 1  
    29   27   28 1  
    30   28   29 1  
    31    4   30 1  
    32    4   31 1  
    33    6   32 1  
    34    7   33 1  
    35    8   34 1  
    36    9   35 1  
    37   10   36 1  
    38   11   37 1  
    39   12   38 1  
    40   13   39 1  
    41   13   40 1  
    42   15   41 1  
    43   16   42 1  
    44   17   43 1  
    45   18   44 1  
    46   19   45 1  
    47   22   46 1  
    48   23   47 1  
    49   24   48 1  
    50   24   49 1  
    51   24   50 1  
    52   27   51 1  
    53   27   52 1  
    54   28   53 1  
    55   28   54 1  
    56   29   55 1  
@<TRIPOS>SUBSTRUCTURE
     1 WR1         1

