### 
### Created by X-TOOL on Mon Sep 10 21:12:56 2018
### 

@<TRIPOS>MOLECULE
2opb_ligand
   41    43     1     0     0
SMALL
GAST_HUCK


@<TRIPOS>ATOM
      1 C12        26.1240   45.4710   13.5220 C.3       1 F21         0.0386
      2 C13        25.3300   46.0950   12.3720 C.3       1 F21         0.0108
      3 S2         26.5360   46.6830   11.1310 S.3       1 F21        -0.1576
      4 C15        27.6510   45.2680   10.8300 C.3       1 F21         0.0108
      5 C14        28.1120   44.7800   12.2060 C.3       1 F21         0.0386
      6 N1         26.9510   44.3630   13.0090 N.am      1 F21        -0.2333
      7 S1         27.4900   43.4300   14.2320 S.o2      1 F21         0.0660
      8 O2         26.3720   42.6830   14.7110 O.2       1 F21        -0.1511
      9 O1         28.5060   42.4870   13.6580 O.2       1 F21        -0.1511
     10 C7         28.2470   44.2400   15.5870 C.ar      1 F21         0.0950
     11 C8         28.5710   43.4640   16.6900 C.ar      1 F21        -0.0353
     12 C9         29.1760   44.0360   17.8140 C.ar      1 F21         0.0053
     13 C1         29.4910   43.1460   19.0230 C.3       1 F21        -0.0016
     14 N2         30.3820   43.8280   19.9750 N.4       1 F21         0.2434
     15 C3         29.8580   45.1650   20.2800 C.3       1 F21         0.0159
     16 C11        30.5810   45.7710   21.4870 C.3       1 F21         0.1343
     17 F1         30.1910   45.1340   22.6550 F         1 F21        -0.2430
     18 C4         30.0610   46.0630   19.0540 C.3       1 F21         0.0242
     19 C10        29.4530   45.3920   17.8240 C.ar      1 F21        -0.0305
     20 C5         29.1330   46.1760   16.7000 C.ar      1 F21        -0.0646
     21 C6         28.5330   45.6070   15.5910 C.ar      1 F21        -0.0489
     22 H1         25.4273   45.0864   14.2814 H         1 F21         0.0486
     23 H2         26.7745   46.2342   13.9741 H         1 F21         0.0486
     24 H3         24.7309   46.9394   12.7435 H         1 F21         0.0392
     25 H4         24.6648   45.3429   11.9228 H         1 F21         0.0392
     26 H5         28.5162   45.5864   10.2299 H         1 F21         0.0392
     27 H6         27.1139   44.4660   10.3024 H         1 F21         0.0392
     28 H7         28.6386   45.5952   12.7237 H         1 F21         0.0486
     29 H8         28.7930   43.9254   12.0798 H         1 F21         0.0486
     30 H9         28.3529   42.4022   16.6809 H         1 F21         0.0558
     31 H10        29.9801   42.2254   18.6718 H         1 F21         0.0964
     32 H11        28.5508   42.8900   19.5334 H         1 F21         0.0964
     33 H12        31.3011   43.9137   19.5701 H         1 F21         0.2032
     34 H13        30.4382   43.2892   20.8250 H         1 F21         0.2032
     35 H14        28.7840   45.0902   20.5056 H         1 F21         0.0898
     36 H15        30.3339   46.8405   21.5579 H         1 F21         0.0674
     37 H16        31.6667   45.6534   21.3555 H         1 F21         0.0674
     38 H17        31.1370   46.2221   18.8903 H         1 F21         0.0467
     39 H18        29.5687   47.0319   19.2238 H         1 F21         0.0467
     40 H19        29.3589   47.2362   16.7033 H         1 F21         0.0538
     41 H20        28.2864   46.2183   14.7305 H         1 F21         0.0561
@<TRIPOS>BOND
     1    1    2 1  
     2    1    6 1  
     3    2    3 1  
     4    3    4 1  
     5    4    5 1  
     6    5    6 1  
     7    6    7 am 
     8    7    8 2  
     9    7    9 2  
    10    7   10 1  
    11   10   11 ar 
    12   10   21 ar 
    13   11   12 ar 
    14   12   13 1  
    15   12   19 ar 
    16   13   14 1  
    17   14   15 1  
    18   15   16 1  
    19   15   18 1  
    20   16   17 1  
    21   18   19 1  
    22   19   20 ar 
    23   20   21 ar 
    24    1   22 1  
    25    1   23 1  
    26    2   24 1  
    27    2   25 1  
    28    4   26 1  
    29    4   27 1  
    30    5   28 1  
    31    5   29 1  
    32   11   30 1  
    33   13   31 1  
    34   13   32 1  
    35   14   33 1  
    36   14   34 1  
    37   15   35 1  
    38   16   36 1  
    39   16   37 1  
    40   18   38 1  
    41   18   39 1  
    42   20   40 1  
    43   21   41 1  
@<TRIPOS>SUBSTRUCTURE
     1 F21         1

