### 
### Created by X-TOOL on Mon Sep 10 21:12:55 2018
### 

@<TRIPOS>MOLECULE
2oph_ligand
   54    55     1     0     0
SMALL
GAST_HUCK


@<TRIPOS>ATOM
      1 C1         42.7890   50.9110   34.5470 C.3       1 277        -0.0294
      2 C2         41.4150   50.6190   35.1490 C.3       1 277        -0.0475
      3 C3         40.7520   51.9110   35.7040 C.3       1 277        -0.0310
      4 C4         41.6920   52.5720   36.7740 C.3       1 277        -0.0475
      5 C5         43.0960   52.8750   36.2100 C.3       1 277        -0.0294
      6 C6         43.7090   51.5860   35.5910 C.3       1 277         0.0447
      7 C15        39.3560   51.6220   36.3190 C.3       1 277         0.0195
      8 C17        38.2950   51.2190   35.2310 C.3       1 277         0.0679
      9 C18        36.8530   51.2360   35.8390 C.2       1 277         0.2273
     10 N19        36.1070   50.1110   35.7850 N.am      1 277        -0.2658
     11 N20        45.0680   51.8810   35.0470 N.am      1 277        -0.2735
     12 C22        46.2700   51.5900   35.6500 C.2       1 277         0.1753
     13 C23        45.2000   52.5530   33.7250 C.3       1 277         0.0228
     14 C27        46.2940   50.9030   37.0350 C.3       1 277         0.0258
     15 O31        47.3470   51.8590   35.1240 O.2       1 277        -0.3972
     16 O32        36.4380   52.2310   36.3990 O.2       1 277        -0.3907
     17 N33        38.3100   51.9710   34.4040 N.4       1 277         0.2381
     18 C35        39.4230   50.5090   37.4130 C.3       1 277        -0.0548
     19 C42        36.6560   48.8210   35.4280 C.3       1 277         0.0652
     20 C43        35.5230   47.8450   35.5320 C.3       1 277         0.1230
     21 C44        34.2880   48.7140   35.4090 C.3       1 277         0.0007
     22 C45        34.6560   50.0280   36.0920 C.3       1 277         0.0368
     23 F52        35.5580   47.2850   36.8100 F         1 277        -0.2433
     24 H1         42.6700   51.5814   33.6831 H         1 277         0.0288
     25 H2         43.2475   49.9668   34.2181 H         1 277         0.0288
     26 H3         41.5303   49.8953   35.9693 H         1 277         0.0269
     27 H4         40.7669   50.1905   34.3703 H         1 277         0.0269
     28 H5         40.6200   52.6164   34.8704 H         1 277         0.0307
     29 H6         41.7939   51.8860   37.6278 H         1 277         0.0269
     30 H7         41.2357   53.5138   37.1127 H         1 277         0.0269
     31 H8         43.7454   53.2337   37.0221 H         1 277         0.0288
     32 H9         43.0174   53.6503   35.4337 H         1 277         0.0288
     33 H10        43.8360   50.8634   36.4106 H         1 277         0.0558
     34 H11        39.0106   52.5493   36.7994 H         1 277         0.0381
     35 H12        38.5284   50.2174   34.8407 H         1 277         0.1101
     36 H13        46.2654   52.6885   33.4874 H         1 277         0.0486
     37 H14        44.7048   53.5345   33.7615 H         1 277         0.0486
     38 H15        44.7274   51.9324   32.9494 H         1 277         0.0486
     39 H16        47.3366   50.7529   37.3518 H         1 277         0.0467
     40 H17        45.7867   49.9291   36.9701 H         1 277         0.0467
     41 H18        45.7758   51.5382   37.7684 H         1 277         0.0467
     42 H19        37.6305   51.7151   33.7048 H         1 277         0.2015
     43 H20        39.2278   51.9945   33.9878 H         1 277         0.2015
     44 H21        38.0852   52.8814   34.7736 H         1 277         0.2015
     45 H22        40.1648   50.7886   38.1756 H         1 277         0.0236
     46 H23        39.7159   49.5557   36.9488 H         1 277         0.0236
     47 H24        38.4356   50.3989   37.8851 H         1 277         0.0236
     48 H25        37.4634   48.5442   36.1219 H         1 277         0.0551
     49 H26        37.0474   48.8436   34.4003 H         1 277         0.0551
     50 H27        35.5644   47.0692   34.7533 H         1 277         0.0672
     51 H28        33.4323   48.2426   35.9145 H         1 277         0.0313
     52 H29        34.0401   48.8851   34.3510 H         1 277         0.0313
     53 H30        34.1029   50.8757   35.6613 H         1 277         0.0523
     54 H31        34.4744   49.9844   37.1760 H         1 277         0.0523
@<TRIPOS>BOND
     1    1    2 1  
     2    1    6 1  
     3    2    3 1  
     4    3    4 1  
     5    3    7 1  
     6    4    5 1  
     7    5    6 1  
     8    6   11 1  
     9    7    8 1  
    10    7   18 1  
    11    8    9 1  
    12    8   17 1  
    13    9   10 am 
    14    9   16 2  
    15   10   19 1  
    16   10   22 1  
    17   11   12 am 
    18   11   13 1  
    19   12   14 1  
    20   12   15 2  
    21   19   20 1  
    22   20   21 1  
    23   20   23 1  
    24   21   22 1  
    25    1   24 1  
    26    1   25 1  
    27    2   26 1  
    28    2   27 1  
    29    3   28 1  
    30    4   29 1  
    31    4   30 1  
    32    5   31 1  
    33    5   32 1  
    34    6   33 1  
    35    7   34 1  
    36    8   35 1  
    37   13   36 1  
    38   13   37 1  
    39   13   38 1  
    40   14   39 1  
    41   14   40 1  
    42   14   41 1  
    43   17   42 1  
    44   17   43 1  
    45   17   44 1  
    46   18   45 1  
    47   18   46 1  
    48   18   47 1  
    49   19   48 1  
    50   19   49 1  
    51   20   50 1  
    52   21   51 1  
    53   21   52 1  
    54   22   53 1  
    55   22   54 1  
@<TRIPOS>SUBSTRUCTURE
     1 277         1

