### 
### Created by X-TOOL on Mon Sep 10 21:12:56 2018
### 

@<TRIPOS>MOLECULE
2opy_ligand
   57    60     1     0     0
SMALL
GAST_HUCK


@<TRIPOS>ATOM
      1 C1        -16.0130  -21.6030   -0.5070 C.3       1 CO9        -0.0036
      2 N1        -15.8870  -19.2000    0.0770 N.4       1 CO9         0.2395
      3 O1        -13.4710  -19.8500   -5.5660 O.2       1 CO9        -0.3963
      4 C2        -15.3910  -20.2460   -0.8210 C.3       1 CO9         0.0620
      5 N2        -14.8290  -19.9790   -3.1910 N.2       1 CO9        -0.2960
      6 O2        -13.6600  -17.0960   -7.4970 O.2       1 CO9        -0.3944
      7 C3        -15.6800  -19.8770   -2.2450 C.2       1 CO9         0.2308
      8 N3        -15.2030  -19.3050   -6.8670 N.am      1 CO9        -0.2546
      9 O3        -11.5850  -16.3600  -11.2160 O.co2     1 CO9        -0.5665
     10 C4        -15.3870  -19.5710   -4.3420 C.2       1 CO9         0.0959
     11 N4        -12.1310  -18.4170   -8.4490 N.am      1 CO9        -0.2684
     12 O4        -11.8710  -18.5660  -11.2190 O.co2     1 CO9        -0.5665
     13 C5        -14.6560  -19.5700   -5.6260 C.2       1 CO9         0.1975
     14 N5         -8.2050  -20.5510  -10.3910 N.pl3     1 CO9        -0.2891
     15 O5        -16.8310  -19.3990   -2.7340 O.3       1 CO9        -0.2163
     16 C6        -16.6210  -19.0390   -7.2240 C.3       1 CO9         0.0358
     17 C7        -16.7400  -19.4340   -8.7130 C.3       1 CO9        -0.0283
     18 C8        -15.3830  -18.9390   -9.2710 C.3       1 CO9        -0.0105
     19 C9        -14.4180  -19.2460   -8.1150 C.3       1 CO9         0.1327
     20 C10       -13.3780  -18.1660   -8.0110 C.2       1 CO9         0.2035
     21 C11       -11.3170  -17.3860   -9.0940 C.3       1 CO9         0.0986
     22 C12        -9.8060  -17.6140   -8.7860 C.3       1 CO9        -0.0013
     23 C13        -9.2850  -18.9840   -9.2280 C.2       1 CO9        -0.0424
     24 C14        -8.4750  -19.2130  -10.2800 C.2       1 CO9         0.0166
     25 C15        -8.8410  -21.2490   -9.3960 C.ar      1 CO9         0.0603
     26 C16        -8.8990  -22.6230   -9.0570 C.ar      1 CO9        -0.0443
     27 C17        -9.6530  -23.0390   -7.9540 C.ar      1 CO9        -0.0768
     28 C18       -10.3600  -22.0940   -7.1740 C.ar      1 CO9        -0.0792
     29 C19       -10.3150  -20.7400   -7.4940 C.ar      1 CO9        -0.0747
     30 C20        -9.5560  -20.2970   -8.6090 C.ar      1 CO9        -0.0214
     31 C21       -11.5980  -17.3970  -10.5920 C.2       1 CO9         0.0613
     32 C22       -16.6630  -19.2010   -4.0500 C.2       1 CO9         0.1201
     33 H1        -15.6155  -22.3580   -1.2013 H         1 CO9         0.0314
     34 H2        -17.1054  -21.5405   -0.6195 H         1 CO9         0.0314
     35 H3        -15.7665  -21.8891    0.5261 H         1 CO9         0.0314
     36 H4        -15.4550  -18.3208   -0.1604 H         1 CO9         0.2017
     37 H5        -15.6601  -19.4395    1.0295 H         1 CO9         0.2017
     38 H6        -16.8871  -19.1200   -0.0203 H         1 CO9         0.2017
     39 H7        -14.3016  -20.3254   -0.6907 H         1 CO9         0.1112
     40 H8        -11.7496  -19.3338   -8.3305 H         1 CO9         0.1876
     41 H9         -7.6095  -20.9729  -11.1178 H         1 CO9         0.2216
     42 H10       -16.8611  -17.9744   -7.0862 H         1 CO9         0.0523
     43 H11       -17.2961  -19.6501   -6.6069 H         1 CO9         0.0523
     44 H12       -17.5847  -18.9232   -9.1983 H         1 CO9         0.0287
     45 H13       -16.8513  -20.5218   -8.8329 H         1 CO9         0.0287
     46 H14       -15.4120  -17.8613   -9.4894 H         1 CO9         0.0313
     47 H15       -15.1021  -19.4901  -10.1806 H         1 CO9         0.0313
     48 H16       -13.9240  -20.2130   -8.2904 H         1 CO9         0.0801
     49 H17       -11.6057  -16.4037   -8.6919 H         1 CO9         0.0741
     50 H18        -9.6552  -17.5194   -7.7005 H         1 CO9         0.0390
     51 H19        -9.2251  -16.8379   -9.3059 H         1 CO9         0.0390
     52 H20        -8.0897  -18.4434  -10.9473 H         1 CO9         0.0795
     53 H21        -8.3598  -23.3517   -9.6515 H         1 CO9         0.0541
     54 H22        -9.6956  -24.0910   -7.6959 H         1 CO9         0.0530
     55 H23       -10.9408  -22.4266   -6.3213 H         1 CO9         0.0510
     56 H24       -10.8602  -20.0229   -6.8910 H         1 CO9         0.0540
     57 H25       -17.4047  -18.8181   -4.7494 H         1 CO9         0.1078
@<TRIPOS>BOND
     1    4    1 1  
     2    4    2 1  
     3   13    3 2  
     4    7    4 1  
     5    5    7 2  
     6   10    5 1  
     7   20    6 2  
     8   15    7 1  
     9    8   13 am 
    10    8   16 1  
    11   19    8 1  
    12   31    9 ar 
    13   13   10 1  
    14   10   32 2  
    15   11   20 am 
    16   21   11 1  
    17   31   12 ar 
    18   24   14 1  
    19   14   25 1  
    20   32   15 1  
    21   17   16 1  
    22   18   17 1  
    23   19   18 1  
    24   20   19 1  
    25   22   21 1  
    26   21   31 1  
    27   23   22 1  
    28   23   24 2  
    29   23   30 1  
    30   25   26 ar 
    31   25   30 ar 
    32   26   27 ar 
    33   27   28 ar 
    34   28   29 ar 
    35   29   30 ar 
    36    1   33 1  
    37    1   34 1  
    38    1   35 1  
    39    2   36 1  
    40    2   37 1  
    41    2   38 1  
    42    4   39 1  
    43   11   40 1  
    44   14   41 1  
    45   16   42 1  
    46   16   43 1  
    47   17   44 1  
    48   17   45 1  
    49   18   46 1  
    50   18   47 1  
    51   19   48 1  
    52   21   49 1  
    53   22   50 1  
    54   22   51 1  
    55   24   52 1  
    56   26   53 1  
    57   27   54 1  
    58   28   55 1  
    59   29   56 1  
    60   32   57 1  
@<TRIPOS>SUBSTRUCTURE
     1 CO9         1

