### 
### Created by X-TOOL on Mon Sep 10 21:12:55 2018
### 

@<TRIPOS>MOLECULE
2oq6_ligand
   13    12     1     0     0
SMALL
GAST_HUCK


@<TRIPOS>ATOM
      1 C1        -29.1670  -21.2260  -23.6550 C.2       1 OGA         0.1433
      2 C2        -27.8010  -21.6540  -23.1310 C.2       1 OGA         0.2452
      3 C4        -25.4040  -22.0740  -23.4840 C.3       1 OGA         0.0841
      4 C5        -24.3420  -22.0250  -24.5990 C.2       1 OGA         0.0572
      5 O1        -29.2040  -20.9130  -24.8580 O.co2     1 OGA        -0.5457
      6 O2        -30.1300  -21.1970  -22.8020 O.co2     1 OGA        -0.5457
      7 O2'       -27.7900  -21.9630  -21.9460 O.2       1 OGA        -0.3655
      8 O3        -23.1620  -21.9840  -24.2120 O.co2     1 OGA        -0.5669
      9 N1        -26.7420  -21.6810  -23.9370 N.am      1 OGA        -0.2659
     10 O4        -24.7070  -22.0800  -25.7910 O.co2     1 OGA        -0.5669
     11 H1        -25.0948  -21.3927  -22.6776 H         1 OGA         0.0691
     12 H2        -25.4552  -23.1020  -23.0960 H         1 OGA         0.0691
     13 H3        -26.8645  -21.4215  -24.8949 H         1 OGA         0.1886
@<TRIPOS>BOND
     1    2    1 1  
     2    1    5 ar 
     3    1    6 ar 
     4    2    7 2  
     5    9    2 am 
     6    3    4 1  
     7    3    9 1  
     8    4    8 ar 
     9    4   10 ar 
    10    3   11 1  
    11    3   12 1  
    12    9   13 1  
@<TRIPOS>SUBSTRUCTURE
     1 OGA         1

