### 
### Created by X-TOOL on Mon Sep 10 21:12:56 2018
### 

@<TRIPOS>MOLECULE
2oqi_ligand
   48    51     1     0     0
SMALL
GAST_HUCK


@<TRIPOS>ATOM
      1 C5         36.0190    4.9470   63.8040 C.3       1 GGO         0.0420
      2 C6         36.7930    3.7360   63.1500 C.3       1 GGO        -0.0062
      3 C7         38.2660    3.5840   63.6100 C.ar      1 GGO        -0.0607
      4 C8         38.6440    2.7550   64.7590 C.ar      1 GGO        -0.0800
      5 C10        40.9510    3.3700   64.3700 C.ar      1 GGO         0.1160
      6 C15        39.2530    4.2700   62.9180 C.ar      1 GGO        -0.0396
      7 C20        30.4630    6.3970   62.5960 C.ar      1 GGO        -0.0042
      8 C21        30.2460    7.6920   63.1090 C.ar      1 GGO        -0.0294
      9 C22        28.9460    8.1770   63.1790 C.ar      1 GGO         0.1544
     10 C24        27.8480    7.4260   62.7390 C.ar      1 GGO         0.1560
     11 C26        28.0050    6.1380   62.2260 C.ar      1 GGO        -0.0030
     12 N          31.1100    4.1880   64.1890 N.4       1 GGO         0.2238
     13 C          32.1800    5.0560   63.8270 C.3       1 GGO         0.0098
     14 C3         33.5170    4.3210   63.7240 C.3       1 GGO         0.0788
     15 N4         34.6320    5.1740   63.2450 N.am      1 GGO        -0.2658
     16 C9         39.9980    2.6420   65.1280 C.ar      1 GGO        -0.0478
     17 O          42.2860    3.3800   64.5610 O.3       1 GGO        -0.2956
     18 C12        42.7350    4.2780   63.5300 C.3       1 GGO         0.1854
     19 O13        41.6550    4.7680   62.7430 O.3       1 GGO        -0.2927
     20 C14        40.5830    4.1490   63.3080 C.ar      1 GGO         0.1170
     21 C16        34.4480    6.1560   62.2600 C.2       1 GGO         0.1810
     22 O17        35.3270    6.5710   61.5370 O.2       1 GGO        -0.3967
     23 C18        32.9980    6.7410   62.0970 C.3       1 GGO         0.0540
     24 C19        31.8550    5.7840   62.5080 C.3       1 GGO         0.0523
     25 F          28.7790    9.3890   63.6880 F         1 GGO        -0.1895
     26 F25        26.6130    7.8980   62.8320 F         1 GGO        -0.1911
     27 C27        29.3160    5.6470   62.1760 C.ar      1 GGO         0.1278
     28 F28        29.4760    4.4030   61.6940 F         1 GGO        -0.1934
     29 H1         36.6094    5.8609   63.6422 H         1 GGO         0.0543
     30 H2         35.9282    4.7553   64.8833 H         1 GGO         0.0543
     31 H3         36.7875    3.8750   62.0588 H         1 GGO         0.0423
     32 H4         36.2574    2.8095   63.4044 H         1 GGO         0.0423
     33 H5         37.8820    2.2299   65.3235 H         1 GGO         0.0436
     34 H6         38.9888    4.8988   62.0755 H         1 GGO         0.0450
     35 H7         31.0795    8.2992   63.4432 H         1 GGO         0.0523
     36 H8         27.1601    5.5504   61.8854 H         1 GGO         0.0562
     37 H9         31.3353    3.7188   65.0522 H         1 GGO         0.1999
     38 H10        30.9710    3.5044   63.4614 H         1 GGO         0.1999
     39 H11        30.2665    4.7266   64.3096 H         1 GGO         0.1999
     40 H12        32.2775    5.8138   64.6183 H         1 GGO         0.0896
     41 H13        33.3980    3.4803   63.0247 H         1 GGO         0.0580
     42 H14        33.7786    3.9350   64.7203 H         1 GGO         0.0580
     43 H15        40.3018    2.0203   65.9624 H         1 GGO         0.0493
     44 H16        43.4381    3.7432   62.8745 H         1 GGO         0.0970
     45 H17        43.2475    5.1304   63.9998 H         1 GGO         0.0970
     46 H18        32.8551    7.0082   61.0396 H         1 GGO         0.0528
     47 H19        32.9240    7.6464   62.7173 H         1 GGO         0.0528
     48 H20        31.8047    5.0196   61.7187 H         1 GGO         0.0526
@<TRIPOS>BOND
     1    1    2 1  
     2   15    1 1  
     3    2    3 1  
     4    3    4 ar 
     5    3    6 ar 
     6    4   16 ar 
     7   16    5 ar 
     8    5   17 1  
     9   20    5 ar 
    10    6   20 ar 
    11    7    8 ar 
    12   24    7 1  
    13    7   27 ar 
    14    8    9 ar 
    15    9   10 ar 
    16    9   25 1  
    17   11   10 ar 
    18   10   26 1  
    19   27   11 ar 
    20   13   12 1  
    21   14   13 1  
    22   13   24 1  
    23   14   15 1  
    24   15   21 am 
    25   17   18 1  
    26   18   19 1  
    27   19   20 1  
    28   21   22 2  
    29   21   23 1  
    30   23   24 1  
    31   27   28 1  
    32    1   29 1  
    33    1   30 1  
    34    2   31 1  
    35    2   32 1  
    36    4   33 1  
    37    6   34 1  
    38    8   35 1  
    39   11   36 1  
    40   12   37 1  
    41   12   38 1  
    42   12   39 1  
    43   13   40 1  
    44   14   41 1  
    45   14   42 1  
    46   16   43 1  
    47   18   44 1  
    48   18   45 1  
    49   23   46 1  
    50   23   47 1  
    51   24   48 1  
@<TRIPOS>SUBSTRUCTURE
     1 GGO         1

