### 
### Created by X-TOOL on Mon Sep 10 21:12:56 2018
### 

@<TRIPOS>MOLECULE
2oqv_ligand
   54    57     1     0     0
SMALL
GAST_HUCK


@<TRIPOS>ATOM
      1 C5         12.5690   57.4790   17.5540 C.ar      1 MA9         0.0918
      2 C6         11.4670   57.7700   18.3790 C.ar      1 MA9        -0.0338
      3 C7         11.4500   57.3370   19.7170 C.ar      1 MA9        -0.0559
      4 C8         12.5340   56.6130   20.2430 C.ar      1 MA9        -0.0484
      5 C10        14.8090   55.5780   19.7760 C.ar      1 MA9         0.0539
      6 C15        17.9610   52.7550   23.7730 C.3       1 MA9        -0.0156
      7 C17        18.0880   52.9420   26.2240 C.ar      1 MA9        -0.0064
      8 C21        18.7540   51.6110   28.5400 C.ar      1 MA9         0.1560
      9 C24        18.8120   53.6040   27.1950 C.ar      1 MA9         0.1277
     10 C26        16.3830   54.2760   24.9170 C.3       1 MA9         0.0079
     11 C28        16.3720   55.2100   23.7150 C.3       1 MA9         0.0767
     12 F25        19.1690   54.8820   26.9980 F         1 MA9        -0.1934
     13 C23        19.1460   52.9380   28.3750 C.ar      1 MA9        -0.0030
     14 F22        19.0530   50.9540   29.6600 F         1 MA9        -0.1911
     15 C19        18.0500   50.9510   27.5590 C.ar      1 MA9         0.1544
     16 F          17.6860   49.6740   27.7350 F         1 MA9        -0.1895
     17 C18        17.7110   51.6120   26.3960 C.ar      1 MA9        -0.0295
     18 C16        17.7720   53.6660   24.9780 C.3       1 MA9         0.0374
     19 C14        18.1300   53.6560   22.5790 C.3       1 MA9         0.0344
     20 N27        16.0770   54.9990   26.1310 N.4       1 MA9         0.2237
     21 N          16.9490   54.5150   22.5490 N.pl3     1 MA9        -0.2817
     22 C12        16.4010   54.6950   21.2820 C.ar      1 MA9         0.1300
     23 C11        15.2530   55.4690   21.0830 C.ar      1 MA9         0.0128
     24 N29        17.0250   54.0970   20.2190 N.ar      1 MA9        -0.2536
     25 C30        16.5550   54.2230   18.9620 C.ar      1 MA9         0.0696
     26 N31        15.4550   54.9600   18.7490 N.ar      1 MA9        -0.2793
     27 C9         13.6190   56.3440   19.4030 C.ar      1 MA9         0.0048
     28 C32        13.6290   56.7660   18.0840 C.ar      1 MA9        -0.0236
     29 S          12.7010   57.9180   16.0130 S.o2      1 MA9        -0.0052
     30 O          13.7310   58.9330   15.8900 O.2       1 MA9        -0.1696
     31 O4         11.4230   58.4190   15.5510 O.2       1 MA9        -0.1696
     32 C          13.1240   56.5650   15.1150 C.3       1 MA9         0.0596
     33 H1         10.6281   58.3300   17.9819 H         1 MA9         0.0662
     34 H2         10.5965   57.5628   20.3459 H         1 MA9         0.0627
     35 H3         12.5289   56.2724   21.2721 H         1 MA9         0.0653
     36 H4         17.0790   52.1110   23.6413 H         1 MA9         0.0310
     37 H5         18.8556   52.1290   23.9064 H         1 MA9         0.0310
     38 H6         15.6349   53.4816   24.7780 H         1 MA9         0.0895
     39 H7         16.9692   56.1057   23.9408 H         1 MA9         0.0583
     40 H8         15.3369   55.5065   23.4901 H         1 MA9         0.0583
     41 H9         19.7033   53.4465   29.1534 H         1 MA9         0.0562
     42 H10        17.1542   51.0989   25.6203 H         1 MA9         0.0523
     43 H11        18.4930   54.4929   24.8983 H         1 MA9         0.0502
     44 H12        18.1919   53.0599   21.6566 H         1 MA9         0.0526
     45 H13        19.0410   54.2633   22.6849 H         1 MA9         0.0526
     46 H14        15.1515   55.3926   26.0634 H         1 MA9         0.1999
     47 H15        16.7485   55.7397   26.2593 H         1 MA9         0.1999
     48 H16        16.1176   54.3689   26.9167 H         1 MA9         0.1999
     49 H17        14.7403   55.9556   21.9049 H         1 MA9         0.0671
     50 H18        17.0589   53.7356   18.1352 H         1 MA9         0.1078
     51 H19        14.4818   56.5336   17.4565 H         1 MA9         0.0672
     52 H20        13.2198   56.8436   14.0552 H         1 MA9         0.0468
     53 H21        12.3456   55.7953   15.2228 H         1 MA9         0.0468
     54 H22        14.0839   56.1692   15.4782 H         1 MA9         0.0468
@<TRIPOS>BOND
     1    2    1 ar 
     2    1   28 ar 
     3    1   29 1  
     4    3    2 ar 
     5    4    3 ar 
     6   27    4 ar 
     7   23    5 ar 
     8    5   26 ar 
     9    5   27 1  
    10    6   18 1  
    11   19    6 1  
    12    7    9 ar 
    13    7   17 ar 
    14   18    7 1  
    15   13    8 ar 
    16    8   14 1  
    17   15    8 ar 
    18    9   12 1  
    19    9   13 ar 
    20   11   10 1  
    21   10   18 1  
    22   10   20 1  
    23   21   11 1  
    24   15   16 1  
    25   17   15 ar 
    26   21   19 1  
    27   22   21 1  
    28   22   23 ar 
    29   22   24 ar 
    30   24   25 ar 
    31   25   26 ar 
    32   27   28 ar 
    33   29   30 2  
    34   29   31 2  
    35   29   32 1  
    36    2   33 1  
    37    3   34 1  
    38    4   35 1  
    39    6   36 1  
    40    6   37 1  
    41   10   38 1  
    42   11   39 1  
    43   11   40 1  
    44   13   41 1  
    45   17   42 1  
    46   18   43 1  
    47   19   44 1  
    48   19   45 1  
    49   20   46 1  
    50   20   47 1  
    51   20   48 1  
    52   23   49 1  
    53   25   50 1  
    54   28   51 1  
    55   32   52 1  
    56   32   53 1  
    57   32   54 1  
@<TRIPOS>SUBSTRUCTURE
     1 MA9         1

