### 
### Created by X-TOOL on Mon Sep 10 21:12:55 2018
### 

@<TRIPOS>MOLECULE
2or4_ligand
   20    20     1     0     0
SMALL
GAST_HUCK


@<TRIPOS>ATOM
      1 C01        16.9240   44.6790   40.8720 C.2       1 QUS         0.0866
      2 C02        15.9250   44.8060   41.9340 C.3       1 QUS         0.0520
      3 C03        14.4980   44.9880   41.5020 C.3       1 QUS         0.1233
      4 C04        13.6090   46.7560   39.9830 C.2       1 QUS         0.3201
      5 C05        14.1960   48.4700   41.1510 C.2       1 QUS         0.3771
      6 NP3        16.3300   45.2530   43.2150 N.4       1 QUS         0.2342
      7 N14        14.6580   46.2750   40.7880 N.am      1 QUS        -0.0915
      8 N15        13.4370   48.0850   40.1350 N.am      1 QUS        -0.1566
      9 O16        17.7780   45.5660   40.9910 O.co2     1 QUS        -0.5642
     10 O17        16.8880   43.8860   39.8720 O.co2     1 QUS        -0.5642
     11 O18        13.0320   45.9570   39.2750 O.2       1 QUS        -0.3935
     12 O19        14.3230   49.5500   41.6820 O.2       1 QUS        -0.3705
     13 O20        15.0390   47.3800   41.6260 O.3       1 QUS        -0.1145
     14 H1         15.8562   43.7378   42.1874 H         1 QUS         0.1046
     15 H2         13.8114   45.0694   42.3575 H         1 QUS         0.0630
     16 H3         14.1590   44.1816   40.8351 H         1 QUS         0.0630
     17 H4         17.3100   45.0563   43.3451 H         1 QUS         0.2011
     18 H5         15.7945   44.7748   43.9226 H         1 QUS         0.2011
     19 H6         16.1739   46.2461   43.2892 H         1 QUS         0.2011
     20 H7         12.8454   48.6722   39.5825 H         1 QUS         0.2278
@<TRIPOS>BOND
     1    1    2 1  
     2    1    9 ar 
     3    1   10 ar 
     4    2    3 1  
     5    2    6 1  
     6    3    7 1  
     7    7    4 am 
     8    4    8 am 
     9    4   11 2  
    10    8    5 am 
    11    5   12 2  
    12    5   13 1  
    13    7   13 1  
    14    2   14 1  
    15    3   15 1  
    16    3   16 1  
    17    6   17 1  
    18    6   18 1  
    19    6   19 1  
    20    8   20 1  
@<TRIPOS>SUBSTRUCTURE
     1 QUS         1

