### 
### Created by X-TOOL on Mon Sep 10 21:12:55 2018
### 

@<TRIPOS>MOLECULE
2os9_ligand
   24    24     1     0     0
SMALL
GAST_HUCK


@<TRIPOS>ATOM
      1 C1         27.6770  -13.6400   11.2180 C.3       1 INS         0.1118
      2 C2         27.6530  -14.7060   10.0560 C.3       1 INS         0.1118
      3 C3         28.6950  -14.3490    8.9630 C.3       1 INS         0.1118
      4 C4         30.0880  -14.0470    9.5230 C.3       1 INS         0.1118
      5 C5         30.0520  -12.9170   10.6150 C.3       1 INS         0.1118
      6 C6         29.1190  -13.3710   11.7880 C.3       1 INS         0.1118
      7 O1         26.8030  -14.0810   12.3460 O.3       1 INS        -0.3865
      8 O2         27.8970  -16.0700   10.4990 O.3       1 INS        -0.3865
      9 O3         28.8190  -15.4510    8.0370 O.3       1 INS        -0.3865
     10 O4         30.9250  -13.7080    8.4080 O.3       1 INS        -0.3865
     11 O5         31.3680  -12.6770   11.1430 O.3       1 INS        -0.3865
     12 O6         29.0640  -12.3490   12.8320 O.3       1 INS        -0.3865
     13 H1         27.2852  -12.6946   10.8148 H         1 INS         0.0647
     14 H2         26.6508  -14.6749    9.6038 H         1 INS         0.0647
     15 H3         28.3357  -13.4601    8.4239 H         1 INS         0.0647
     16 H4         30.4842  -14.9573    9.9967 H         1 INS         0.0647
     17 H5         29.6630  -11.9905   10.1676 H         1 INS         0.0647
     18 H6         29.5151  -14.3007   12.2224 H         1 INS         0.0647
     19 H7         25.9267  -14.2482   12.0195 H         1 INS         0.2100
     20 H8         27.8092  -16.6619    9.7611 H         1 INS         0.2100
     21 H9         27.9650  -15.6571    7.6756 H         1 INS         0.2100
     22 H10        30.9143  -14.4188    7.7778 H         1 INS         0.2100
     23 H11        31.7024  -13.4764   11.5324 H         1 INS         0.2100
     24 H12        29.9375  -12.2004   13.1744 H         1 INS         0.2100
@<TRIPOS>BOND
     1    1    2 1  
     2    1    6 1  
     3    1    7 1  
     4    2    3 1  
     5    2    8 1  
     6    3    4 1  
     7    3    9 1  
     8    4    5 1  
     9    4   10 1  
    10    5    6 1  
    11    5   11 1  
    12    6   12 1  
    13    1   13 1  
    14    2   14 1  
    15    3   15 1  
    16    4   16 1  
    17    5   17 1  
    18    6   18 1  
    19    7   19 1  
    20    8   20 1  
    21    9   21 1  
    22   10   22 1  
    23   11   23 1  
    24   12   24 1  
@<TRIPOS>SUBSTRUCTURE
     1 INS         1

