### 
### Created by X-TOOL on Mon Sep 10 21:12:56 2018
### 

@<TRIPOS>MOLECULE
2osc_ligand
   51    54     1     0     0
SMALL
GAST_HUCK


@<TRIPOS>ATOM
      1 C9         53.3200   -0.3770   71.1290 C.ar      1 MUH         0.0495
      2 C10        53.4820   -0.1600   72.5790 C.ar      1 MUH        -0.0247
      3 C11        53.2700   -1.2700   73.5490 C.ar      1 MUH         0.0524
      4 C12        52.8680   -2.5990   73.0480 C.ar      1 MUH        -0.0361
      5 C13        52.7180   -2.8080   71.5970 C.ar      1 MUH        -0.0822
      6 C14        52.9460   -1.7080   70.6400 C.ar      1 MUH        -0.0589
      7 C15        52.6000   -3.6530   74.0220 C.3       1 MUH        -0.0402
      8 N3         53.4690    0.6270   70.1660 N.am      1 MUH        -0.2388
      9 C8         53.7270    1.9500   70.3340 C.2       1 MUH         0.2376
     10 C16        52.6710    2.6070   68.0590 C.ar      1 MUH        -0.0141
     11 C17        53.7060    2.7160   69.0950 C.ar      1 MUH         0.0849
     12 C18        54.8110    3.6460   68.9570 C.ar      1 MUH        -0.0107
     13 C19        54.9260    4.5270   67.7790 C.ar      1 MUH         0.0540
     14 C20        53.8860    4.4150   66.7290 C.ar      1 MUH        -0.0278
     15 C6         52.7710    3.4570   66.8730 C.ar      1 MUH        -0.0272
     16 C7         56.0880    5.5470   67.7160 C.3       1 MUH         0.3783
     17 F3         56.4190    5.9800   66.5040 F         1 MUH        -0.2197
     18 F1         57.2070    5.0290   68.1820 F         1 MUH        -0.2197
     19 F2         55.7310    6.6020   68.4700 F         1 MUH        -0.2197
     20 N4         53.4930   -1.0900   74.9440 N.pl3     1 MUH        -0.2622
     21 C21        52.8920   -0.7450   77.3580 C.ar      1 MUH         0.0581
     22 C22        51.7720   -0.4130   78.2530 C.ar      1 MUH        -0.0389
     23 C23        50.4000   -0.1300   77.8440 C.ar      1 MUH        -0.0431
     24 C24        50.1420   -0.1910   76.4120 C.ar      1 MUH         0.0004
     25 N5         51.2020   -0.5090   75.5460 N.ar      1 MUH        -0.2762
     26 C5         52.5270   -0.7810   75.9310 C.ar      1 MUH         0.1465
     27 C1         54.6940   -1.0350   79.2310 C.ar      1 MUH        -0.0052
     28 C2         56.0760   -1.2390   79.5000 C.ar      1 MUH         0.0258
     29 N1         56.9980   -1.4290   78.5000 N.ar      1 MUH        -0.2674
     30 C3         56.6870   -1.4410   77.1590 C.ar      1 MUH         0.0850
     31 N2         55.3620   -1.2450   76.8620 N.ar      1 MUH        -0.2617
     32 C4         54.3190   -1.0360   77.8380 C.ar      1 MUH         0.0710
     33 O1         53.9770    2.5240   71.3930 O.2       1 MUH        -0.3731
     34 H1         53.7595    0.8222   72.9441 H         1 MUH         0.0398
     35 H2         52.4353   -3.7866   71.2262 H         1 MUH         0.0490
     36 H3         52.8371   -1.8838   69.5759 H         1 MUH         0.0394
     37 H4         52.7785   -3.2683   75.0370 H         1 MUH         0.0342
     38 H5         53.2666   -4.5069   73.8310 H         1 MUH         0.0342
     39 H6         51.5529   -3.9779   73.9320 H         1 MUH         0.0342
     40 H7         53.3715    0.3273   69.2170 H         1 MUH         0.2229
     41 H8         51.8485    1.9098   68.1711 H         1 MUH         0.0902
     42 H9         55.5659    3.6945   69.7335 H         1 MUH         0.0912
     43 H10        53.9442    5.0422   65.8468 H         1 MUH         0.0883
     44 H11        52.0211    3.3834   66.0937 H         1 MUH         0.0708
     45 H12        54.4641   -1.1964   75.2705 H         1 MUH         0.2131
     46 H13        51.9860   -0.3751   79.3150 H         1 MUH         0.0736
     47 H14        49.6226    0.1103   78.5603 H         1 MUH         0.0612
     48 H15        49.1501    0.0054   76.0212 H         1 MUH         0.0810
     49 H16        53.9685   -0.8881   80.0229 H         1 MUH         0.0766
     50 H17        56.4131   -1.2447   80.5302 H         1 MUH         0.0924
     51 H18        57.4367   -1.5946   76.3913 H         1 MUH         0.1121
@<TRIPOS>BOND
     1    2    1 ar 
     2    1    6 ar 
     3    1    8 1  
     4    3    2 ar 
     5    3    4 ar 
     6   20    3 1  
     7    4    5 ar 
     8    4    7 1  
     9    5    6 ar 
    10    8    9 am 
    11    9   11 1  
    12    9   33 2  
    13   11   10 ar 
    14   10   15 ar 
    15   11   12 ar 
    16   12   13 ar 
    17   13   14 ar 
    18   13   16 1  
    19   15   14 ar 
    20   16   17 1  
    21   16   18 1  
    22   16   19 1  
    23   26   20 1  
    24   21   22 ar 
    25   21   26 ar 
    26   32   21 1  
    27   22   23 ar 
    28   23   24 ar 
    29   25   24 ar 
    30   26   25 ar 
    31   27   28 ar 
    32   27   32 ar 
    33   28   29 ar 
    34   29   30 ar 
    35   30   31 ar 
    36   31   32 ar 
    37    2   34 1  
    38    5   35 1  
    39    6   36 1  
    40    7   37 1  
    41    7   38 1  
    42    7   39 1  
    43    8   40 1  
    44   10   41 1  
    45   12   42 1  
    46   14   43 1  
    47   15   44 1  
    48   20   45 1  
    49   22   46 1  
    50   23   47 1  
    51   24   48 1  
    52   27   49 1  
    53   28   50 1  
    54   30   51 1  
@<TRIPOS>SUBSTRUCTURE
     1 MUH         1

