### 
### Created by X-TOOL on Mon Sep 10 21:12:59 2018
### 

@<TRIPOS>MOLECULE
2osf_ligand
   15    15     1     0     0
SMALL
GAST_HUCK


@<TRIPOS>ATOM
      1 C1         -6.4720    3.1380   16.2150 C.ar      1 TH0        -0.0111
      2 C2         -6.2820    1.8150   16.6210 C.ar      1 TH0         0.0912
      3 O1         -6.7820    1.1950   17.7190 O.3       1 TH0        -0.3386
      4 S1         -5.3800   -0.6500   16.5780 S.3       1 TH0        -0.1326
      5 C3         -5.4910    0.9580   15.8660 C.ar      1 TH0         0.0297
      6 C4         -4.8810    1.4270   14.6940 C.ar      1 TH0        -0.0669
      7 C5         -5.0820    2.7420   14.2840 C.ar      1 TH0        -0.0503
      8 C6         -5.8730    3.5950   15.0380 C.ar      1 TH0         0.0720
      9 O3         -6.0240    4.8970   14.6700 O.3       1 TH0        -0.3403
     10 H1         -7.0818    3.8077   16.8107 H         1 TH0         0.0446
     11 H2         -6.4836    0.2932   17.7355 H         1 TH0         0.2455
     12 H3         -6.3022   -1.0516   16.6434 H         1 TH0         0.1171
     13 H4         -4.2532    0.7660   14.1075 H         1 TH0         0.0509
     14 H5         -4.6184    3.1003   13.3720 H         1 TH0         0.0433
     15 H6         -6.5931    5.3364   15.2909 H         1 TH0         0.2456
@<TRIPOS>BOND
     1    1    2 ar 
     2    1    8 ar 
     3    2    3 1  
     4    2    5 ar 
     5    5    4 1  
     6    5    6 ar 
     7    6    7 ar 
     8    7    8 ar 
     9    8    9 1  
    10    1   10 1  
    11    3   11 1  
    12    4   12 1  
    13    6   13 1  
    14    7   14 1  
    15    9   15 1  
@<TRIPOS>SUBSTRUCTURE
     1 TH0         1

