### 
### Created by X-TOOL on Mon Sep 10 21:12:59 2018
### 

@<TRIPOS>MOLECULE
2osm_ligand
   14    14     1     0     0
SMALL
GAST_HUCK


@<TRIPOS>ATOM
      1 C1         -6.8630    3.2400   16.5570 C.ar      1 HTS        -0.0390
      2 C2         -6.5390    1.9290   16.9080 C.ar      1 HTS         0.0994
      3 C3         -5.7030    1.1540   16.1110 C.ar      1 HTS         0.0409
      4 C4         -5.1450    1.6440   14.9170 C.ar      1 HTS        -0.0585
      5 C5         -5.4810    2.9660   14.5740 C.ar      1 HTS        -0.0789
      6 C6         -6.3090    3.7360   15.3670 C.ar      1 HTS        -0.0776
      7 O1         -7.0440    1.4420   18.0620 O.3       1 HTS        -0.3360
      8 S1         -5.2890   -0.4640   16.6500 S.3       1 HTS        -0.1244
      9 H1         -7.5133    3.8479   17.1756 H         1 HTS         0.0521
     10 H2         -4.4939    1.0383   14.2971 H         1 HTS         0.0534
     11 H3         -5.0790    3.3923   13.6620 H         1 HTS         0.0505
     12 H4         -6.5371    4.7509   15.0619 H         1 HTS         0.0531
     13 H5         -7.5891    2.1033   18.4718 H         1 HTS         0.2456
     14 H6         -5.7680   -0.6617   17.5146 H         1 HTS         0.1195
@<TRIPOS>BOND
     1    1    2 ar 
     2    1    6 ar 
     3    2    3 ar 
     4    2    7 1  
     5    3    4 ar 
     6    3    8 1  
     7    4    5 ar 
     8    5    6 ar 
     9    1    9 1  
    10    4   10 1  
    11    5   11 1  
    12    6   12 1  
    13    7   13 1  
    14    8   14 1  
@<TRIPOS>SUBSTRUCTURE
     1 HTS         1

