### 
### Created by X-TOOL on Mon Sep 10 21:12:55 2018
### 

@<TRIPOS>MOLECULE
2ovv_ligand
   53    57     1     0     0
SMALL
GAST_HUCK


@<TRIPOS>ATOM
      1 C4         14.0300   16.0490   44.5000 C.ar      1 PFH        -0.0169
      2 C7         11.9630   18.9340   45.6820 C.ar      1 PFH         0.1343
      3 C6         12.5080   17.9450   44.7740 C.ar      1 PFH         0.0363
      4 C9         13.2430   18.0350   47.3940 C.ar      1 PFH         0.0518
      5 C21        11.6520   23.4010   42.9090 C.ar      1 PFH         0.0927
      6 C18         9.6890   21.8050   45.6750 C.3       1 PFH         0.0012
      7 C16        11.2760   20.7050   44.1440 C.3       1 PFH         0.0657
      8 C19        10.4610   20.6890   46.4120 C.3       1 PFH         0.0379
      9 C26        12.8740   23.9740   40.4070 C.ar      1 PFH        -0.0247
     10 C14        11.4690   17.4120   40.5380 C.3       1 PFH         0.0583
     11 O13        12.4910   16.6520   41.2220 O.3       1 PFH        -0.3199
     12 C2         12.7360   16.8470   42.5880 C.ar      1 PFH         0.1319
     13 C1         13.6810   15.9580   43.1560 C.ar      1 PFH         0.1323
     14 O11        14.1790   15.0330   42.2960 O.3       1 PFH        -0.3161
     15 C12        15.3520   14.3720   42.7200 C.3       1 PFH         0.0601
     16 C3         12.1710   17.8150   43.3970 C.ar      1 PFH        -0.0173
     17 C5         13.4460   17.0310   45.3180 C.ar      1 PFH         0.0259
     18 N10        13.7720   17.1170   46.6110 N.ar      1 PFH        -0.3059
     19 N8         12.3590   18.9220   46.9600 N.ar      1 PFH        -0.2637
     20 N15        10.9920   19.8480   45.3130 N.pl3     1 PFH        -0.2789
     21 C17        10.3440   21.9620   44.2710 C.3       1 PFH         0.1045
     22 O20        11.1040   23.1950   44.1640 O.3       1 PFH        -0.3120
     23 C22        12.4780   24.5290   42.7510 C.ar      1 PFH        -0.0274
     24 C23        13.0710   24.8060   41.5440 C.ar      1 PFH        -0.0562
     25 C27        13.4560   24.2520   39.1570 C.ar      1 PFH        -0.0585
     26 C25        12.0410   22.8210   40.5490 C.ar      1 PFH        -0.0287
     27 C24        11.4450   22.5700   41.8030 C.ar      1 PFH        -0.0292
     28 C30        11.8030   21.9570   39.4600 C.ar      1 PFH        -0.0600
     29 C29        12.3650   22.2440   38.2660 C.ar      1 PFH        -0.0653
     30 C28        13.1920   23.3850   38.1240 C.ar      1 PFH        -0.0648
     31 H1         14.7551   15.3598   44.9175 H         1 PFH         0.0496
     32 H2         13.5429   18.0661   48.4352 H         1 PFH         0.1016
     33 H3          9.7643   22.7491   46.2345 H         1 PFH         0.0315
     34 H4          8.6305   21.5251   45.5687 H         1 PFH         0.0315
     35 H5         11.0558   20.1620   43.2131 H         1 PFH         0.0563
     36 H6         12.3318   21.0137   44.1475 H         1 PFH         0.0563
     37 H7          9.7884   20.1087   47.0607 H         1 PFH         0.0534
     38 H8         11.2792   21.1097   47.0149 H         1 PFH         0.0534
     39 H9         11.4354   17.1121   39.4802 H         1 PFH         0.0575
     40 H10        11.7015   18.4849   40.6077 H         1 PFH         0.0575
     41 H11        10.4925   17.2172   41.0055 H         1 PFH         0.0575
     42 H12        15.6642   13.6498   41.9512 H         1 PFH         0.0579
     43 H13        15.1533   13.8410   43.6627 H         1 PFH         0.0579
     44 H14        16.1526   15.1100   42.8765 H         1 PFH         0.0579
     45 H15        11.4468   18.4983   42.9684 H         1 PFH         0.0549
     46 H16         9.5733   21.9496   43.4863 H         1 PFH         0.0673
     47 H17        12.6486   25.1887   43.5941 H         1 PFH         0.0590
     48 H18        13.7052   25.6806   41.4552 H         1 PFH         0.0618
     49 H19        14.0902   25.1193   39.0136 H         1 PFH         0.0616
     50 H20        10.8042   21.7027   41.9132 H         1 PFH         0.0497
     51 H21        11.1799   21.0780   39.5793 H         1 PFH         0.0590
     52 H22        12.1826   21.5993   37.4139 H         1 PFH         0.0607
     53 H23        13.6373   23.5835   37.1558 H         1 PFH         0.0586
@<TRIPOS>BOND
     1    1   13 ar 
     2   17    1 ar 
     3    2    3 ar 
     4    2   19 ar 
     5   20    2 1  
     6    3   16 ar 
     7    3   17 ar 
     8    4   18 ar 
     9   19    4 ar 
    10    5   22 1  
    11   23    5 ar 
    12    5   27 ar 
    13    6    8 1  
    14   21    6 1  
    15    7   20 1  
    16   21    7 1  
    17   20    8 1  
    18   24    9 ar 
    19    9   25 ar 
    20    9   26 ar 
    21   11   10 1  
    22   12   11 1  
    23   12   13 ar 
    24   16   12 ar 
    25   13   14 1  
    26   14   15 1  
    27   17   18 ar 
    28   22   21 1  
    29   23   24 ar 
    30   25   30 ar 
    31   26   27 ar 
    32   26   28 ar 
    33   28   29 ar 
    34   29   30 ar 
    35    1   31 1  
    36    4   32 1  
    37    6   33 1  
    38    6   34 1  
    39    7   35 1  
    40    7   36 1  
    41    8   37 1  
    42    8   38 1  
    43   10   39 1  
    44   10   40 1  
    45   10   41 1  
    46   15   42 1  
    47   15   43 1  
    48   15   44 1  
    49   16   45 1  
    50   21   46 1  
    51   23   47 1  
    52   24   48 1  
    53   25   49 1  
    54   27   50 1  
    55   28   51 1  
    56   29   52 1  
    57   30   53 1  
@<TRIPOS>SUBSTRUCTURE
     1 PFH         1

