### 
### Created by X-TOOL on Mon Sep 10 21:12:56 2018
### 

@<TRIPOS>MOLECULE
2ovx_ligand
   57    61     1     0     0
SMALL
GAST_HUCK


@<TRIPOS>ATOM
      1 CAA        24.3640    3.1140   51.6060 C.ar      1 4MR        -0.0246
      2 CAB        23.3520    2.1920   51.8540 C.ar      1 4MR        -0.0676
      3 CAC        23.3550    1.4510   53.0330 C.ar      1 4MR        -0.0705
      4 CAF        24.3650    1.6440   53.9700 C.ar      1 4MR        -0.0676
      5 CAE        25.3680    2.5780   53.7270 C.ar      1 4MR        -0.0246
      6 CAD        25.3760    3.3110   52.5430 C.ar      1 4MR         0.1297
      7 OAG        26.4810    4.0500   52.2440 O.3       1 4MR        -0.2305
      8 CAJ        26.2940    5.2850   51.7000 C.ar      1 4MR         0.1564
      9 CAM        27.3610    5.8710   51.0260 C.ar      1 4MR         0.0073
     10 CAL        27.2710    7.1840   50.5720 C.ar      1 4MR        -0.0394
     11 CAI        25.1400    6.0340   51.9220 C.ar      1 4MR         0.0073
     12 CAH        25.0480    7.3430   51.4580 C.ar      1 4MR        -0.0394
     13 CAK        26.1080    7.9250   50.7670 C.ar      1 4MR         0.0023
     14 CAY        25.8670    9.2010   49.9510 C.3       1 4MR         0.1423
     15 CAZ        25.3350    8.7180   48.5970 C.2       1 4MR         0.2391
     16 OAS        24.1640    8.3490   48.5170 O.2       1 4MR        -0.3569
     17 NBA        26.1050    8.7850   47.4300 N.am      1 4MR        -0.1854
     18 CBF        27.3870    9.3460   47.4250 C.2       1 4MR         0.3172
     19 OBG        28.0940    9.2320   46.4250 O.2       1 4MR        -0.3817
     20 NBE        27.9170    9.9130   48.5910 N.am      1 4MR        -0.1854
     21 CBD        27.1920    9.9560   49.7890 C.2       1 4MR         0.2391
     22 OBH        27.7120   10.4750   50.7760 O.2       1 4MR        -0.3569
     23 NAX        24.8460   10.0420   50.6040 N.4       1 4MR         0.1921
     24 CAR        25.2150   10.4270   51.9770 C.3       1 4MR        -0.0156
     25 CAQ        24.0490   11.1690   52.6350 C.3       1 4MR         0.0741
     26 CBC        24.4940   11.2250   49.7990 C.3       1 4MR        -0.0156
     27 CBB        23.3320   11.9760   50.4560 C.3       1 4MR         0.0741
     28 NAW        23.7330   12.3530   51.8210 N.pl3     1 4MR        -0.2646
     29 CAV        22.8080   13.2840   52.4840 C.ar      1 4MR         0.1960
     30 NAU        22.9330   13.4980   53.8030 N.ar      1 4MR        -0.2527
     31 CAT        22.3640   14.5350   54.3920 C.ar      1 4MR         0.0145
     32 CAN        21.6060   15.4270   53.6410 C.ar      1 4MR        -0.0228
     33 CAO        21.4720   15.1730   52.2800 C.ar      1 4MR         0.0145
     34 NAP        22.0650   14.1210   51.7430 N.ar      1 4MR        -0.2527
     35 H1         24.3651    3.6803   50.6817 H         1 4MR         0.0569
     36 H2         22.5596    2.0502   51.1280 H         1 4MR         0.0595
     37 H3         22.5719    0.7252   53.2203 H         1 4MR         0.0543
     38 H4         24.3709    1.0678   54.8881 H         1 4MR         0.0595
     39 H5         26.1474    2.7357   54.4637 H         1 4MR         0.0569
     40 H6         28.2674    5.3020   50.8535 H         1 4MR         0.0669
     41 H7         28.1147    7.6342   50.0615 H         1 4MR         0.0821
     42 H8         24.3081    5.5940   52.4599 H         1 4MR         0.0669
     43 H9         24.1440    7.9141   51.6359 H         1 4MR         0.0821
     44 H10        25.7290    8.4224   46.5773 H         1 4MR         0.2255
     45 H11        28.8395   10.2982   48.5676 H         1 4MR         0.2255
     46 H12        24.0133    9.4784   50.6742 H         1 4MR         0.1991
     47 H13        26.0969   11.0838   51.9482 H         1 4MR         0.0836
     48 H14        25.4493    9.5239   52.5597 H         1 4MR         0.0836
     49 H15        24.3334   11.4816   53.6505 H         1 4MR         0.0580
     50 H16        23.1706   10.5089   52.6870 H         1 4MR         0.0580
     51 H17        24.1966   10.9040   48.7898 H         1 4MR         0.0836
     52 H18        25.3662   11.8916   49.7296 H         1 4MR         0.0836
     53 H19        22.4453   11.3263   50.4957 H         1 4MR         0.0580
     54 H20        23.0984   12.8802   49.8747 H         1 4MR         0.0580
     55 H21        22.4877   14.6900   55.4577 H         1 4MR         0.0900
     56 H22        21.1364   16.2895   54.0999 H         1 4MR         0.0665
     57 H23        20.8814   15.8377   51.6600 H         1 4MR         0.0900
@<TRIPOS>BOND
     1    1    2 ar 
     2    1    6 ar 
     3    2    3 ar 
     4    3    4 ar 
     5    4    5 ar 
     6    5    6 ar 
     7    6    7 1  
     8    7    8 1  
     9    8    9 ar 
    10    8   11 ar 
    11    9   10 ar 
    12   10   13 ar 
    13   11   12 ar 
    14   12   13 ar 
    15   13   14 1  
    16   14   15 1  
    17   14   21 1  
    18   14   23 1  
    19   15   16 2  
    20   15   17 am 
    21   17   18 am 
    22   18   19 2  
    23   18   20 am 
    24   20   21 am 
    25   21   22 2  
    26   23   24 1  
    27   23   26 1  
    28   24   25 1  
    29   25   28 1  
    30   26   27 1  
    31   27   28 1  
    32   28   29 1  
    33   29   30 ar 
    34   29   34 ar 
    35   30   31 ar 
    36   31   32 ar 
    37   32   33 ar 
    38   33   34 ar 
    39    1   35 1  
    40    2   36 1  
    41    3   37 1  
    42    4   38 1  
    43    5   39 1  
    44    9   40 1  
    45   10   41 1  
    46   11   42 1  
    47   12   43 1  
    48   17   44 1  
    49   20   45 1  
    50   23   46 1  
    51   24   47 1  
    52   24   48 1  
    53   25   49 1  
    54   25   50 1  
    55   26   51 1  
    56   26   52 1  
    57   27   53 1  
    58   27   54 1  
    59   31   55 1  
    60   32   56 1  
    61   33   57 1  
@<TRIPOS>SUBSTRUCTURE
     1 4MR         1

