### 
### Created by X-TOOL on Mon Sep 10 21:12:55 2018
### 

@<TRIPOS>MOLECULE
2ovy_ligand
   51    55     1     0     0
SMALL
GAST_HUCK


@<TRIPOS>ATOM
      1 C4         13.9590   16.1610   44.5920 C.ar      1 PFJ        -0.0169
      2 C7         12.0060   19.0470   45.7600 C.ar      1 PFJ         0.1343
      3 C6         12.5570   18.0960   44.9150 C.ar      1 PFJ         0.0363
      4 C9         13.2230   18.0720   47.5500 C.ar      1 PFJ         0.0518
      5 C21        11.8950   23.3740   43.0850 C.ar      1 PFJ         0.1979
      6 C18         9.7640   21.9240   45.6790 C.3       1 PFJ         0.0021
      7 C16        10.6730   20.4200   44.0260 C.3       1 PFJ         0.0666
      8 C19        10.6630   20.9470   46.4250 C.3       1 PFJ         0.0380
      9 C26        13.1030   24.1270   40.7020 C.ar      1 PFJ         0.0670
     10 C14        11.5130   17.3400   40.4480 C.3       1 PFJ         0.0583
     11 O13        12.5830   16.8580   41.2580 O.3       1 PFJ        -0.3199
     12 C2         12.7170   17.0120   42.6710 C.ar      1 PFJ         0.1319
     13 C3         12.1730   18.0320   43.5300 C.ar      1 PFJ        -0.0173
     14 N8         12.3470   19.0080   47.0900 N.ar      1 PFJ        -0.2637
     15 N10        13.7210   17.1220   46.7300 N.ar      1 PFJ        -0.3059
     16 C5         13.3800   17.1520   45.4190 C.ar      1 PFJ         0.0259
     17 C1         13.6110   16.0720   43.2330 C.ar      1 PFJ         0.1323
     18 O11        14.0600   15.0480   42.4400 O.3       1 PFJ        -0.3161
     19 C12        15.3810   14.5080   42.5800 C.3       1 PFJ         0.0601
     20 N15        11.1540   20.0490   45.3550 N.pl3     1 PFJ        -0.2789
     21 C17        10.2590   21.9000   44.2580 C.3       1 PFJ         0.1107
     22 O20        11.3030   22.9210   44.2210 O.3       1 PFJ        -0.2831
     23 N24        11.7440   22.6450   41.9220 N.ar      1 PFJ        -0.2535
     24 C25        12.3610   22.9510   40.7450 C.ar      1 PFJ         0.0596
     25 C30        12.1780   22.1300   39.6400 C.ar      1 PFJ        -0.0377
     26 C29        12.6480   22.5260   38.4270 C.ar      1 PFJ        -0.0548
     27 C28        13.4200   23.7210   38.3730 C.ar      1 PFJ        -0.0543
     28 C27        13.6390   24.5390   39.4890 C.ar      1 PFJ        -0.0352
     29 N23        13.1710   24.8980   41.8600 N.ar      1 PFJ        -0.2717
     30 C22        12.6630   24.5480   43.0610 C.ar      1 PFJ         0.0782
     31 H1         14.6770   15.4645   45.0098 H         1 PFJ         0.0496
     32 H2         13.5251   18.0901   48.5909 H         1 PFJ         0.1016
     33 H3          9.8551   22.9348   46.1033 H         1 PFJ         0.0316
     34 H4          8.7143   21.5988   45.7284 H         1 PFJ         0.0316
     35 H5          9.8140   19.8040   43.7215 H         1 PFJ         0.0564
     36 H6         11.4691   20.3376   43.2715 H         1 PFJ         0.0564
     37 H7         10.0933   20.3853   47.1799 H         1 PFJ         0.0534
     38 H8         11.4977   21.4727   46.9117 H         1 PFJ         0.0534
     39 H9         11.6945   17.0643   39.3987 H         1 PFJ         0.0575
     40 H10        11.4523   18.4349   40.5341 H         1 PFJ         0.0575
     41 H11        10.5667   16.8926   40.7862 H         1 PFJ         0.0575
     42 H12        11.4708   18.7550   43.1310 H         1 PFJ         0.0549
     43 H13        15.5266   13.7005   41.8473 H         1 PFJ         0.0579
     44 H14        15.5077   14.1078   43.5967 H         1 PFJ         0.0579
     45 H15        16.1221   15.3014   42.4033 H         1 PFJ         0.0579
     46 H16         9.4683   22.1690   43.5422 H         1 PFJ         0.0683
     47 H17        11.6645   21.1810   39.7436 H         1 PFJ         0.0639
     48 H18        12.4418   21.9512   37.5314 H         1 PFJ         0.0665
     49 H19        13.8584   24.0112   37.4250 H         1 PFJ         0.0643
     50 H20        14.2059   25.4595   39.4086 H         1 PFJ         0.0667
     51 H21        12.8380   25.1385   43.9531 H         1 PFJ         0.0931
@<TRIPOS>BOND
     1   16    1 ar 
     2    1   17 ar 
     3    2    3 ar 
     4    2   14 ar 
     5   20    2 1  
     6    3   13 ar 
     7    3   16 ar 
     8   14    4 ar 
     9    4   15 ar 
    10    5   22 1  
    11   23    5 ar 
    12    5   30 ar 
    13    6    8 1  
    14   21    6 1  
    15    7   20 1  
    16   21    7 1  
    17   20    8 1  
    18   24    9 ar 
    19    9   28 ar 
    20    9   29 ar 
    21   11   10 1  
    22   12   11 1  
    23   13   12 ar 
    24   12   17 ar 
    25   16   15 ar 
    26   17   18 1  
    27   18   19 1  
    28   22   21 1  
    29   23   24 ar 
    30   24   25 ar 
    31   25   26 ar 
    32   26   27 ar 
    33   27   28 ar 
    34   29   30 ar 
    35    1   31 1  
    36    4   32 1  
    37    6   33 1  
    38    6   34 1  
    39    7   35 1  
    40    7   36 1  
    41    8   37 1  
    42    8   38 1  
    43   10   39 1  
    44   10   40 1  
    45   10   41 1  
    46   13   42 1  
    47   19   43 1  
    48   19   44 1  
    49   19   45 1  
    50   21   46 1  
    51   25   47 1  
    52   26   48 1  
    53   27   49 1  
    54   28   50 1  
    55   30   51 1  
@<TRIPOS>SUBSTRUCTURE
     1 PFJ         1

