### 
### Created by X-TOOL on Mon Sep 10 21:12:56 2018
### 

@<TRIPOS>MOLECULE
2ow0_ligand
   49    52     1     0     0
SMALL
GAST_HUCK


@<TRIPOS>ATOM
      1 CD2        25.3960   12.1360   44.6660 C.ar      1 6MR        -0.0214
      2 CE3        25.7420   11.0670   43.8430 C.ar      1 6MR        -0.0747
      3 CZ3        24.9190   10.7320   42.7670 C.ar      1 6MR        -0.0792
      4 CH2        23.7600   11.4580   42.5170 C.ar      1 6MR        -0.0768
      5 CZ2        23.4170   12.5290   43.3400 C.ar      1 6MR        -0.0443
      6 CE2        24.2380   12.8680   44.4130 C.ar      1 6MR         0.0603
      7 NE1        24.1630   13.8260   45.3330 N.pl3     1 6MR        -0.2891
      8 CD1        25.2110   13.7350   46.1520 C.2       1 6MR         0.0166
      9 CG         25.9880   12.7200   45.7830 C.2       1 6MR        -0.0428
     10 CB         27.2780   12.2810   46.4850 C.3       1 6MR        -0.0048
     11 CA         27.0170   11.3040   47.6350 C.3       1 6MR         0.0940
     12 C          26.5390    9.9630   47.0660 C.2       1 6MR         0.0576
     13 O          25.3130    9.7220   47.1220 O.co2     1 6MR        -0.5669
     14 OXT        27.4080    9.2080   46.5790 O.co2     1 6MR        -0.5669
     15 N          25.9990   11.8710   48.5340 N.am      1 6MR        -0.2302
     16 SAZ        26.2840   11.5120   50.1000 S.o2      1 6MR         0.0701
     17 OBE        25.4080   12.3860   50.9470 O.2       1 6MR        -0.1501
     18 OAP        27.7160   11.8070   50.4380 O.2       1 6MR        -0.1501
     19 CAY        25.9270    9.8290   50.4270 C.ar      1 6MR         0.1086
     20 CAX        26.8780    8.8510   50.1420 C.ar      1 6MR        -0.0341
     21 CAW        26.6110    7.5060   50.3770 C.ar      1 6MR        -0.0516
     22 CAO        24.7000    9.4380   50.9520 C.ar      1 6MR        -0.0341
     23 CAN        24.4310    8.0910   51.1900 C.ar      1 6MR        -0.0516
     24 CAM        25.3820    7.1160   50.9020 C.ar      1 6MR        -0.0163
     25 CAL        25.1080    5.7680   51.1490 C.ar      1 6MR        -0.0156
     26 CAK        26.0930    4.9190   51.6480 C.ar      1 6MR        -0.0514
     27 CAJ        25.7640    3.6310   52.0640 C.ar      1 6MR        -0.0504
     28 CAT        24.4540    3.1690   51.9840 C.ar      1 6MR         0.0092
     29 I          23.9890    1.2540   52.6970 I         1 6MR        -0.0495
     30 CAU        23.4730    4.0110   51.4660 C.ar      1 6MR        -0.0504
     31 CAV        23.8000    5.3000   51.0500 C.ar      1 6MR        -0.0514
     32 H1         26.6446   10.4990   44.0370 H         1 6MR         0.0540
     33 H2         25.1847    9.9016   42.1229 H         1 6MR         0.0510
     34 H3         23.1229   11.1909   41.6816 H         1 6MR         0.0530
     35 H4         22.5141   13.0965   43.1458 H         1 6MR         0.0541
     36 H5         23.4126   14.5282   45.4018 H         1 6MR         0.2216
     37 H6         25.4027   14.3938   46.9977 H         1 6MR         0.0795
     38 H7         27.7817   13.1724   46.8871 H         1 6MR         0.0386
     39 H8         27.9316   11.7916   45.7480 H         1 6MR         0.0386
     40 H9         27.9486   11.1459   48.1980 H         1 6MR         0.0694
     41 H10        25.2206   12.4148   48.2205 H         1 6MR         0.1699
     42 H11        27.8383    9.1420   49.7319 H         1 6MR         0.0638
     43 H12        27.3629    6.7587   50.1504 H         1 6MR         0.0627
     44 H13        23.9480   10.1854   51.1776 H         1 6MR         0.0638
     45 H14        23.4721    7.8000   51.6033 H         1 6MR         0.0627
     46 H15        27.1193    5.2618   51.7128 H         1 6MR         0.0629
     47 H16        26.5381    2.9806   52.4549 H         1 6MR         0.0645
     48 H17        22.4499    3.6618   51.3861 H         1 6MR         0.0645
     49 H18        23.0286    5.9451   50.6452 H         1 6MR         0.0629
@<TRIPOS>BOND
     1    1    2 ar 
     2    1    6 ar 
     3    1    9 1  
     4    2    3 ar 
     5    3    4 ar 
     6    4    5 ar 
     7    5    6 ar 
     8    6    7 1  
     9    7    8 1  
    10    8    9 2  
    11    9   10 1  
    12   10   11 1  
    13   11   12 1  
    14   11   15 1  
    15   12   13 ar 
    16   12   14 ar 
    17   15   16 am 
    18   16   17 2  
    19   16   18 2  
    20   16   19 1  
    21   19   20 ar 
    22   19   22 ar 
    23   20   21 ar 
    24   21   24 ar 
    25   22   23 ar 
    26   23   24 ar 
    27   24   25 1  
    28   25   26 ar 
    29   25   31 ar 
    30   26   27 ar 
    31   27   28 ar 
    32   28   29 1  
    33   28   30 ar 
    34   30   31 ar 
    35    2   32 1  
    36    3   33 1  
    37    4   34 1  
    38    5   35 1  
    39    7   36 1  
    40    8   37 1  
    41   10   38 1  
    42   10   39 1  
    43   11   40 1  
    44   15   41 1  
    45   20   42 1  
    46   21   43 1  
    47   22   44 1  
    48   23   45 1  
    49   26   46 1  
    50   27   47 1  
    51   30   48 1  
    52   31   49 1  
@<TRIPOS>SUBSTRUCTURE
     1 6MR         1

