### 
### Created by X-TOOL on Mon Sep 10 21:12:56 2018
### 

@<TRIPOS>MOLECULE
2ow1_ligand
   43    44     1     0     0
SMALL
GAST_HUCK


@<TRIPOS>ATOM
      1 CAI        26.4370    3.4740   53.0330 C.ar      1 7MR        -0.0285
      2 CAH        25.6410    2.6660   53.8410 C.ar      1 7MR        -0.0697
      3 CAG        24.3490    2.3340   53.4430 C.ar      1 7MR        -0.0723
      4 CAR        23.8500    2.8140   52.2360 C.ar      1 7MR        -0.0697
      5 CAS        24.6460    3.6210   51.4290 C.ar      1 7MR        -0.0285
      6 CAT        25.9400    3.9490   51.8230 C.ar      1 7MR         0.1161
      7 OAU        26.7340    4.6730   50.9870 O.3       1 7MR        -0.2579
      8 CAV        26.6830    6.0300   51.1040 C.ar      1 7MR         0.1162
      9 CAJ        25.5370    6.6930   51.5370 C.ar      1 7MR        -0.0267
     10 CAK        25.4890    8.0840   51.5420 C.ar      1 7MR        -0.0448
     11 CAW        27.7840    6.7720   50.6850 C.ar      1 7MR        -0.0267
     12 CAX        27.7380    8.1630   50.6880 C.ar      1 7MR        -0.0448
     13 CAL        26.5890    8.8210   51.1170 C.ar      1 7MR         0.0777
     14 SAM        26.5350   10.5690   51.1670 S.o2      1 7MR        -0.0025
     15 OAY        26.0720   10.9890   52.5300 O.2       1 7MR        -0.1706
     16 OAC        27.9060   11.1240   50.9140 O.2       1 7MR        -0.1706
     17 CAN        25.3590   11.2230   49.9250 C.3       1 7MR         0.1312
     18 CAO        25.9410   11.5080   48.5360 C.3       1 7MR         0.1848
     19 CAP        24.9000   12.2180   47.6670 C.3       1 7MR         0.4447
     20 FBA        25.3430   12.3120   46.4170 F         1 7MR        -0.1659
     21 FAF        23.7670   11.5230   47.6760 F         1 7MR        -0.1659
     22 FAQ        24.6640   13.4340   48.1500 F         1 7MR        -0.1659
     23 NAZ        27.1140   12.3840   48.6790 N.4       1 7MR         0.2305
     24 CAE        26.3640   10.2070   47.8450 C.2       1 7MR         0.2798
     25 OAB        25.5960    9.2490   47.7660 O.2       1 7MR        -0.3400
     26 NAD        27.5830   10.2230   47.3130 N.am      1 7MR        -0.1576
     27 OAA        28.0800    9.0710   46.6470 O.3       1 7MR        -0.2705
     28 H1         27.4421    3.7325   53.3460 H         1 7MR         0.0552
     29 H2         26.0286    2.2945   54.7827 H         1 7MR         0.0590
     30 H3         23.7326    1.7025   54.0725 H         1 7MR         0.0528
     31 H4         22.8432    2.5597   51.9250 H         1 7MR         0.0590
     32 H5         24.2566    3.9959   50.4894 H         1 7MR         0.0552
     33 H6         24.6781    6.1226   51.8718 H         1 7MR         0.0553
     34 H7         24.5930    8.5935   51.8776 H         1 7MR         0.0609
     35 H8         28.6824    6.2633   50.3545 H         1 7MR         0.0553
     36 H9         28.5974    8.7342   50.3561 H         1 7MR         0.0609
     37 H10        24.9446   12.1639   50.3161 H         1 7MR         0.0553
     38 H11        24.5500   10.4871   49.8067 H         1 7MR         0.0553
     39 H12        27.8073   11.9266   49.2501 H         1 7MR         0.2002
     40 H13        26.8362   13.2488   49.1160 H         1 7MR         0.2002
     41 H14        27.5023   12.5768   47.7690 H         1 7MR         0.2002
     42 H15        28.1487   11.0448   47.3818 H         1 7MR         0.2234
     43 H16        28.9574    9.2453   46.3272 H         1 7MR         0.2497
@<TRIPOS>BOND
     1    1    2 ar 
     2    1    6 ar 
     3    2    3 ar 
     4    3    4 ar 
     5    4    5 ar 
     6    5    6 ar 
     7    6    7 1  
     8    7    8 1  
     9    8    9 ar 
    10    8   11 ar 
    11    9   10 ar 
    12   10   13 ar 
    13   11   12 ar 
    14   12   13 ar 
    15   13   14 1  
    16   14   15 2  
    17   14   16 2  
    18   14   17 1  
    19   17   18 1  
    20   18   19 1  
    21   18   23 1  
    22   18   24 1  
    23   19   20 1  
    24   19   21 1  
    25   19   22 1  
    26   24   25 2  
    27   24   26 am 
    28   26   27 1  
    29    1   28 1  
    30    2   29 1  
    31    3   30 1  
    32    4   31 1  
    33    5   32 1  
    34    9   33 1  
    35   10   34 1  
    36   11   35 1  
    37   12   36 1  
    38   17   37 1  
    39   17   38 1  
    40   23   39 1  
    41   23   40 1  
    42   23   41 1  
    43   26   42 1  
    44   27   43 1  
@<TRIPOS>SUBSTRUCTURE
     1 7MR         1

