### 
### Created by X-TOOL on Mon Sep 10 21:12:56 2018
### 

@<TRIPOS>MOLECULE
2ow2_ligand
   30    30     1     0     0
SMALL
GAST_HUCK


@<TRIPOS>ATOM
      1 CAI        25.7750    4.4590   52.5070 C.3       1 8MR         0.0594
      2 OAH        26.3920    4.8050   51.2640 O.3       1 8MR        -0.3212
      3 CAG        26.4000    6.1580   51.1150 C.ar      1 8MR         0.0908
      4 CAQ        27.5090    6.8990   51.5110 C.ar      1 8MR        -0.0314
      5 CAP        27.5270    8.2790   51.3340 C.ar      1 8MR        -0.0458
      6 CAF        25.3070    6.8000   50.5450 C.ar      1 8MR        -0.0314
      7 CAE        25.3260    8.1790   50.3660 C.ar      1 8MR        -0.0458
      8 CAO        26.4350    8.9210   50.7570 C.ar      1 8MR         0.0776
      9 SAN        26.4490   10.6540   50.4910 S.o2      1 8MR         0.0018
     10 OAS        27.8570   11.1390   50.2960 O.2       1 8MR        -0.1702
     11 OAD        25.8560   11.3510   51.6790 O.2       1 8MR        -0.1702
     12 CAM        25.4640   10.9980   48.9870 C.3       1 8MR         0.1518
     13 CAB        24.4720   12.1440   49.2060 C.3       1 8MR         0.2629
     14 FA         23.5560   11.8150   50.1940 F         1 8MR        -0.2070
     15 FB         23.7800   12.4110   48.0340 F         1 8MR        -0.2070
     16 CAL        26.3570   11.2690   47.7740 C.3       1 8MR         0.0281
     17 CAK        27.1300   10.0120   47.3680 C.2       1 8MR         0.0368
     18 OAR        28.3020   10.1680   46.9670 O.co2     1 8MR        -0.5689
     19 OAJ        26.5280    8.9210   47.4660 O.co2     1 8MR        -0.5689
     20 H1         25.7711    3.3651   52.6224 H         1 8MR         0.0577
     21 H2         24.7405    4.8326   52.5194 H         1 8MR         0.0577
     22 H3         26.3389    4.9130   53.3352 H         1 8MR         0.0577
     23 H4         28.3610    6.4001   51.9585 H         1 8MR         0.0542
     24 H5         28.3914    8.8542   51.6455 H         1 8MR         0.0608
     25 H6         24.4397    6.2258   50.2399 H         1 8MR         0.0542
     26 H7         24.4729    8.6773   49.9199 H         1 8MR         0.0608
     27 H8         24.8776   10.0935   48.7677 H         1 8MR         0.0614
     28 H9         25.0280   13.0423   49.5123 H         1 8MR         0.1039
     29 H10        27.0728   12.0655   48.0254 H         1 8MR         0.0451
     30 H11        25.7293   11.5929   46.9308 H         1 8MR         0.0451
@<TRIPOS>BOND
     1    1    2 1  
     2    2    3 1  
     3    3    4 ar 
     4    3    6 ar 
     5    4    5 ar 
     6    5    8 ar 
     7    6    7 ar 
     8    7    8 ar 
     9    8    9 1  
    10    9   10 2  
    11    9   11 2  
    12    9   12 1  
    13   12   13 1  
    14   12   16 1  
    15   13   14 1  
    16   13   15 1  
    17   16   17 1  
    18   17   18 ar 
    19   17   19 ar 
    20    1   20 1  
    21    1   21 1  
    22    1   22 1  
    23    4   23 1  
    24    5   24 1  
    25    6   25 1  
    26    7   26 1  
    27   12   27 1  
    28   13   28 1  
    29   16   29 1  
    30   16   30 1  
@<TRIPOS>SUBSTRUCTURE
     1 8MR         1

