### 
### Created by X-TOOL on Mon Sep 10 21:12:59 2018
### 

@<TRIPOS>MOLECULE
2ow3_ligand
   74    80     1     0     0
SMALL
GAST_HUCK


@<TRIPOS>ATOM
      1 C1        -37.4230   -0.9260   74.6060 C.2       1 BIM         0.2236
      2 C3        -37.1510   -1.4660   73.2710 C.2       1 BIM         0.0442
      3 C4        -39.1660   -2.1010   74.0590 C.2       1 BIM         0.2236
      4 C5        -38.2320   -2.2000   72.9260 C.2       1 BIM         0.0442
      5 C6        -38.6120   -3.0230   71.7270 C.2       1 BIM        -0.0050
      6 C7        -37.7540   -3.7970   70.9560 C.ar      1 BIM        -0.0132
      7 C8        -39.8630   -3.2070   71.1720 C.2       1 BIM         0.0421
      8 N10       -39.7800   -4.0330   70.0970 N.pl3     1 BIM        -0.2593
      9 C11       -35.8740   -1.1670   72.5720 C.2       1 BIM        -0.0050
     10 C12       -35.6740   -0.7390   71.2740 C.2       1 BIM         0.0421
     11 C15       -33.6960   -0.9520   72.1750 C.ar      1 BIM         0.0710
     12 C16       -36.3840   -3.9890   71.0610 C.ar      1 BIM        -0.0722
     13 C17       -35.7450   -4.8090   70.1440 C.ar      1 BIM        -0.0775
     14 C18       -37.8550   -5.2320   69.0350 C.ar      1 BIM        -0.0411
     15 C19       -36.4770   -5.4320   69.1350 C.ar      1 BIM        -0.0750
     16 C21       -32.8620   -1.7450   74.6940 C.ar      1 BIM        -0.0775
     17 C23       -31.9270   -1.3860   73.7270 C.ar      1 BIM        -0.0750
     18 O25       -36.6630   -0.2130   75.2310 O.2       1 BIM        -0.3720
     19 C27       -34.1300   -0.9760   68.5550 C.3       1 BIM        -0.0152
     20 C30       -37.3180   -0.6450   67.7710 C.ar      1 BIM        -0.0541
     21 C32       -38.4480   -1.3310   67.4140 C.ar      1 BIM        -0.0595
     22 C33       -37.2570   -2.5440   65.7160 C.ar      1 BIM         0.1071
     23 C34       -38.4590   -2.2870   66.3990 C.ar      1 BIM        -0.0041
     24 C35       -40.9830   -4.4150   69.3230 C.3       1 BIM         0.0539
     25 C36       -40.9610   -4.5520   67.7840 C.3       1 BIM        -0.0244
     26 C37       -39.7710   -3.0000   66.0650 C.3       1 BIM        -0.0197
     27 C38       -40.8500   -3.1560   67.1720 C.3       1 BIM        -0.0425
     28 C40       -38.0070   -4.0700   63.6730 C.3       1 BIM         0.0166
     29 C13       -34.6160   -1.3050   73.1270 C.ar      1 BIM        -0.0132
     30 C20       -34.2200   -1.7100   74.3950 C.ar      1 BIM        -0.0722
     31 C22       -32.3390   -0.9840   72.4580 C.ar      1 BIM        -0.0411
     32 N14       -34.3450   -0.6050   71.0550 N.pl3     1 BIM        -0.2591
     33 C26       -33.7090   -0.1610   69.8000 C.3       1 BIM         0.0557
     34 C28       -34.9030   -0.1300   67.5260 C.3       1 BIM        -0.0082
     35 C29       -36.1440   -0.8830   67.1100 C.ar      1 BIM         0.0056
     36 N31       -36.1260   -1.8260   66.0970 N.ar      1 BIM        -0.2940
     37 N39       -37.0670   -3.4740   64.6470 N.pl3     1 BIM        -0.3047
     38 C41       -35.7220   -4.0060   64.3460 C.3       1 BIM         0.0166
     39 O24       -40.2540   -2.6260   74.1030 O.2       1 BIM        -0.3720
     40 N2        -38.6550   -1.3280   75.0720 N.am      1 BIM        -0.2037
     41 C9        -38.4880   -4.4050   69.9590 C.ar      1 BIM         0.0710
     42 H1        -40.7822   -2.7556   71.5423 H         1 BIM         0.1003
     43 H2        -36.4585   -0.5414   70.5450 H         1 BIM         0.1003
     44 H3        -35.8205   -3.5041   71.8499 H         1 BIM         0.0549
     45 H4        -34.6745   -4.9658   70.2119 H         1 BIM         0.0519
     46 H5        -38.4244   -5.7141   68.2486 H         1 BIM         0.0550
     47 H6        -35.9732   -6.0760   68.4233 H         1 BIM         0.0540
     48 H7        -32.5317   -2.0518   75.6798 H         1 BIM         0.0519
     49 H8        -30.8696   -1.4195   73.9632 H         1 BIM         0.0540
     50 H9        -34.7715   -1.8085   68.8795 H         1 BIM         0.0315
     51 H10       -33.2255   -1.3761   68.0736 H         1 BIM         0.0315
     52 H11       -37.3534    0.0830   68.5734 H         1 BIM         0.0515
     53 H12       -39.3715   -1.1224   67.9419 H         1 BIM         0.0613
     54 H13       -41.7491   -3.6600   69.5533 H         1 BIM         0.0607
     55 H14       -41.3023   -5.3924   69.7139 H         1 BIM         0.0607
     56 H15       -41.8885   -5.0341   67.4415 H         1 BIM         0.0293
     57 H16       -40.0970   -5.1604   67.4784 H         1 BIM         0.0293
     58 H17       -39.5093   -4.0131   65.7258 H         1 BIM         0.0401
     59 H18       -40.2371   -2.4452   65.2374 H         1 BIM         0.0401
     60 H19       -40.6124   -2.4486   67.9801 H         1 BIM         0.0285
     61 H20       -41.8257   -2.8983   66.7342 H         1 BIM         0.0285
     62 H21       -37.4593   -4.7494   63.0034 H         1 BIM         0.0481
     63 H22       -38.4766   -3.2710   63.0805 H         1 BIM         0.0481
     64 H23       -38.7842   -4.6329   64.2107 H         1 BIM         0.0481
     65 H24       -34.9561   -1.9938   75.1385 H         1 BIM         0.0549
     66 H25       -31.6117   -0.7014   71.7056 H         1 BIM         0.0550
     67 H26       -33.9779    0.8921   69.6305 H         1 BIM         0.0609
     68 H27       -32.6186   -0.2469   69.9164 H         1 BIM         0.0609
     69 H28       -34.2687    0.0520   66.6459 H         1 BIM         0.0440
     70 H29       -35.1882    0.8316   67.9776 H         1 BIM         0.0440
     71 H30       -34.9936   -3.5829   65.0534 H         1 BIM         0.0481
     72 H31       -35.4395   -3.7294   63.3195 H         1 BIM         0.0481
     73 H32       -35.7314   -5.1018   64.4411 H         1 BIM         0.0481
     74 H33       -39.0809   -1.1070   75.9494 H         1 BIM         0.2196
@<TRIPOS>BOND
     1    2    1 1  
     2    1   18 2  
     3    1   40 am 
     4    2    4 2  
     5    9    2 1  
     6    4    3 1  
     7    3   39 2  
     8    3   40 am 
     9    4    5 1  
    10    5    6 1  
    11    5    7 2  
    12    6   12 ar 
    13    6   41 ar 
    14    7    8 1  
    15    8   24 1  
    16    8   41 1  
    17   10    9 2  
    18   29    9 1  
    19   32   10 1  
    20   11   29 ar 
    21   11   31 ar 
    22   32   11 1  
    23   12   13 ar 
    24   13   15 ar 
    25   14   15 ar 
    26   41   14 ar 
    27   17   16 ar 
    28   30   16 ar 
    29   31   17 ar 
    30   33   19 1  
    31   19   34 1  
    32   21   20 ar 
    33   20   35 ar 
    34   23   21 ar 
    35   23   22 ar 
    36   22   36 ar 
    37   22   37 1  
    38   26   23 1  
    39   24   25 1  
    40   25   27 1  
    41   27   26 1  
    42   37   28 1  
    43   29   30 ar 
    44   32   33 1  
    45   34   35 1  
    46   35   36 ar 
    47   37   38 1  
    48    7   42 1  
    49   10   43 1  
    50   12   44 1  
    51   13   45 1  
    52   14   46 1  
    53   15   47 1  
    54   16   48 1  
    55   17   49 1  
    56   19   50 1  
    57   19   51 1  
    58   20   52 1  
    59   21   53 1  
    60   24   54 1  
    61   24   55 1  
    62   25   56 1  
    63   25   57 1  
    64   26   58 1  
    65   26   59 1  
    66   27   60 1  
    67   27   61 1  
    68   28   62 1  
    69   28   63 1  
    70   28   64 1  
    71   30   65 1  
    72   31   66 1  
    73   33   67 1  
    74   33   68 1  
    75   34   69 1  
    76   34   70 1  
    77   38   71 1  
    78   38   72 1  
    79   38   73 1  
    80   40   74 1  
@<TRIPOS>SUBSTRUCTURE
     1 BIM         1

