### 
### Created by X-TOOL on Mon Sep 10 21:12:57 2018
### 

@<TRIPOS>MOLECULE
2ow6_ligand
   27    28     1     0     0
SMALL
GAST_HUCK


@<TRIPOS>ATOM
      1 O7         31.8550   67.3780    5.7790 O.3       1 NK1        -0.3840
      2 C7         31.7270   66.9850    7.1530 C.3       1 NK1         0.1352
      3 C6         30.9160   65.7060    7.2110 C.3       1 NK1         0.1738
      4 C5         29.4730   65.7890    6.7310 C.3       1 NK1         0.1054
      5 O5         28.9260   64.4680    6.8110 O.3       1 NK1        -0.3867
      6 C4         28.5620   66.7080    7.5720 C.3       1 NK1        -0.0178
      7 C3         28.5310   66.3400    9.0540 C.3       1 NK1        -0.0052
      8 C2         29.8920   66.4390    9.7390 C.3       1 NK1         0.1104
      9 S1         31.0680   65.3100    8.9600 S.3       1 NK1         0.0006
     10 C9         32.6790   66.0660    9.2080 C.3       1 NK1         0.1385
     11 C8         33.0380   66.7310    7.8710 C.3       1 NK1         0.1303
     12 O8         33.9040   65.8570    7.1340 O.3       1 NK1        -0.3844
     13 H1         32.3619   68.1797    5.7260 H         1 NK1         0.2101
     14 H2         31.1921   67.7839    7.6875 H         1 NK1         0.0672
     15 H3         31.4101   64.9326    6.6047 H         1 NK1         0.0931
     16 H4         29.4668   66.1426    5.6894 H         1 NK1         0.0644
     17 H5         29.4305   63.8835    6.2575 H         1 NK1         0.2100
     18 H6         27.5383   66.6421    7.1750 H         1 NK1         0.0293
     19 H7         28.9263   67.7416    7.4770 H         1 NK1         0.0293
     20 H8         28.1695   65.3053    9.1475 H         1 NK1         0.0311
     21 H9         27.8341   67.0196    9.5662 H         1 NK1         0.0311
     22 H10        29.7840   66.1745   10.8012 H         1 NK1         0.0840
     23 H11        30.2672   67.4695    9.6540 H         1 NK1         0.0840
     24 H12        33.4254   65.3010    9.4681 H         1 NK1         0.0867
     25 H13        32.6302   66.8181   10.0092 H         1 NK1         0.0867
     26 H14        33.5544   67.6864    8.0460 H         1 NK1         0.0668
     27 H15        34.1303   66.2623    6.3052 H         1 NK1         0.2101
@<TRIPOS>BOND
     1    1    2 1  
     2    2    3 1  
     3    2   11 1  
     4    3    4 1  
     5    3    9 1  
     6    4    5 1  
     7    4    6 1  
     8    6    7 1  
     9    7    8 1  
    10    8    9 1  
    11    9   10 1  
    12   10   11 1  
    13   11   12 1  
    14    1   13 1  
    15    2   14 1  
    16    3   15 1  
    17    4   16 1  
    18    5   17 1  
    19    6   18 1  
    20    6   19 1  
    21    7   20 1  
    22    7   21 1  
    23    8   22 1  
    24    8   23 1  
    25   10   24 1  
    26   10   25 1  
    27   11   26 1  
    28   12   27 1  
@<TRIPOS>SUBSTRUCTURE
     1 NK1         1

