### 
### Created by X-TOOL on Mon Sep 10 21:12:57 2018
### 

@<TRIPOS>MOLECULE
2ow7_ligand
   26    27     1     0     0
SMALL
GAST_HUCK


@<TRIPOS>ATOM
      1 O7         31.7020   66.8190    6.2520 O.3       1 NK2        -0.3841
      2 C7         31.5130   66.2910    7.5660 C.3       1 NK2         0.1327
      3 C6         30.6750   64.9970    7.5380 C.3       1 NK2         0.1483
      4 C5         29.2670   65.1930    6.9370 C.3       1 NK2        -0.0021
      5 C4         28.3170   66.0200    7.8000 C.3       1 NK2        -0.0442
      6 C3         28.2320   65.5710    9.2740 C.3       1 NK2        -0.0076
      7 C2         29.5430   65.6830   10.0510 C.3       1 NK2         0.1102
      8 S1         30.7980   64.6380    9.2980 S.3       1 NK2        -0.0020
      9 C9         32.4620   65.2830    9.6250 C.3       1 NK2         0.1384
     10 C8         32.7950   66.0260    8.3280 C.3       1 NK2         0.1302
     11 O8         33.7090   65.2390    7.5710 O.3       1 NK2        -0.3844
     12 H1         32.2204   67.6135    6.3027 H         1 NK2         0.2101
     13 H2         30.9480   67.0462    8.1321 H         1 NK2         0.0671
     14 H3         31.1721   64.2103    6.9515 H         1 NK2         0.0904
     15 H4         28.8172   64.2006    6.7860 H         1 NK2         0.0314
     16 H5         29.3757   65.6980    5.9658 H         1 NK2         0.0314
     17 H6         27.3100   65.9531    7.3625 H         1 NK2         0.0268
     18 H7         28.6572   67.0659    7.7791 H         1 NK2         0.0268
     19 H8         27.9104   64.5193    9.2941 H         1 NK2         0.0310
     20 H9         27.4796   66.1942    9.7794 H         1 NK2         0.0310
     21 H10        29.3785   65.3627   11.0904 H         1 NK2         0.0840
     22 H11        29.8849   66.7284   10.0391 H         1 NK2         0.0840
     23 H12        33.1753   64.4660    9.8085 H         1 NK2         0.0867
     24 H13        32.4600   65.9682   10.4855 H         1 NK2         0.0867
     25 H14        33.2695   66.9886    8.5693 H         1 NK2         0.0668
     26 H15        33.9219   65.6920    6.7636 H         1 NK2         0.2101
@<TRIPOS>BOND
     1    1    2 1  
     2    2    3 1  
     3    2   10 1  
     4    3    4 1  
     5    3    8 1  
     6    4    5 1  
     7    5    6 1  
     8    6    7 1  
     9    7    8 1  
    10    8    9 1  
    11    9   10 1  
    12   10   11 1  
    13    1   12 1  
    14    2   13 1  
    15    3   14 1  
    16    4   15 1  
    17    4   16 1  
    18    5   17 1  
    19    5   18 1  
    20    6   19 1  
    21    6   20 1  
    22    7   21 1  
    23    7   22 1  
    24    9   23 1  
    25    9   24 1  
    26   10   25 1  
    27   11   26 1  
@<TRIPOS>SUBSTRUCTURE
     1 NK2         1

