### 
### Created by X-TOOL on Mon Sep 10 21:12:55 2018
### 

@<TRIPOS>MOLECULE
2ow9_ligand
   44    47     1     0     0
SMALL
GAST_HUCK


@<TRIPOS>ATOM
      1 N1         52.4370   10.8670    9.5550 N.am      1 SP6        -0.1234
      2 C4         49.2400   10.5110    7.6940 C.3       1 SP6         0.0924
      3 C5         51.1270   10.9560    9.2620 C.2       1 SP6         0.3678
      4 C6         53.0010   11.3130   10.7160 C.2       1 SP6         0.1029
      5 C7         55.0790   11.4280   11.8040 C.2       1 SP6         0.2505
      6 C8         54.3290   11.0920   10.7340 C.2       1 SP6         0.1326
      7 C10        47.3490    6.9380    9.2510 C.ar      1 SP6        -0.0687
      8 C13        46.8700    7.5450    8.0900 C.ar      1 SP6        -0.0685
      9 C15        47.4810    8.6990    7.5880 C.ar      1 SP6        -0.0580
     10 C17        49.0530    8.6340    9.4130 C.ar      1 SP6        -0.0580
     11 C20        56.8610   10.1720   14.2470 C.ar      1 SP6        -0.0131
     12 C21        48.5790    9.2550    8.2470 C.ar      1 SP6        -0.0162
     13 O3         54.6350   12.0970   12.7350 O.2       1 SP6        -0.3775
     14 O4         56.4350   10.9240   11.9440 O.3       1 SP6        -0.2700
     15 C11        57.1970   11.1560   13.1370 C.3       1 SP6         0.1086
     16 C16        57.5240   10.2740   15.4770 C.ar      1 SP6        -0.0578
     17 C18        57.2480    9.3910   16.5280 C.ar      1 SP6        -0.0685
     18 C14        55.8990    9.1730   14.0780 C.ar      1 SP6        -0.0578
     19 C12        55.6180    8.2850   15.1230 C.ar      1 SP6        -0.0685
     20 C9         56.2860    8.3900   16.3440 C.ar      1 SP6        -0.0687
     21 C3         53.3330   10.3140    8.7300 C.2       1 SP6         0.1648
     22 S1         54.9250   10.3220    9.3540 S.3       1 SP6         0.0003
     23 C2         52.9500    9.7940    7.4870 C.2       1 SP6         0.0101
     24 C1         51.5970    9.8550    7.1310 C.2       1 SP6         0.1706
     25 O1         51.1980    9.4030    6.0310 O.2       1 SP6        -0.4243
     26 O2         50.3130   11.4770   10.0630 O.2       1 SP6        -0.3684
     27 N6         50.6720   10.4450    8.0270 N.am      1 SP6        -0.1589
     28 C19        48.4470    7.4840    9.9150 C.ar      1 SP6        -0.0685
     29 H1         48.7896   11.4042    8.1515 H         1 SP6         0.0740
     30 H2         49.1105   10.5532    6.6025 H         1 SP6         0.0740
     31 H3         52.4469   11.7873   11.5247 H         1 SP6         0.1090
     32 H4         46.8695    6.0452    9.6356 H         1 SP6         0.0559
     33 H5         46.0178    7.1192    7.5728 H         1 SP6         0.0599
     34 H6         47.1009    9.1627    6.6849 H         1 SP6         0.0557
     35 H7         49.9056    9.0565    9.9322 H         1 SP6         0.0557
     36 H8         58.2661   11.0630   12.8956 H         1 SP6         0.0775
     37 H9         56.9892   12.1751   13.4950 H         1 SP6         0.0775
     38 H10        58.2655   11.0521   15.6178 H         1 SP6         0.0557
     39 H11        57.7724    9.4811   17.4724 H         1 SP6         0.0599
     40 H12        55.3694    9.0854   13.1362 H         1 SP6         0.0557
     41 H13        54.8747    7.5086   14.9826 H         1 SP6         0.0599
     42 H14        56.0608    7.6985   17.1478 H         1 SP6         0.0559
     43 H15        53.6852    9.3538    6.8150 H         1 SP6         0.0079
     44 H16        48.8268    7.0166   10.8163 H         1 SP6         0.0599
@<TRIPOS>BOND
     1    1    3 am 
     2    4    1 am 
     3    1   21 am 
     4    2   12 1  
     5   27    2 1  
     6    3   26 2  
     7    3   27 am 
     8    6    4 2  
     9    5    6 1  
    10    5   13 2  
    11   14    5 1  
    12    6   22 1  
    13    8    7 ar 
    14   28    7 ar 
    15    9    8 ar 
    16   12    9 ar 
    17   12   10 ar 
    18   10   28 ar 
    19   15   11 1  
    20   11   16 ar 
    21   11   18 ar 
    22   14   15 1  
    23   16   17 ar 
    24   17   20 ar 
    25   18   19 ar 
    26   19   20 ar 
    27   21   22 1  
    28   21   23 2  
    29   23   24 1  
    30   24   25 2  
    31   24   27 am 
    32    2   29 1  
    33    2   30 1  
    34    4   31 1  
    35    7   32 1  
    36    8   33 1  
    37    9   34 1  
    38   10   35 1  
    39   15   36 1  
    40   15   37 1  
    41   16   38 1  
    42   17   39 1  
    43   18   40 1  
    44   19   41 1  
    45   20   42 1  
    46   23   43 1  
    47   28   44 1  
@<TRIPOS>SUBSTRUCTURE
     1 SP6         1

