### 
### Created by X-TOOL on Mon Sep 10 21:12:56 2018
### 

@<TRIPOS>MOLECULE
2owb_ligand
   59    63     1     0     0
SMALL
GAST_HUCK


@<TRIPOS>ATOM
      1 C1         -0.6310   28.7700   64.1010 C.2       1 626         0.1942
      2 O2         -0.2580   29.7610   63.4780 O.2       1 626        -0.3933
      3 N3         -0.0340   28.4200   65.2440 N.am      1 626        -0.2606
      4 N4          2.2070   28.5660   68.0640 N.2       1 626        -0.2618
      5 C5          1.0950   26.8180   68.4280 C.2       1 626         0.1754
      6 N6          2.0440   27.5860   68.8750 N.pl3     1 626        -0.2205
      7 N7          0.7470   25.6700   69.1520 N.am      1 626        -0.2133
      8 C8         -0.1730   24.7700   68.7470 C.2       1 626         0.2248
      9 C9         -0.4150   23.5420   69.5720 C.ar      1 626         0.0424
     10 O10        -0.8200   24.8810   67.7080 O.2       1 626        -0.3792
     11 C11         0.2030   23.3230   70.8220 C.ar      1 626        -0.0530
     12 C12        -0.0320   22.1590   71.5690 C.ar      1 626        -0.0381
     13 C13        -1.5290   21.3650   69.8610 C.ar      1 626        -0.0381
     14 C14        -1.2930   22.5310   69.1120 C.ar      1 626        -0.0530
     15 C15         1.3560   28.5080   66.9920 C.2       1 626         0.0095
     16 C16         0.6220   27.4120   67.1700 C.2       1 626         0.0103
     17 C17        -0.3620   27.2160   66.0640 C.3       1 626         0.0470
     18 C18         1.0500   29.2840   65.7690 C.3       1 626         0.0649
     19 N19        -1.1260   19.9640   71.9180 N.pl3     1 626        -0.2958
     20 C20        -1.7640   18.7760   71.3230 C.3       1 626         0.0680
     21 C21        -0.7340   18.0130   70.4850 C.3       1 626        -0.0118
     22 N22         0.4230   17.6180   71.3230 N.4       1 626         0.2359
     23 C23         0.9990   18.7730   72.0480 C.3       1 626        -0.0118
     24 C24        -0.0820   19.5050   72.8470 C.3       1 626         0.0680
     25 C25         1.4540   16.8830   70.5530 C.3       1 626        -0.0430
     26 C26        -0.9040   21.1450   71.1150 C.ar      1 626         0.0460
     27 C27        -1.1010   25.1660   60.8630 C.2       1 626        -0.0189
     28 C28         0.0640   25.9230   60.9060 C.2       1 626        -0.0924
     29 S29        -2.3310   25.7200   61.9460 S.3       1 626        -0.0419
     30 C30        -0.0550   27.0070   61.8670 C.2       1 626        -0.0791
     31 C31        -1.3080   26.9940   62.4920 C.2       1 626         0.0307
     32 C32        -1.7960   27.9610   63.5460 C.3       1 626         0.0821
     33 H1          2.5791   27.4321   69.7415 H         1 626         0.2404
     34 H2          1.2095   25.5075   70.0236 H         1 626         0.2285
     35 H3          0.8776   24.0747   71.2155 H         1 626         0.0636
     36 H4          0.4699   22.0343   72.5217 H         1 626         0.0530
     37 H5         -2.2063   20.6145   69.4699 H         1 626         0.0530
     38 H6         -1.7951   22.6591   68.1598 H         1 626         0.0636
     39 H7         -0.1829   26.2807   65.5135 H         1 626         0.0559
     40 H8         -1.4001   27.2346   66.4274 H         1 626         0.0559
     41 H9          0.6987   30.3010   65.9976 H         1 626         0.0660
     42 H10         1.9088   29.3380   65.0838 H         1 626         0.0660
     43 H11        -2.5994   19.0909   70.6804 H         1 626         0.0569
     44 H12        -2.1427   18.1230   72.1231 H         1 626         0.0569
     45 H13        -0.3844   18.6577   69.6652 H         1 626         0.0834
     46 H14        -1.2037   17.1104   70.0670 H         1 626         0.0834
     47 H15         0.0719   16.9806   72.0205 H         1 626         0.2032
     48 H16         1.4448   19.4690   71.3221 H         1 626         0.0834
     49 H17         1.7772   18.4145   72.7379 H         1 626         0.0834
     50 H18        -0.5209   18.8212   73.5885 H         1 626         0.0569
     51 H19         0.3608   20.3698   73.3627 H         1 626         0.0569
     52 H20         0.9865   16.0352   70.0307 H         1 626         0.0778
     53 H21         2.2275   16.5090   71.2399 H         1 626         0.0778
     54 H22         1.9132   17.5591   69.8168 H         1 626         0.0778
     55 H23        -1.2276   24.3047   60.2087 H         1 626         0.0603
     56 H24         0.9482   25.7297   60.3003 H         1 626         0.0373
     57 H25         0.7284   27.7346   62.0740 H         1 626         0.0284
     58 H26        -2.5320   28.6449   63.0981 H         1 626         0.0685
     59 H27        -2.2690   27.3978   64.3639 H         1 626         0.0685
@<TRIPOS>BOND
     1    1    2 2  
     2    1    3 am 
     3   32    1 1  
     4    3   17 1  
     5    3   18 1  
     6    4    6 1  
     7   15    4 2  
     8    5    6 1  
     9    5    7 1  
    10   16    5 2  
    11    7    8 am 
    12    8    9 1  
    13    8   10 2  
    14    9   11 ar 
    15    9   14 ar 
    16   11   12 ar 
    17   12   26 ar 
    18   14   13 ar 
    19   13   26 ar 
    20   15   16 1  
    21   18   15 1  
    22   17   16 1  
    23   19   20 1  
    24   19   24 1  
    25   26   19 1  
    26   20   21 1  
    27   21   22 1  
    28   23   22 1  
    29   22   25 1  
    30   24   23 1  
    31   28   27 2  
    32   29   27 1  
    33   30   28 1  
    34   31   29 1  
    35   31   30 2  
    36   31   32 1  
    37    6   33 1  
    38    7   34 1  
    39   11   35 1  
    40   12   36 1  
    41   13   37 1  
    42   14   38 1  
    43   17   39 1  
    44   17   40 1  
    45   18   41 1  
    46   18   42 1  
    47   20   43 1  
    48   20   44 1  
    49   21   45 1  
    50   21   46 1  
    51   22   47 1  
    52   23   48 1  
    53   23   49 1  
    54   24   50 1  
    55   24   51 1  
    56   25   52 1  
    57   25   53 1  
    58   25   54 1  
    59   27   55 1  
    60   28   56 1  
    61   30   57 1  
    62   32   58 1  
    63   32   59 1  
@<TRIPOS>SUBSTRUCTURE
     1 626         1

