### 
### Created by X-TOOL on Mon Sep 10 21:12:56 2018
### 

@<TRIPOS>MOLECULE
2oxd_ligand
   16    17     1     0     0
SMALL
GAST_HUCK


@<TRIPOS>ATOM
      1 BR1        20.8110    6.8790   22.6790 Br        1 K32        -0.0612
      2 C5         21.2880    7.4110   20.9220 C.ar      1 K32         0.0350
      3 C2         20.6760    8.5010   20.2990 C.ar      1 K32         0.0051
      4 BR2        19.3420    9.4560   21.2260 Br        1 K32        -0.0614
      5 C7         22.2620    6.6750   20.2730 C.ar      1 K32         0.1096
      6 N14        22.9720    5.6030   20.6600 N.am      1 K32        -0.2145
      7 C13        23.7530    5.3520   19.6020 C.2       1 K32         0.3118
      8 O10        24.5850    4.3650   19.6250 O.2       1 K32        -0.3928
      9 N6         23.6080    6.1890   18.5520 N.am      1 K32        -0.2145
     10 C8         22.6460    7.0410   18.9780 C.ar      1 K32         0.1096
     11 C4         22.0190    8.1310   18.3790 C.ar      1 K32         0.0350
     12 BR3        22.5890    8.5760   16.6590 Br        1 K32        -0.0612
     13 C3         21.0250    8.8860   19.0070 C.ar      1 K32         0.0051
     14 BR4        20.1640   10.3830   18.1410 Br        1 K32        -0.0614
     15 H1         22.9280    5.1106   21.5293 H         1 K32         0.2279
     16 H2         24.0915    6.1813   17.6767 H         1 K32         0.2279
@<TRIPOS>BOND
     1    1    2 1  
     2    2    3 ar 
     3    2    5 ar 
     4    3    4 1  
     5    3   13 ar 
     6    5    6 1  
     7    5   10 ar 
     8    6    7 am 
     9    7    8 2  
    10    7    9 am 
    11    9   10 1  
    12   10   11 ar 
    13   11   12 1  
    14   11   13 ar 
    15   13   14 1  
    16    6   15 1  
    17    9   16 1  
@<TRIPOS>SUBSTRUCTURE
     1 K32         1

