### 
### Created by X-TOOL on Mon Sep 10 21:12:55 2018
### 

@<TRIPOS>MOLECULE
2oxn_ligand
   44    45     1     0     0
SMALL
GAST_HUCK


@<TRIPOS>ATOM
      1 CAH         6.0760   -9.0380   13.5880 C.3       1 OAN         0.0258
      2 CAG         5.7730   -8.7620   12.1440 C.2       1 OAN         0.1755
      3 OAN         6.5900   -8.2250   11.4090 O.2       1 OAN        -0.3972
      4 NAI         4.5650   -9.1310   11.7140 N.am      1 OAN        -0.2641
      5 CAB         4.1970   -8.9000   10.3120 C.3       1 OAN         0.1483
      6 CAC         3.1290   -7.7990   10.3010 C.3       1 OAN         0.1223
      7 OAJ         3.7980   -6.5570   10.5820 O.3       1 OAN        -0.3842
      8 CAD         2.4200   -7.7660    8.9440 C.3       1 OAN         0.1187
      9 OAK         1.4540   -6.7000    8.9150 O.3       1 OAN        -0.3859
     10 CAE         1.7420   -9.1000    8.6200 C.3       1 OAN         0.1375
     11 CAF         1.2520   -9.0700    7.1830 C.3       1 OAN         0.0780
     12 OAM         2.0770   -9.1540    6.2710 O.3       1 OAN        -0.3919
     13 OAL         2.6360  -10.2260    8.7110 O.3       1 OAN        -0.2871
     14 CAA         3.7330  -10.1560    9.6430 C.2       1 OAN         0.1893
     15 NAY         4.3760  -11.2080    9.8890 N.2       1 OAN        -0.1541
     16 OAQ         3.9440  -12.3300    9.2750 O.3       1 OAN        -0.1506
     17 CAP         4.7300  -13.5280    9.4400 C.2       1 OAN         0.3788
     18 OAR         5.6450  -13.4650   10.2520 O.2       1 OAN        -0.3643
     19 NAO         4.3730  -14.5860    8.7070 N.am      1 OAN        -0.2057
     20 CAS         4.9760  -15.8540    8.6880 C.ar      1 OAN         0.0683
     21 CAT         6.1030  -16.1600    9.4520 C.ar      1 OAN        -0.0414
     22 CAU         6.6520  -17.4330    9.3910 C.ar      1 OAN        -0.0756
     23 CAV         6.0970  -18.3990    8.5620 C.ar      1 OAN        -0.0773
     24 CAW         4.9720  -18.1060    7.7930 C.ar      1 OAN        -0.0756
     25 CAX         4.4180  -16.8270    7.8610 C.ar      1 OAN        -0.0414
     26 H1          5.2079   -9.5227   14.0586 H         1 OAN         0.0467
     27 H2          6.2922   -8.0913   14.1048 H         1 OAN         0.0467
     28 H3          6.9499   -9.7023   13.6588 H         1 OAN         0.0467
     29 H4          3.9160   -9.5612   12.3415 H         1 OAN         0.1888
     30 H5          5.0819   -8.5378    9.7681 H         1 OAN         0.0821
     31 H6          2.3837   -7.9976   11.0852 H         1 OAN         0.0672
     32 H7          4.2165   -6.6096   11.4332 H         1 OAN         0.2103
     33 H8          3.1760   -7.5709    8.1692 H         1 OAN         0.0653
     34 H9          1.0211   -6.6894    8.0695 H         1 OAN         0.2100
     35 H10         0.8969   -9.2463    9.3087 H         1 OAN         0.0708
     36 H11         0.7137   -8.1207    7.0451 H         1 OAN         0.0588
     37 H12         0.5515   -9.9095    7.0630 H         1 OAN         0.0588
     38 H13         2.5485   -9.9753    6.3467 H         1 OAN         0.2095
     39 H14         3.5862  -14.4608    8.1026 H         1 OAN         0.2276
     40 H15         6.5481  -15.4058   10.0909 H         1 OAN         0.0501
     41 H16         7.5195  -17.6749    9.9943 H         1 OAN         0.0577
     42 H17         6.5412  -19.3866    8.5127 H         1 OAN         0.0487
     43 H18         4.5334  -18.8613    7.1509 H         1 OAN         0.0577
     44 H19         3.5449  -16.5880    7.2646 H         1 OAN         0.0501
@<TRIPOS>BOND
     1    1    2 1  
     2    2    3 2  
     3    2    4 am 
     4    4    5 1  
     5    5    6 1  
     6    5   14 1  
     7    6    7 1  
     8    6    8 1  
     9    8    9 1  
    10    8   10 1  
    11   10   11 1  
    12   10   13 1  
    13   11   12 1  
    14   13   14 1  
    15   14   15 2  
    16   15   16 1  
    17   16   17 1  
    18   17   18 2  
    19   17   19 am 
    20   19   20 1  
    21   20   21 ar 
    22   20   25 ar 
    23   21   22 ar 
    24   22   23 ar 
    25   23   24 ar 
    26   24   25 ar 
    27    1   26 1  
    28    1   27 1  
    29    1   28 1  
    30    4   29 1  
    31    5   30 1  
    32    6   31 1  
    33    7   32 1  
    34    8   33 1  
    35    9   34 1  
    36   10   35 1  
    37   11   36 1  
    38   11   37 1  
    39   12   38 1  
    40   19   39 1  
    41   21   40 1  
    42   22   41 1  
    43   23   42 1  
    44   24   43 1  
    45   25   44 1  
@<TRIPOS>SUBSTRUCTURE
     1 OAN         1

