### 
### Created by X-TOOL on Mon Sep 10 21:12:56 2018
### 

@<TRIPOS>MOLECULE
2oxx_ligand
   16    17     1     0     0
SMALL
GAST_HUCK


@<TRIPOS>ATOM
      1 BR1        22.5810    8.4420   16.7820 Br        1 K22        -0.0589
      2 C5         22.1910    7.8580   18.5320 C.ar      1 K22         0.0399
      3 C2         21.2130    8.6120   19.1490 C.ar      1 K22         0.0084
      4 BR2        20.3270   10.0520   18.2530 Br        1 K22        -0.0597
      5 C7         22.8050    6.7860   19.2230 C.ar      1 K22         0.1199
      6 N14        23.7590    5.8770   18.9430 N.am      1 K22        -0.2273
      7 C13        23.9310    5.0750   20.0330 C.2       1 K22         0.1835
      8 S10        24.9650    3.7980   20.2190 S.2       1 K22        -0.3083
      9 N6         23.1030    5.4640   21.0070 N.am      1 K22        -0.2273
     10 C8         22.4130    6.4980   20.5400 C.ar      1 K22         0.1199
     11 C4         21.4450    7.2530   21.1540 C.ar      1 K22         0.0399
     12 BR4        20.8900    6.8860   22.9370 Br        1 K22        -0.0589
     13 C3         20.8740    8.2780   20.4410 C.ar      1 K22         0.0084
     14 BR3        19.5750    9.2700   21.2980 Br        1 K22        -0.0597
     15 H1         24.2581    5.8025   18.0797 H         1 K22         0.2403
     16 H2         23.0189    5.0542   21.9153 H         1 K22         0.2403
@<TRIPOS>BOND
     1    1    2 1  
     2    2    3 ar 
     3    2    5 ar 
     4    3    4 1  
     5    3   13 ar 
     6    5    6 1  
     7    5   10 ar 
     8    6    7 am 
     9    7    8 2  
    10    7    9 am 
    11    9   10 1  
    12   10   11 ar 
    13   11   12 1  
    14   11   13 ar 
    15   13   14 1  
    16    6   15 1  
    17    9   16 1  
@<TRIPOS>SUBSTRUCTURE
     1 K22         1

