### 
### Created by X-TOOL on Mon Sep 10 21:12:56 2018
### 

@<TRIPOS>MOLECULE
2oxy_ligand
   15    16     1     0     0
SMALL
GAST_HUCK


@<TRIPOS>ATOM
      1 BR3       -10.8420    2.6260    6.6060 Br        1 K17        -0.0505
      2 C3        -11.0520    4.3300    5.8440 C.ar      1 K17         0.0498
      3 C2        -10.8190    5.4380    6.6640 C.ar      1 K17         0.0225
      4 BR2       -10.2460    5.1060    8.4570 Br        1 K17        -0.0512
      5 C7        -11.4630    4.4630    4.5290 C.ar      1 K17         0.1004
      6 N8        -11.7410    3.5240    3.5610 N.pl3     1 K17        -0.2459
      7 C9        -12.0720    4.2500    2.4790 C.2       1 K17         0.1068
      8 N5        -12.0180    5.5850    2.7590 N.2       1 K17        -0.3009
      9 C6        -11.6430    5.7520    4.0320 C.ar      1 K17         0.0502
     10 C4        -11.4170    6.8990    4.8430 C.ar      1 K17         0.0282
     11 BR4       -11.6770    8.6770    4.1740 Br        1 K17        -0.0498
     12 C1        -11.0010    6.7360    6.1670 C.ar      1 K17         0.0205
     13 BR1       -10.7180    8.2340    7.3270 Br        1 K17        -0.0535
     14 H1        -11.7038    2.4982    3.6465 H         1 K17         0.2363
     15 H2        -12.3456    3.8307    1.5119 H         1 K17         0.1371
@<TRIPOS>BOND
     1    1    2 1  
     2    2    3 ar 
     3    2    5 ar 
     4    3    4 1  
     5    3   12 ar 
     6    5    6 1  
     7    5    9 ar 
     8    6    7 1  
     9    7    8 2  
    10    8    9 1  
    11    9   10 ar 
    12   10   11 1  
    13   10   12 ar 
    14   12   13 1  
    15    6   14 1  
    16    7   15 1  
@<TRIPOS>SUBSTRUCTURE
     1 K17         1

