### 
### Created by X-TOOL on Mon Sep 10 21:12:55 2018
### 

@<TRIPOS>MOLECULE
2oyk_ligand
   45    46     1     0     0
SMALL
GAST_HUCK


@<TRIPOS>ATOM
      1 O2B        28.9510   61.1250  -25.7520 O.3       1 9MR        -0.3841
      2 C2B        29.3330   59.7590  -25.7350 C.3       1 9MR         0.1341
      3 C3B        30.8000   59.6320  -26.1520 C.3       1 9MR         0.1141
      4 O3B        31.6140   60.3200  -25.1940 O.3       1 9MR        -0.3864
      5 C4B        31.1900   58.1570  -26.2250 C.3       1 9MR         0.1119
      6 O4B        32.5130   58.0530  -26.7810 O.3       1 9MR        -0.3865
      7 C5B        30.1900   57.3800  -27.0910 C.3       1 9MR         0.1130
      8 C6B        30.4760   55.8890  -27.0170 C.3       1 9MR         0.0730
      9 O6B        30.3750   55.4190  -25.6570 O.3       1 9MR        -0.3924
     10 O5B        28.8470   57.5630  -26.5880 O.3       1 9MR        -0.3405
     11 C1B        28.4360   58.9340  -26.6520 C.3       1 9MR         0.1883
     12 O3A        27.1110   58.9690  -26.1310 O.3       1 9MR        -0.3421
     13 C3A        26.1360   58.3940  -27.0070 C.3       1 9MR         0.1023
     14 C4A        25.1900   57.4680  -26.2380 C.3       1 9MR         0.1213
     15 O4A        25.9310   56.4620  -25.5550 O.3       1 9MR        -0.3839
     16 C5M        24.2150   56.8000  -27.1970 C.3       1 9MR        -0.0045
     17 N5A        23.4410   57.8170  -27.9400 N.4       1 9MR         0.2292
     18 C1A        24.3090   58.7950  -28.6330 C.3       1 9MR        -0.0261
     19 C2A        25.2480   59.4630  -27.6320 C.3       1 9MR         0.0511
     20 C6A        26.0640   60.5880  -28.2940 C.3       1 9MR         0.0543
     21 O6A        26.7860   60.1180  -29.4410 O.3       1 9MR        -0.3945
     22 H1         29.4959   61.6126  -25.1454 H         1 9MR         0.2101
     23 H2         29.2251   59.3769  -24.7092 H         1 9MR         0.0671
     24 H3         30.9396   60.0901  -27.1423 H         1 9MR         0.0648
     25 H4         31.4880   59.9318  -24.3361 H         1 9MR         0.2100
     26 H5         31.1887   57.7321  -25.2104 H         1 9MR         0.0647
     27 H6         32.5197   58.4314  -27.6523 H         1 9MR         0.2100
     28 H7         30.2575   57.7291  -28.1319 H         1 9MR         0.0647
     29 H8         31.4924   55.6969  -27.3911 H         1 9MR         0.0584
     30 H9         29.7477   55.3499  -27.6407 H         1 9MR         0.0584
     31 H10        30.5567   54.4869  -25.6309 H         1 9MR         0.2095
     32 H11        28.4729   59.3154  -27.6831 H         1 9MR         0.0938
     33 H12        26.6552   57.8305  -27.7962 H         1 9MR         0.0630
     34 H13        24.6260   58.0626  -25.5043 H         1 9MR         0.0673
     35 H14        26.4229   55.9495  -26.1857 H         1 9MR         0.2101
     36 H15        23.5226   56.1647  -26.6252 H         1 9MR         0.0840
     37 H16        24.7769   56.1799  -27.9109 H         1 9MR         0.0840
     38 H17        22.8506   58.3123  -27.2903 H         1 9MR         0.2014
     39 H18        22.8684   57.3502  -28.6258 H         1 9MR         0.2014
     40 H19        23.6829   59.5619  -29.1124 H         1 9MR         0.0818
     41 H20        24.9035   58.2755  -29.3990 H         1 9MR         0.0818
     42 H21        24.6408   59.9154  -26.8341 H         1 9MR         0.0401
     43 H22        26.7807   60.9868  -27.5610 H         1 9MR         0.0562
     44 H23        25.3777   61.3880  -28.6085 H         1 9MR         0.0562
     45 H24        27.2761   60.8372  -29.8219 H         1 9MR         0.2094
@<TRIPOS>BOND
     1    1    2 1  
     2    2    3 1  
     3    2   11 1  
     4    3    4 1  
     5    3    5 1  
     6    5    6 1  
     7    5    7 1  
     8    7    8 1  
     9    7   10 1  
    10    8    9 1  
    11   10   11 1  
    12   11   12 1  
    13   12   13 1  
    14   13   14 1  
    15   13   19 1  
    16   14   15 1  
    17   14   16 1  
    18   16   17 1  
    19   17   18 1  
    20   18   19 1  
    21   19   20 1  
    22   20   21 1  
    23    1   22 1  
    24    2   23 1  
    25    3   24 1  
    26    4   25 1  
    27    5   26 1  
    28    6   27 1  
    29    7   28 1  
    30    8   29 1  
    31    8   30 1  
    32    9   31 1  
    33   11   32 1  
    34   13   33 1  
    35   14   34 1  
    36   15   35 1  
    37   16   36 1  
    38   16   37 1  
    39   17   38 1  
    40   17   39 1  
    41   18   40 1  
    42   18   41 1  
    43   19   42 1  
    44   20   43 1  
    45   20   44 1  
    46   21   45 1  
@<TRIPOS>SUBSTRUCTURE
     1 9MR         1

