### 
### Created by X-TOOL on Mon Sep 10 21:12:55 2018
### 

@<TRIPOS>MOLECULE
2oyl_ligand
   47    49     1     0     0
SMALL
GAST_HUCK


@<TRIPOS>ATOM
      1 C1A        28.6580   59.0970  -26.4550 C.3       1 IDC         0.1885
      2 C2A        29.6170   59.8630  -25.5440 C.3       1 IDC         0.1341
      3 C3A        31.0650   59.6880  -26.0140 C.3       1 IDC         0.1141
      4 C4A        31.4030   58.2110  -26.1100 C.3       1 IDC         0.1119
      5 C5A        30.3640   57.4790  -26.9800 C.3       1 IDC         0.1130
      6 C6A        30.6090   55.9670  -26.9480 C.3       1 IDC         0.0730
      7 O2A        29.3000   61.2320  -25.5330 O.3       1 IDC        -0.3841
      8 O3A        31.9270   60.3160  -25.0700 O.3       1 IDC        -0.3864
      9 O4A        32.7210   58.0680  -26.6760 O.3       1 IDC        -0.3865
     10 O5A        29.0110   57.7000  -26.4710 O.3       1 IDC        -0.3405
     11 O6A        30.3900   55.4390  -25.6330 O.3       1 IDC        -0.3924
     12 C1B        24.1230   58.2290  -28.4830 C.2       1 IDC         0.1465
     13 C2B        24.4830   57.1950  -27.3960 C.3       1 IDC         0.1586
     14 C3B        25.3330   57.8290  -26.2930 C.3       1 IDC         0.1257
     15 C4B        26.3640   58.7810  -26.8970 C.3       1 IDC         0.1248
     16 C5B        25.5960   59.9910  -27.4510 C.3       1 IDC         0.1200
     17 C6B        26.5310   61.0610  -28.0110 C.3       1 IDC         0.0773
     18 O2B        23.3330   56.5350  -26.8220 O.3       1 IDC        -0.3699
     19 O3B        25.9930   56.7910  -25.5530 O.3       1 IDC        -0.3839
     20 O4B        27.3320   59.1620  -25.9120 O.3       1 IDC        -0.3394
     21 N1B        24.6780   59.5290  -28.5060 N.pl3     1 IDC        -0.2404
     22 O6B        27.3190   60.5550  -29.0880 O.3       1 IDC        -0.3918
     23 N2B        23.3520   58.1390  -29.5630 N.2       1 IDC        -0.3367
     24 C7B        23.3950   59.3050  -30.2150 C.2       1 IDC        -0.0364
     25 C8B        24.1950   60.1500  -29.5720 C.2       1 IDC         0.0285
     26 H1         28.6857   59.5176  -27.4710 H         1 IDC         0.0938
     27 H2         29.5232   59.4666  -24.5222 H         1 IDC         0.0671
     28 H3         31.1922   60.1569  -27.0009 H         1 IDC         0.0648
     29 H4         31.3943   57.7727  -25.1012 H         1 IDC         0.0647
     30 H5         30.4374   57.8476  -28.0138 H         1 IDC         0.0647
     31 H6         31.6475   55.7643  -27.2487 H         1 IDC         0.0584
     32 H7         29.9210   55.4760  -27.6520 H         1 IDC         0.0584
     33 H8         29.8864   61.6869  -24.9400 H         1 IDC         0.2101
     34 H9         31.8123   59.9097  -24.2189 H         1 IDC         0.2100
     35 H10        32.7311   58.4398  -27.5502 H         1 IDC         0.2100
     36 H11        30.5478   54.5023  -25.6388 H         1 IDC         0.2095
     37 H12        25.0928   56.4188  -27.8814 H         1 IDC         0.0858
     38 H13        24.6785   58.3959  -25.6146 H         1 IDC         0.0675
     39 H14        26.8873   58.2776  -27.7232 H         1 IDC         0.0658
     40 H15        25.0089   60.4367  -26.6345 H         1 IDC         0.0704
     41 H16        27.2007   61.4057  -27.2093 H         1 IDC         0.0589
     42 H17        25.9291   61.9067  -28.3750 H         1 IDC         0.0589
     43 H18        22.8075   57.1703  -26.3499 H         1 IDC         0.2138
     44 H19        26.5648   56.3037  -26.1344 H         1 IDC         0.2103
     45 H20        26.7465   60.2597  -29.7863 H         1 IDC         0.2095
     46 H21        22.8560   59.5291  -31.1343 H         1 IDC         0.0408
     47 H22        24.4150   61.1742  -29.8697 H         1 IDC         0.0796
@<TRIPOS>BOND
     1    1    2 1  
     2    1   10 1  
     3   20    1 1  
     4    2    3 1  
     5    2    7 1  
     6    3    4 1  
     7    3    8 1  
     8    5    4 1  
     9    4    9 1  
    10    5    6 1  
    11   10    5 1  
    12    6   11 1  
    13   13   12 1  
    14   12   21 1  
    15   12   23 2  
    16   14   13 1  
    17   13   18 1  
    18   15   14 1  
    19   14   19 1  
    20   15   16 1  
    21   15   20 1  
    22   16   17 1  
    23   16   21 1  
    24   17   22 1  
    25   21   25 1  
    26   23   24 1  
    27   24   25 2  
    28    1   26 1  
    29    2   27 1  
    30    3   28 1  
    31    4   29 1  
    32    5   30 1  
    33    6   31 1  
    34    6   32 1  
    35    7   33 1  
    36    8   34 1  
    37    9   35 1  
    38   11   36 1  
    39   13   37 1  
    40   14   38 1  
    41   15   39 1  
    42   16   40 1  
    43   17   41 1  
    44   17   42 1  
    45   18   43 1  
    46   19   44 1  
    47   22   45 1  
    48   24   46 1  
    49   25   47 1  
@<TRIPOS>SUBSTRUCTURE
     1 IDC         1

