### 
### Created by X-TOOL on Mon Sep 10 21:12:55 2018
### 

@<TRIPOS>MOLECULE
2oym_ligand
   46    47     1     0     0
SMALL
GAST_HUCK


@<TRIPOS>ATOM
      1 O1B        25.3250   58.5110  -32.7080 O.2       1 MNI        -0.3909
      2 C1B        24.6690   57.5440  -32.3470 C.2       1 MNI         0.1953
      3 C2B        24.8110   56.2730  -33.1330 C.ar      1 MNI         0.0361
      4 C3B        24.1070   55.1120  -32.8110 C.ar      1 MNI        -0.0535
      5 C4B        24.2660   53.9600  -33.5690 C.ar      1 MNI        -0.0381
      6 C5B        25.1150   53.9530  -34.6800 C.ar      1 MNI         0.0452
      7 N5B        25.2750   52.8330  -35.4470 N.pl3     1 MNI        -0.3121
      8 C8B        26.1610   52.8410  -36.6020 C.3       1 MNI         0.0162
      9 C9B        24.5750   51.6060  -35.1180 C.3       1 MNI         0.0162
     10 C6B        25.8000   55.1190  -35.0010 C.ar      1 MNI        -0.0381
     11 C7B        25.6530   56.2640  -34.2340 C.ar      1 MNI        -0.0535
     12 N1B        23.9110   57.6250  -31.2440 N.am      1 MNI        -0.2826
     13 C1A        23.6830   58.8600  -30.5000 C.3       1 MNI         0.0753
     14 C2A        24.1770   58.9690  -29.0740 C.3       1 MNI         0.0274
     15 N5A        23.7900   57.8450  -28.2380 N.4       1 MNI         0.2382
     16 C5M        24.9040   57.4260  -27.4190 C.3       1 MNI         0.0305
     17 C6A        24.4910   57.0810  -25.9990 C.3       1 MNI         0.0893
     18 O6A        23.4210   56.1360  -26.0670 O.3       1 MNI        -0.3894
     19 C4A        25.8960   58.5690  -27.5330 C.3       1 MNI         0.1307
     20 O4A        27.2480   58.1760  -27.2870 O.3       1 MNI        -0.3833
     21 C3A        25.6790   59.0260  -28.9600 C.3       1 MNI         0.1305
     22 O3A        26.2270   60.3270  -29.2000 O.3       1 MNI        -0.3833
     23 H1         23.4314   55.1097  -31.9633 H         1 MNI         0.0636
     24 H2         23.7279   53.0590  -33.2976 H         1 MNI         0.0530
     25 H3         26.1493   51.8503  -37.0800 H         1 MNI         0.0480
     26 H4         27.1846   53.0793  -36.2773 H         1 MNI         0.0480
     27 H5         25.8186   53.5993  -37.3215 H         1 MNI         0.0480
     28 H6         23.9519   51.7673  -34.2260 H         1 MNI         0.0480
     29 H7         25.3063   50.8097  -34.9153 H         1 MNI         0.0480
     30 H8         23.9359   51.3105  -35.9631 H         1 MNI         0.0480
     31 H9         26.4578   55.1330  -35.8625 H         1 MNI         0.0530
     32 H10        26.2017   57.1609  -34.4976 H         1 MNI         0.0636
     33 H11        23.4755   56.7887  -30.9109 H         1 MNI         0.1843
     34 H12        22.5955   59.0237  -30.4759 H         1 MNI         0.0576
     35 H13        24.1633   59.6701  -31.0684 H         1 MNI         0.0576
     36 H14        23.7515   59.8913  -28.6519 H         1 MNI         0.0897
     37 H15        23.5007   57.0779  -28.8244 H         1 MNI         0.2022
     38 H16        23.0244   58.1205  -27.6431 H         1 MNI         0.2022
     39 H17        25.3538   56.5216  -27.8545 H         1 MNI         0.0900
     40 H18        24.1544   57.9889  -25.4772 H         1 MNI         0.0614
     41 H19        25.3427   56.6421  -25.4588 H         1 MNI         0.0614
     42 H20        23.1467   55.9060  -25.1870 H         1 MNI         0.2097
     43 H21        25.6365   59.3717  -26.8270 H         1 MNI         0.0679
     44 H22        27.8170   58.9319  -27.3730 H         1 MNI         0.2102
     45 H23        26.1419   58.3217  -29.6668 H         1 MNI         0.0679
     46 H24        27.1622   60.3112  -29.0334 H         1 MNI         0.2102
@<TRIPOS>BOND
     1    1    2 2  
     2    2    3 1  
     3    2   12 am 
     4    3    4 ar 
     5    3   11 ar 
     6    4    5 ar 
     7    5    6 ar 
     8    6    7 1  
     9    6   10 ar 
    10    7    8 1  
    11    7    9 1  
    12   10   11 ar 
    13   12   13 1  
    14   13   14 1  
    15   14   15 1  
    16   14   21 1  
    17   15   16 1  
    18   16   17 1  
    19   16   19 1  
    20   17   18 1  
    21   19   20 1  
    22   19   21 1  
    23   21   22 1  
    24    4   23 1  
    25    5   24 1  
    26    8   25 1  
    27    8   26 1  
    28    8   27 1  
    29    9   28 1  
    30    9   29 1  
    31    9   30 1  
    32   10   31 1  
    33   11   32 1  
    34   12   33 1  
    35   13   34 1  
    36   13   35 1  
    37   14   36 1  
    38   15   37 1  
    39   15   38 1  
    40   16   39 1  
    41   17   40 1  
    42   17   41 1  
    43   18   42 1  
    44   19   43 1  
    45   20   44 1  
    46   21   45 1  
    47   22   46 1  
@<TRIPOS>SUBSTRUCTURE
     1 MNI         1

