### 
### Created by X-TOOL on Mon Sep 10 21:12:55 2018
### 

@<TRIPOS>MOLECULE
2oz5_ligand
   65    68     1     0     0
SMALL
GAST_HUCK


@<TRIPOS>ATOM
      1 CAV         8.3010   58.2470    8.1540 C.ar      1 7XY        -0.0445
      2 CBE         9.2070   57.2080    8.3520 C.ar      1 7XY         0.0338
      3 CLF         9.8490   56.4170    6.9550 Cl        1 7XY        -0.0725
      4 CAN         9.5800   56.8200    9.6370 C.ar      1 7XY        -0.0548
      5 CAM         9.0430   57.4870   10.7390 C.ar      1 7XY        -0.0680
      6 CAO         8.1400   58.5390   10.5450 C.ar      1 7XY        -0.0582
      7 CBF         7.7790   58.9230    9.2590 C.ar      1 7XY        -0.0199
      8 CAY         6.8050   60.0830    9.0330 C.3       1 7XY         0.0708
      9 NBL         7.4890   61.3600    9.4140 N.am      1 7XY        -0.2405
     10 CBD         6.9110   62.1320   10.3190 C.2       1 7XY         0.2501
     11 OAB         5.8570   61.8140   10.8470 O.2       1 7XY        -0.3651
     12 CBC         7.4880   63.4970   10.6540 C.2       1 7XY         0.1437
     13 OAE         7.9110   63.6520   11.8160 O.co2     1 7XY        -0.5457
     14 OAA         7.3710   64.4040    9.7920 O.co2     1 7XY        -0.5457
     15 CAZ         8.7780   61.7270    8.8100 C.3       1 7XY         0.0819
     16 CBG         8.6090   62.1220    7.3430 C.2       1 7XY         0.0368
     17 SBB         7.7280   63.4480    6.8440 S.3       1 7XY        -0.0136
     18 CAT         9.1260   61.5280    6.2530 C.2       1 7XY        -0.0778
     19 CAU         8.8100   62.1100    5.0780 C.2       1 7XY        -0.0661
     20 CBJ         8.0360   63.1950    5.2260 C.2       1 7XY         0.1492
     21 SBM         7.4200   64.1580    3.9920 S.o2      1 7XY         0.0709
     22 OAC         6.7550   65.3510    4.5870 O.2       1 7XY        -0.1516
     23 OAD         8.5230   64.5900    3.0800 O.2       1 7XY        -0.1516
     24 NBA         6.2650   63.3380    3.1520 N.am      1 7XY        -0.2481
     25 CAW         5.2030   62.9770    4.1180 C.3       1 7XY         0.0302
     26 CAX         3.9820   62.3540    3.4180 C.3       1 7XY        -0.0140
     27 CBK         4.2000   60.8760    3.1120 C.3       1 7XY         0.0270
     28 CBI         4.4650   59.9990    4.3400 C.ar      1 7XY        -0.0288
     29 CAR         3.6000   59.9470    5.4330 C.ar      1 7XY        -0.0581
     30 CAK         3.9210   59.1030    6.5000 C.ar      1 7XY        -0.0682
     31 CAH         5.0770   58.3150    6.4600 C.ar      1 7XY        -0.0685
     32 CAL         5.9160   58.3660    5.3630 C.ar      1 7XY        -0.0682
     33 CAS         5.6130   59.2130    4.3030 C.ar      1 7XY        -0.0581
     34 CBH         3.0970   60.2490    2.2110 C.ar      1 7XY        -0.0288
     35 CAP         1.7860   60.7150    2.1740 C.ar      1 7XY        -0.0581
     36 CAI         0.8720   60.1260    1.2930 C.ar      1 7XY        -0.0682
     37 CAG         1.2700   59.0700    0.4630 C.ar      1 7XY        -0.0685
     38 CAJ         2.5870   58.6050    0.4980 C.ar      1 7XY        -0.0682
     39 CAQ         3.4890   59.1970    1.3760 C.ar      1 7XY        -0.0581
     40 H1          8.0034   58.5287    7.1504 H         1 7XY         0.0562
     41 H2         10.2819   56.0063    9.7798 H         1 7XY         0.0565
     42 H3          9.3245   57.1911   11.7431 H         1 7XY         0.0599
     43 H4          7.7209   59.0559   11.4007 H         1 7XY         0.0559
     44 H5          5.9093   59.9420    9.6557 H         1 7XY         0.0690
     45 H6          6.5126   60.1208    7.9733 H         1 7XY         0.0690
     46 H7          9.4616   60.8676    8.8736 H         1 7XY         0.0717
     47 H8          9.2045   62.5766    9.3634 H         1 7XY         0.0717
     48 H9          9.7546   60.6409    6.3145 H         1 7XY         0.0278
     49 H10         9.1476   61.7382    4.1117 H         1 7XY         0.0391
     50 H11         6.2785   63.1245    2.1751 H         1 7XY         0.1671
     51 H12         4.8832   63.8844    4.6513 H         1 7XY         0.0478
     52 H13         5.6087   62.2518    4.8388 H         1 7XY         0.0478
     53 H14         3.7999   62.8901    2.4749 H         1 7XY         0.0327
     54 H15         3.1046   62.4566    4.0735 H         1 7XY         0.0327
     55 H16         5.1256   60.8415    2.5187 H         1 7XY         0.0619
     56 H17         2.6982   60.5482    5.4545 H         1 7XY         0.0561
     57 H18         3.2695   59.0584    7.3652 H         1 7XY         0.0600
     58 H19         5.3150   57.6625    7.2923 H         1 7XY         0.0561
     59 H20         6.8062   57.7484    5.3292 H         1 7XY         0.0600
     60 H21         6.2732   59.2614    3.4446 H         1 7XY         0.0561
     61 H22         1.4757   61.5269    2.8218 H         1 7XY         0.0561
     62 H23        -0.1488   60.4886    1.2527 H         1 7XY         0.0600
     63 H24         0.5534   58.6119   -0.2090 H         1 7XY         0.0561
     64 H25         2.9014   57.7946   -0.1497 H         1 7XY         0.0600
     65 H26         4.5111   58.8379    1.4139 H         1 7XY         0.0561
@<TRIPOS>BOND
     1    1    2 ar 
     2    1    7 ar 
     3    2    3 1  
     4    2    4 ar 
     5    4    5 ar 
     6    5    6 ar 
     7    6    7 ar 
     8    7    8 1  
     9    8    9 1  
    10    9   10 am 
    11    9   15 1  
    12   10   11 2  
    13   10   12 1  
    14   12   13 ar 
    15   12   14 ar 
    16   15   16 1  
    17   16   17 1  
    18   16   18 2  
    19   17   20 1  
    20   18   19 1  
    21   19   20 2  
    22   20   21 1  
    23   21   22 2  
    24   21   23 2  
    25   21   24 am 
    26   24   25 1  
    27   25   26 1  
    28   26   27 1  
    29   27   28 1  
    30   27   34 1  
    31   28   29 ar 
    32   28   33 ar 
    33   29   30 ar 
    34   30   31 ar 
    35   31   32 ar 
    36   32   33 ar 
    37   34   35 ar 
    38   34   39 ar 
    39   35   36 ar 
    40   36   37 ar 
    41   37   38 ar 
    42   38   39 ar 
    43    1   40 1  
    44    4   41 1  
    45    5   42 1  
    46    6   43 1  
    47    8   44 1  
    48    8   45 1  
    49   15   46 1  
    50   15   47 1  
    51   18   48 1  
    52   19   49 1  
    53   24   50 1  
    54   25   51 1  
    55   25   52 1  
    56   26   53 1  
    57   26   54 1  
    58   27   55 1  
    59   29   56 1  
    60   30   57 1  
    61   31   58 1  
    62   32   59 1  
    63   33   60 1  
    64   35   61 1  
    65   36   62 1  
    66   37   63 1  
    67   38   64 1  
    68   39   65 1  
@<TRIPOS>SUBSTRUCTURE
     1 7XY         1

