### 
### Created by X-TOOL on Mon Sep 10 21:12:56 2018
### 

@<TRIPOS>MOLECULE
2oz7_ligand
   58    62     1     0     0
SMALL
GAST_HUCK


@<TRIPOS>ATOM
      1 C4         25.3710    5.4860    4.3600 C.2       1 CA4         0.0420
      2 C14        27.7990    0.4200    3.9100 C.3       1 CA4        -0.0186
      3 C5         26.0230    4.2600    4.4340 C.2       1 CA4        -0.0275
      4 C6         25.2610    3.1080    4.6110 C.2       1 CA4         0.0381
      5 C11        29.5410    2.7440    3.9590 C.3       1 CA4        -0.0553
      6 C7         25.8560    1.8540    4.7240 C.2       1 CA4        -0.0504
      7 C8         27.3760    1.6800    4.6680 C.3       1 CA4        -0.0066
      8 C9         28.0150    2.8790    3.9640 C.3       1 CA4        -0.0471
      9 C10        27.5410    4.1740    4.6230 C.3       1 CA4        -0.0329
     10 C12        29.9710    1.4620    3.2380 C.3       1 CA4        -0.0456
     11 C13        29.3160    0.2570    3.9150 C.3       1 CA4         0.0122
     12 C3         26.0480    6.6800    4.1380 C.2       1 CA4         0.1771
     13 C19        27.7830    4.1280    6.1340 C.3       1 CA4        -0.0870
     14 C1         28.3140    5.3730    4.0650 C.3       1 CA4        -0.0422
     15 C22        27.9610    5.8950    2.6730 C.3       1 CA4        -0.0380
     16 C2         27.5610    6.6960    3.9160 C.3       1 CA4         0.0383
     17 O3         25.4290    7.7430    4.1380 O.2       1 CA4        -0.3454
     18 CL6        23.5410    3.2460    4.7440 Cl        1 CA4        -0.0891
     19 C18        29.8460    0.1050    5.3430 C.3       1 CA4        -0.0572
     20 C15        27.3500   -0.9240    4.4870 C.3       1 CA4        -0.0451
     21 C16        28.3530   -1.9110    3.8730 C.3       1 CA4        -0.0131
     22 C17        29.3940   -1.0580    3.1380 C.3       1 CA4         0.1647
     23 C20        30.7950   -1.6720    3.1960 C.2       1 CA4         0.1605
     24 C21        31.1210   -2.7110    4.2700 C.3       1 CA4         0.0139
     25 O20        31.6470   -1.3520    2.3680 O.2       1 CA4        -0.3296
     26 O17        28.9720   -0.8100    1.7920 O.3       1 CA4        -0.2666
     27 C23        29.0160   -1.9120    0.9930 C.2       1 CA4         0.2298
     28 C24        28.6380   -1.7700   -0.4820 C.3       1 CA4         0.0370
     29 O23        29.3700   -3.0040    1.4370 O.2       1 CA4        -0.3709
     30 H1         24.2890    5.5119    4.4805 H         1 CA4         0.1301
     31 H2         27.4253    0.5152    2.8798 H         1 CA4         0.0339
     32 H3         29.9038    2.7131    4.9970 H         1 CA4         0.0261
     33 H4         29.9782    3.6117    3.4434 H         1 CA4         0.0261
     34 H5         25.2250    0.9762    4.8553 H         1 CA4         0.0811
     35 H6         27.7553    1.6179    5.6987 H         1 CA4         0.0517
     36 H7         27.6754    2.8879    2.9178 H         1 CA4         0.0227
     37 H8         31.0653    1.3616    3.2881 H         1 CA4         0.0270
     38 H9         29.6549    1.5087    2.1854 H         1 CA4         0.0270
     39 H10        27.4360    5.0671    6.5896 H         1 CA4         0.0121
     40 H11        28.8580    4.0009    6.3295 H         1 CA4         0.0121
     41 H12        27.2289    3.2830    6.5686 H         1 CA4         0.0121
     42 H13        29.3592    5.3510    4.4071 H         1 CA4         0.0221
     43 H14        27.1904    5.3874    2.0743 H         1 CA4         0.0287
     44 H15        28.7536    6.2698    2.0087 H         1 CA4         0.0287
     45 H16        28.0199    7.6560    4.1948 H         1 CA4         0.0520
     46 H17        29.7726    1.0699    5.8660 H         1 CA4         0.0235
     47 H18        30.8977   -0.2159    5.3116 H         1 CA4         0.0235
     48 H19        29.2486   -0.6482    5.8776 H         1 CA4         0.0235
     49 H20        26.3210   -1.1628    4.1802 H         1 CA4         0.0270
     50 H21        27.4149   -0.9251    5.5851 H         1 CA4         0.0270
     51 H22        27.8435   -2.5835    3.1672 H         1 CA4         0.0281
     52 H23        28.8356   -2.5056    4.6626 H         1 CA4         0.0281
     53 H24        32.1653   -3.0381    4.1587 H         1 CA4         0.0452
     54 H25        30.4517   -3.5767    4.1579 H         1 CA4         0.0452
     55 H26        30.9805   -2.2655    5.2659 H         1 CA4         0.0452
     56 H27        28.7269   -2.7473   -0.9790 H         1 CA4         0.0483
     57 H28        29.3139   -1.0497   -0.9660 H         1 CA4         0.0483
     58 H29        27.6013   -1.4110   -0.5620 H         1 CA4         0.0483
@<TRIPOS>BOND
     1    3    1 2  
     2    1   12 1  
     3    7    2 1  
     4    2   11 1  
     5    2   20 1  
     6    4    3 1  
     7    3    9 1  
     8    6    4 2  
     9    4   18 1  
    10    8    5 1  
    11    5   10 1  
    12    7    6 1  
    13    7    8 1  
    14    8    9 1  
    15    9   13 1  
    16    9   14 1  
    17   10   11 1  
    18   11   19 1  
    19   11   22 1  
    20   12   16 1  
    21   12   17 2  
    22   14   15 1  
    23   14   16 1  
    24   15   16 1  
    25   20   21 1  
    26   21   22 1  
    27   22   23 1  
    28   22   26 1  
    29   23   24 1  
    30   23   25 2  
    31   26   27 1  
    32   27   28 1  
    33   27   29 2  
    34    1   30 1  
    35    2   31 1  
    36    5   32 1  
    37    5   33 1  
    38    6   34 1  
    39    7   35 1  
    40    8   36 1  
    41   10   37 1  
    42   10   38 1  
    43   13   39 1  
    44   13   40 1  
    45   13   41 1  
    46   14   42 1  
    47   15   43 1  
    48   15   44 1  
    49   16   45 1  
    50   19   46 1  
    51   19   47 1  
    52   19   48 1  
    53   20   49 1  
    54   20   50 1  
    55   21   51 1  
    56   21   52 1  
    57   24   53 1  
    58   24   54 1  
    59   24   55 1  
    60   28   56 1  
    61   28   57 1  
    62   28   58 1  
@<TRIPOS>SUBSTRUCTURE
     1 CA4         1

