### 
### Created by X-TOOL on Mon Sep 10 21:12:56 2018
### 

@<TRIPOS>MOLECULE
2ozr_ligand
   51    54     1     0     0
SMALL
GAST_HUCK


@<TRIPOS>ATOM
      1 N1          6.1160   33.5450    4.5750 N.am      1 GG1        -0.1969
      2 C4          6.1860   34.0960    8.2370 C.3       1 GG1         0.0943
      3 C5          7.7950   34.5970    6.4920 C.2       1 GG1         0.2281
      4 C6          8.9640   34.5620    2.4830 C.ar      1 GG1        -0.0542
      5 C7         10.9690   35.5660    3.1060 C.1       1 GG1        -0.0756
      6 C8          9.8190   35.0950    3.4560 C.ar      1 GG1         0.0162
      7 C10         7.5120   30.5890   10.3940 C.ar      1 GG1         0.0032
      8 C13         6.2830   30.5700    9.7150 C.ar      1 GG1        -0.0542
      9 C15         5.8520   31.6960    9.0150 C.ar      1 GG1        -0.0543
     10 C17         7.8680   32.8640    9.6630 C.ar      1 GG1        -0.0543
     11 C20        14.4830   35.7010    2.7490 C.ar      1 GG1        -0.0319
     12 C21         6.6460   32.8480    8.9840 C.ar      1 GG1        -0.0133
     13 C22         8.1820   34.5870    5.1560 C.ar      1 GG1         0.0783
     14 C24         7.9870   29.3910   11.1770 C.2       1 GG1         0.0584
     15 C26        12.0110   35.9830    2.7280 C.1       1 GG1        -0.0916
     16 O6          7.4800   28.2920   11.0400 O.co2     1 GG1        -0.5625
     17 O5          8.9370   29.5240   12.0910 O.co2     1 GG1        -0.5625
     18 C19         8.3010   31.7410   10.3620 C.ar      1 GG1        -0.0542
     19 N6          6.5980   34.0880    6.8290 N.am      1 GG1        -0.1546
     20 O2          8.5420   35.0730    7.3830 O.2       1 GG1        -0.3857
     21 C3          7.3160   34.0460    4.1890 C.ar      1 GG1         0.0947
     22 C2          7.7200   34.0350    2.8500 C.ar      1 GG1        -0.0319
     23 C25         5.1560   32.9630    3.6320 C.3       1 GG1         0.0486
     24 C1          5.7710   33.5720    5.8840 C.2       1 GG1         0.3269
     25 O1          4.6600   33.1010    6.2280 O.2       1 GG1        -0.3827
     26 C23         9.4310   35.0980    4.7890 C.ar      1 GG1        -0.0380
     27 C11        13.2950   36.4940    2.2150 C.3       1 GG1         0.0403
     28 C16        15.7490   35.8910    2.1860 C.ar      1 GG1        -0.0595
     29 C18        16.8560   35.1940    2.6630 C.ar      1 GG1        -0.0685
     30 C14        14.3380   34.8000    3.8060 C.ar      1 GG1        -0.0595
     31 C12        15.4400   34.0940    4.2910 C.ar      1 GG1        -0.0685
     32 C9         16.7020   34.2930    3.7180 C.ar      1 GG1        -0.0687
     33 H1          6.6189   34.9807    8.7268 H         1 GG1         0.0747
     34 H2          5.0884   34.1513    8.2836 H         1 GG1         0.0747
     35 H3          9.2666   34.5575    1.4421 H         1 GG1         0.0630
     36 H4          5.6679   29.6776    9.7352 H         1 GG1         0.0634
     37 H5          4.9013   31.6792    8.4944 H         1 GG1         0.0565
     38 H6          8.4823   33.7569    9.6450 H         1 GG1         0.0565
     39 H7          9.2518   31.7605   10.8822 H         1 GG1         0.0634
     40 H8          7.0668   33.6165    2.0929 H         1 GG1         0.0523
     41 H9          5.5687   33.0091    2.6134 H         1 GG1         0.0557
     42 H10         4.2137   33.5291    3.6718 H         1 GG1         0.0557
     43 H11         4.9654   31.9141    3.9032 H         1 GG1         0.0557
     44 H12        10.0967   35.4967    5.5459 H         1 GG1         0.0647
     45 H13        13.2895   36.4283    1.1170 H         1 GG1         0.0552
     46 H14        13.4050   37.5454    2.5189 H         1 GG1         0.0552
     47 H15        15.8702   36.5906    1.3669 H         1 GG1         0.0557
     48 H16        17.8319   35.3502    2.2176 H         1 GG1         0.0599
     49 H17        13.3623   34.6478    4.2531 H         1 GG1         0.0557
     50 H18        15.3192   33.3933    5.1093 H         1 GG1         0.0599
     51 H19        17.5598   33.7471    4.0938 H         1 GG1         0.0559
@<TRIPOS>BOND
     1   21    1 1  
     2    1   23 1  
     3    1   24 am 
     4    2   12 1  
     5   19    2 1  
     6   13    3 1  
     7    3   19 am 
     8    3   20 2  
     9    6    4 ar 
    10    4   22 ar 
    11    5    6 1  
    12   15    5 3  
    13    6   26 ar 
    14    8    7 ar 
    15    7   14 1  
    16   18    7 ar 
    17    9    8 ar 
    18   12    9 ar 
    19   12   10 ar 
    20   10   18 ar 
    21   27   11 1  
    22   11   28 ar 
    23   11   30 ar 
    24   13   21 ar 
    25   26   13 ar 
    26   14   16 ar 
    27   14   17 ar 
    28   15   27 1  
    29   19   24 am 
    30   21   22 ar 
    31   24   25 2  
    32   28   29 ar 
    33   29   32 ar 
    34   30   31 ar 
    35   31   32 ar 
    36    2   33 1  
    37    2   34 1  
    38    4   35 1  
    39    8   36 1  
    40    9   37 1  
    41   10   38 1  
    42   18   39 1  
    43   22   40 1  
    44   23   41 1  
    45   23   42 1  
    46   23   43 1  
    47   26   44 1  
    48   27   45 1  
    49   27   46 1  
    50   28   47 1  
    51   29   48 1  
    52   30   49 1  
    53   31   50 1  
    54   32   51 1  
@<TRIPOS>SUBSTRUCTURE
     1 GG1         1

