### 
### Created by X-TOOL on Mon Sep 10 21:12:55 2018
### 

@<TRIPOS>MOLECULE
2p15_ligand
   61    65     1     0     0
SMALL
GAST_HUCK


@<TRIPOS>ATOM
      1 C18       -36.7690    1.4740   21.4410 C.3       1 EZT        -0.0683
      2 C13       -36.7330    2.9750   21.0600 C.3       1 EZT        -0.0391
      3 C12       -36.4740    3.0800   19.5290 C.3       1 EZT        -0.0546
      4 C11       -35.0260    2.6480   19.1350 C.3       1 EZT        -0.0431
      5 C9        -33.9710    3.4520   19.9770 C.3       1 EZT        -0.0117
      6 C10       -32.4930    3.2460   19.5510 C.ar      1 EZT        -0.0484
      7 C1        -32.1850    3.0220   18.2180 C.ar      1 EZT        -0.0749
      8 C2        -30.8480    2.8710   17.8490 C.ar      1 EZT        -0.0468
      9 C3        -29.8390    2.9430   18.8160 C.ar      1 EZT         0.0739
     10 O3        -28.5390    2.7850   18.4800 O.3       1 EZT        -0.3393
     11 C4        -30.1470    3.1670   20.1440 C.ar      1 EZT        -0.0385
     12 C5        -31.4690    3.3480   20.5160 C.ar      1 EZT        -0.0491
     13 C6        -31.7280    3.5610   22.0260 C.3       1 EZT        -0.0236
     14 C7        -33.1350    4.1440   22.2660 C.3       1 EZT        -0.0397
     15 C8        -34.1850    3.2790   21.5130 C.3       1 EZT        -0.0270
     16 C14       -35.6350    3.7630   21.8190 C.3       1 EZT        -0.0409
     17 C15       -36.1520    3.7540   23.2820 C.3       1 EZT        -0.0593
     18 C16       -37.6710    3.9290   23.1000 C.3       1 EZT        -0.0631
     19 C17       -37.9770    3.7810   21.5860 C.3       1 EZT         0.0356
     20 O17       -39.2210    3.0820   21.3760 O.3       1 EZT        -0.4451
     21 C19       -38.0230    5.0580   20.9440 C.2       1 EZT        -0.0572
     22 C20       -37.7730    6.3080   21.5410 C.2       1 EZT         0.0070
     23 C21       -37.7500    7.5330   20.8310 C.ar      1 EZT         0.0584
     24 C22       -38.6210    7.7700   19.7630 C.ar      1 EZT         0.0011
     25 C23       -38.5550    8.9770   19.0450 C.ar      1 EZT        -0.0125
     26 C24       -37.6220    9.9690   19.3950 C.ar      1 EZT        -0.0135
     27 C25       -36.7400    9.7390   20.4450 C.ar      1 EZT        -0.0128
     28 C26       -36.7980    8.5310   21.1620 C.ar      1 EZT         0.0758
     29 C27       -35.7960    8.3650   22.3380 C.3       1 EZT         0.3826
     30 F02       -34.9920    9.4060   22.3590 F         1 EZT        -0.2199
     31 F03       -36.3940    8.3520   23.5370 F         1 EZT        -0.2199
     32 F01       -35.0690    7.2540   22.2500 F         1 EZT        -0.2199
     33 H1        -35.8739    0.9733   21.0435 H         1 EZT         0.0224
     34 H2        -37.6695    1.0087   21.0138 H         1 EZT         0.0224
     35 H3        -36.7891    1.3741   22.5363 H         1 EZT         0.0224
     36 H4        -36.6280    4.1233   19.2162 H         1 EZT         0.0261
     37 H5        -37.1905    2.4304   19.0049 H         1 EZT         0.0261
     38 H6        -34.8656    2.8481   18.0653 H         1 EZT         0.0286
     39 H7        -34.9023    1.5724   19.3294 H         1 EZT         0.0286
     40 H8        -34.1832    4.5106   19.7667 H         1 EZT         0.0429
     41 H9        -32.9710    2.9650   17.4737 H         1 EZT         0.0511
     42 H10       -30.5901    2.6975   16.8105 H         1 EZT         0.0468
     43 H11       -28.4149    1.9257   18.0944 H         1 EZT         0.2457
     44 H12       -29.3603    3.2009   20.8890 H         1 EZT         0.0462
     45 H13       -30.9765    4.2579   22.4255 H         1 EZT         0.0410
     46 H14       -31.6451    2.5949   22.5454 H         1 EZT         0.0410
     47 H15       -33.1734    5.1774   21.8911 H         1 EZT         0.0290
     48 H16       -33.3571    4.1362   23.3433 H         1 EZT         0.0290
     49 H17       -34.0705    2.2239   21.8021 H         1 EZT         0.0325
     50 H18       -35.6632    4.8075   21.4751 H         1 EZT         0.0299
     51 H19       -35.7227    4.5853   23.8604 H         1 EZT         0.0257
     52 H20       -35.9185    2.8015   23.7802 H         1 EZT         0.0257
     53 H21       -37.9794    4.9251   23.4502 H         1 EZT         0.0144
     54 H22       -38.2093    3.1571   23.6695 H         1 EZT         0.0144
     55 H23       -39.9283    3.5671   21.7843 H         1 EZT         0.1884
     56 H24       -38.2774    5.0640   19.8851 H         1 EZT         0.0624
     57 H25       -37.5860    6.3346   22.6135 H         1 EZT         0.1321
     58 H26       -39.3517    7.0184   19.4869 H         1 EZT         0.0904
     59 H27       -39.2300    9.1445   18.2135 H         1 EZT         0.0898
     60 H28       -37.5906   10.9058   18.8505 H         1 EZT         0.0851
     61 H29       -36.0069   10.4919   20.7111 H         1 EZT         0.0932
@<TRIPOS>BOND
     1    1    2 1  
     2    2    3 1  
     3    2   16 1  
     4    2   19 1  
     5    3    4 1  
     6    4    5 1  
     7    5    6 1  
     8    5   15 1  
     9    6    7 ar 
    10    6   12 ar 
    11    7    8 ar 
    12    8    9 ar 
    13    9   10 1  
    14    9   11 ar 
    15   11   12 ar 
    16   12   13 1  
    17   13   14 1  
    18   14   15 1  
    19   15   16 1  
    20   16   17 1  
    21   17   18 1  
    22   18   19 1  
    23   19   20 1  
    24   19   21 1  
    25   21   22 2  
    26   22   23 1  
    27   23   24 ar 
    28   23   28 ar 
    29   24   25 ar 
    30   25   26 ar 
    31   26   27 ar 
    32   27   28 ar 
    33   28   29 1  
    34   29   30 1  
    35   29   31 1  
    36   29   32 1  
    37    1   33 1  
    38    1   34 1  
    39    1   35 1  
    40    3   36 1  
    41    3   37 1  
    42    4   38 1  
    43    4   39 1  
    44    5   40 1  
    45    7   41 1  
    46    8   42 1  
    47   10   43 1  
    48   11   44 1  
    49   13   45 1  
    50   13   46 1  
    51   14   47 1  
    52   14   48 1  
    53   15   49 1  
    54   16   50 1  
    55   17   51 1  
    56   17   52 1  
    57   18   53 1  
    58   18   54 1  
    59   20   55 1  
    60   21   56 1  
    61   22   57 1  
    62   24   58 1  
    63   25   59 1  
    64   26   60 1  
    65   27   61 1  
@<TRIPOS>SUBSTRUCTURE
     1 EZT         1

