### 
### Created by X-TOOL on Mon Sep 10 21:12:56 2018
### 

@<TRIPOS>MOLECULE
2p2a_ligand
   38    40     1     0     0
SMALL
GAST_HUCK


@<TRIPOS>ATOM
      1 C1          6.2430   24.4950   21.1910 C.2       1 MP9         0.0574
      2 C2          6.7110   24.7570   22.4500 C.2       1 MP9         0.1747
      3 O3          5.9630   24.1250   23.3920 O.3       1 MP9        -0.1802
      4 N4          4.9180   23.4280   22.7300 N.am      1 MP9        -0.1387
      5 C5          5.1460   23.6150   21.4410 C.2       1 MP9         0.2049
      6 C6          7.8360   25.5560   22.9010 C.2       1 MP9         0.1822
      7 N7          8.1300   25.8590   24.1860 N.2       1 MP9        -0.1717
      8 N8          9.2230   26.5970   24.1300 N.2       1 MP9        -0.0465
      9 N9          9.5500   26.7160   22.8530 N.pl3     1 MP9        -0.0779
     10 N10         8.7220   26.0880   22.0520 N.2       1 MP9        -0.1361
     11 C11        10.7240   27.4720   22.3690 C.3       1 MP9         0.1315
     12 C12        12.8200   29.6790   25.5030 C.ar      1 MP9        -0.0687
     13 C13        11.8710   30.3410   24.6690 C.ar      1 MP9        -0.0685
     14 C14        11.1880   29.6200   23.6480 C.ar      1 MP9        -0.0573
     15 C15        11.4470   28.2360   23.4550 C.ar      1 MP9        -0.0075
     16 C16        12.3950   27.5720   24.2900 C.ar      1 MP9        -0.0573
     17 C17        13.0830   28.2930   25.3120 C.ar      1 MP9        -0.0685
     18 O23         4.4410   23.0420   20.4570 O.2       1 MP9        -0.4137
     19 C24         6.7410   24.9690   19.8580 C.3       1 MP9         0.0326
     20 C25         7.6010   23.9450   19.0990 C.3       1 MP9         0.0338
     21 C26         7.2410   23.8810   17.5740 C.2       1 MP9         0.0860
     22 O27         8.1980   24.0330   16.7720 O.co2     1 MP9        -0.5641
     23 O28         6.0330   23.6970   17.3110 O.co2     1 MP9        -0.5641
     24 N29         9.0810   24.2760   19.2250 N.4       1 MP9         0.2338
     25 H1          4.1722   22.9089   23.1475 H         1 MP9         0.2316
     26 H2         10.3848   28.1894   21.6072 H         1 MP9         0.0842
     27 H3         11.4309   26.7619   21.9150 H         1 MP9         0.0842
     28 H4         13.3391   30.2292   26.2794 H         1 MP9         0.0559
     29 H5         11.6689   31.3963   24.8127 H         1 MP9         0.0599
     30 H6         10.4686   30.1284   23.0163 H         1 MP9         0.0558
     31 H7         12.5934   26.5159   24.1475 H         1 MP9         0.0558
     32 H8         13.8048   27.7858   25.9419 H         1 MP9         0.0599
     33 H9          7.3456   25.8738   20.0188 H         1 MP9         0.0446
     34 H10         5.8698   25.2163   19.2336 H         1 MP9         0.0446
     35 H11         7.4206   22.9547   19.5426 H         1 MP9         0.1043
     36 H12         9.6224   23.5919   18.7202 H         1 MP9         0.2011
     37 H13         9.3465   24.2636   20.1973 H         1 MP9         0.2011
     38 H14         9.2544   25.1917   18.8409 H         1 MP9         0.2011
@<TRIPOS>BOND
     1    2    1 2  
     2    1    5 1  
     3    1   19 1  
     4    2    3 1  
     5    6    2 1  
     6    3    4 1  
     7    4    5 am 
     8    5   18 2  
     9    6    7 1  
    10   10    6 2  
    11    8    7 2  
    12    9    8 1  
    13    9   10 1  
    14   11    9 1  
    15   15   11 1  
    16   13   12 ar 
    17   12   17 ar 
    18   14   13 ar 
    19   14   15 ar 
    20   15   16 ar 
    21   16   17 ar 
    22   19   20 1  
    23   20   21 1  
    24   20   24 1  
    25   21   22 ar 
    26   21   23 ar 
    27    4   25 1  
    28   11   26 1  
    29   11   27 1  
    30   12   28 1  
    31   13   29 1  
    32   14   30 1  
    33   16   31 1  
    34   17   32 1  
    35   19   33 1  
    36   19   34 1  
    37   20   35 1  
    38   24   36 1  
    39   24   37 1  
    40   24   38 1  
@<TRIPOS>SUBSTRUCTURE
     1 MP9         1

