### 
### Created by X-TOOL on Mon Sep 10 21:12:56 2018
### 

@<TRIPOS>MOLECULE
2p2h_ligand
   54    57     1     0     0
SMALL
GAST_HUCK


@<TRIPOS>ATOM
      1 C1         11.2070   18.0550   41.2510 C.ar      1 994         0.1355
      2 C2         10.5650   19.0310   42.0780 C.ar      1 994         0.1030
      3 C3          9.2250   18.7980   42.4990 C.ar      1 994        -0.0279
      4 C4          8.5120   17.6090   42.1120 C.ar      1 994         0.0408
      5 C5          9.1750   16.6600   41.2920 C.ar      1 994        -0.0279
      6 C6         10.5070   16.8580   40.8540 C.ar      1 994         0.1030
      7 N9          7.2000   17.2980   42.4690 N.pl3     1 994        -0.2461
      8 C10         6.4540   17.7350   43.5410 C.ar      1 994         0.2190
      9 N11         6.9550   18.6170   44.4240 N.ar      1 994        -0.2232
     10 C12         6.2110   19.0520   45.5060 C.ar      1 994         0.1257
     11 N13         4.9450   18.5160   45.5900 N.ar      1 994        -0.2529
     12 C14         4.5250   17.6450   44.6640 C.ar      1 994         0.0832
     13 N15         5.2350   17.2120   43.6150 N.ar      1 994        -0.2261
     14 O17        11.0760   15.8530   40.0470 O.3       1 994        -0.3305
     15 C18        11.0390   16.1480   38.6610 C.3       1 994         0.0562
     16 O22        12.5140   18.2690   40.8410 O.3       1 994        -0.3365
     17 C23        13.4330   17.7260   41.7940 C.3       1 994         0.0518
     18 O27        11.2800   20.2040   42.4630 O.3       1 994        -0.3305
     19 C28        10.4860   21.3920   42.6220 C.3       1 994         0.0562
     20 C32         6.8040   20.0490   46.4950 C.ar      1 994         0.0751
     21 C33         8.1210   20.5080   46.2680 C.ar      1 994        -0.0347
     22 C34         8.7540   21.4340   47.1260 C.ar      1 994        -0.0408
     23 C35         8.0410   21.9060   48.2370 C.ar      1 994         0.0025
     24 N36         6.7810   21.4880   48.4910 N.ar      1 994        -0.2734
     25 C37         6.1490   20.5770   47.6580 C.ar      1 994         0.1522
     26 N41         4.8730   20.1930   47.9810 N.pl3     1 994        -0.2550
     27 C42         4.3180   20.2880   49.2270 C.ar      1 994         0.0637
     28 C43         3.5190   21.4000   49.6120 C.ar      1 994        -0.0383
     29 C44         2.9630   21.4660   50.9160 C.ar      1 994        -0.0715
     30 C45         3.2090   20.4150   51.8380 C.ar      1 994        -0.0734
     31 C46         4.0070   19.3050   51.4560 C.ar      1 994        -0.0715
     32 C47         4.5590   19.2430   50.1570 C.ar      1 994        -0.0383
     33 H1          8.7308   19.5323   43.1248 H         1 994         0.0349
     34 H2          8.6487   15.7607   40.9932 H         1 994         0.0349
     35 H3          6.7171   16.6440   41.8366 H         1 994         0.2186
     36 H4          3.5194   17.2553   44.7736 H         1 994         0.1173
     37 H5         11.4985   15.3222   38.0980 H         1 994         0.0572
     38 H6         11.5956   17.0771   38.4689 H         1 994         0.0572
     39 H7          9.9942   16.2735   38.3406 H         1 994         0.0572
     40 H8         14.4633   17.9048   41.4528 H         1 994         0.0564
     41 H9         13.2621   16.6439   41.8929 H         1 994         0.0564
     42 H10        13.2801   18.2120   42.7689 H         1 994         0.0564
     43 H11        11.1347   22.2296   42.9179 H         1 994         0.0572
     44 H12         9.7264   21.2240   43.3997 H         1 994         0.0572
     45 H13         9.9895   21.6314   41.6701 H         1 994         0.0572
     46 H14         8.6637   20.1368   45.4062 H         1 994         0.0755
     47 H15         9.7655   21.7713   46.9305 H         1 994         0.0618
     48 H16         8.5092   22.6198   48.9051 H         1 994         0.0826
     49 H17         4.2882   19.8034   47.2279 H         1 994         0.2158
     50 H18         3.3338   22.2012   48.9057 H         1 994         0.0536
     51 H19         2.3538   22.3143   51.2064 H         1 994         0.0587
     52 H20         2.7868   20.4602   52.8354 H         1 994         0.0519
     53 H21         4.1931   18.5037   52.1620 H         1 994         0.0587
     54 H22         5.1689   18.3942   49.8694 H         1 994         0.0536
@<TRIPOS>BOND
     1    1    2 ar 
     2    1    6 ar 
     3    1   16 1  
     4    2    3 ar 
     5    2   18 1  
     6    3    4 ar 
     7    4    5 ar 
     8    4    7 1  
     9    5    6 ar 
    10    6   14 1  
    11    7    8 1  
    12    8    9 ar 
    13    8   13 ar 
    14    9   10 ar 
    15   10   11 ar 
    16   10   20 1  
    17   11   12 ar 
    18   12   13 ar 
    19   14   15 1  
    20   16   17 1  
    21   18   19 1  
    22   20   21 ar 
    23   20   25 ar 
    24   21   22 ar 
    25   22   23 ar 
    26   23   24 ar 
    27   24   25 ar 
    28   25   26 1  
    29   26   27 1  
    30   27   28 ar 
    31   27   32 ar 
    32   28   29 ar 
    33   29   30 ar 
    34   30   31 ar 
    35   31   32 ar 
    36    3   33 1  
    37    5   34 1  
    38    7   35 1  
    39   12   36 1  
    40   15   37 1  
    41   15   38 1  
    42   15   39 1  
    43   17   40 1  
    44   17   41 1  
    45   17   42 1  
    46   19   43 1  
    47   19   44 1  
    48   19   45 1  
    49   21   46 1  
    50   22   47 1  
    51   23   48 1  
    52   26   49 1  
    53   28   50 1  
    54   29   51 1  
    55   30   52 1  
    56   31   53 1  
    57   32   54 1  
@<TRIPOS>SUBSTRUCTURE
     1 994         1

