### 
### Created by X-TOOL on Mon Sep 10 21:12:56 2018
### 

@<TRIPOS>MOLECULE
2p2i_ligand
   50    53     1     0     0
SMALL
GAST_HUCK


@<TRIPOS>ATOM
      1 C10        39.0830   38.0740   10.2210 C.ar      1 608        -0.0409
      2 C11        38.4520   36.8620   10.6480 C.ar      1 608        -0.0479
      3 C12        37.5400   36.9260   11.7810 C.ar      1 608         0.0561
      4 C13        37.2160   38.1350   12.5220 C.ar      1 608        -0.0479
      5 C14        37.8490   39.3560   12.0980 C.ar      1 608        -0.0409
      6 C15        38.7700   39.2990   10.9530 C.ar      1 608         0.1013
      7 C16        39.9550   29.0860   11.2910 C.ar      1 608         0.0031
      8 N4         40.3640   27.9400   11.9980 N.ar      1 608        -0.3066
      9 C17        39.4910   30.1940   12.0660 C.ar      1 608        -0.0305
     10 C18        39.5020   29.9880   13.5080 C.ar      1 608        -0.0010
     11 C8         39.9310   28.7730   14.1930 C.ar      1 608        -0.0305
     12 C9         40.3810   27.7150   13.3640 C.ar      1 608         0.0031
     13 C19        36.6970   33.5070   12.7930 C.ar      1 608         0.1005
     14 C20        35.3090   33.5010   12.3840 C.ar      1 608        -0.0338
     15 C21        34.4750   32.3620   12.5770 C.ar      1 608        -0.0424
     16 C22        35.0560   31.2070   13.1990 C.ar      1 608         0.0003
     17 N3         36.3690   31.2060   13.5950 N.ar      1 608        -0.2786
     18 C23        37.1910   32.3220   13.4080 C.ar      1 608         0.1350
     19 N1         38.4940   32.2980   13.8100 N.pl3     1 608        -0.2906
     20 C7         39.0620   31.1190   14.4470 C.3       1 608         0.0690
     21 C24        37.5690   34.6710   12.5260 C.2       1 608         0.2295
     22 N2         36.9230   35.8070   12.2220 N.am      1 608        -0.2400
     23 O1         38.7950   34.6450   12.5520 O.2       1 608        -0.3788
     24 O2         39.4620   40.4250   10.4230 O.3       1 608        -0.2672
     25 C1         39.1060   43.8750   11.8670 C.ar      1 608        -0.0700
     26 C2         38.3180   44.4460   10.7820 C.ar      1 608        -0.0726
     27 C3         37.8980   43.7040    9.5990 C.ar      1 608        -0.0700
     28 C4         38.2810   42.3120    9.4800 C.ar      1 608        -0.0292
     29 C5         39.0680   41.7400   10.5530 C.ar      1 608         0.1124
     30 C6         39.4850   42.4880   11.7400 C.ar      1 608        -0.0292
     31 H1         39.7701   38.0825    9.3826 H         1 608         0.0518
     32 H2         38.6477   35.9234   10.1422 H         1 608         0.0481
     33 H3         36.5267   38.1171   13.3584 H         1 608         0.0481
     34 H4         37.6523   40.2918   12.6086 H         1 608         0.0518
     35 H5         39.9902   29.1267   10.2083 H         1 608         0.0803
     36 H6         39.1554   31.1201   11.6135 H         1 608         0.0652
     37 H7         39.9069   28.6847   15.2731 H         1 608         0.0652
     38 H8         40.7224   26.7740   13.7799 H         1 608         0.0803
     39 H9         34.8925   34.3868   11.9183 H         1 608         0.0750
     40 H10        33.4370   32.3679   12.2646 H         1 608         0.0609
     41 H11        34.4489   30.3232   13.3581 H         1 608         0.0816
     42 H12        39.0857   33.1277   13.6604 H         1 608         0.1857
     43 H13        39.9431   31.4398   15.0221 H         1 608         0.0711
     44 H14        38.3052   30.7106   15.1329 H         1 608         0.0711
     45 H15        35.9288   35.8270   12.3276 H         1 608         0.2217
     46 H16        39.3942   44.4648   12.7297 H         1 608         0.0590
     47 H17        38.0260   45.4871   10.8592 H         1 608         0.0525
     48 H18        37.3111   44.1843    8.8244 H         1 608         0.0590
     49 H19        37.9894   41.7204    8.6198 H         1 608         0.0549
     50 H20        40.0712   42.0063   12.5142 H         1 608         0.0549
@<TRIPOS>BOND
     1    1    2 ar 
     2    6    1 ar 
     3    2    3 ar 
     4    4    3 ar 
     5    3   22 1  
     6    5    4 ar 
     7    6    5 ar 
     8   24    6 1  
     9    7    8 ar 
    10    9    7 ar 
    11   12    8 ar 
    12   10    9 ar 
    13   10   11 ar 
    14   20   10 1  
    15   11   12 ar 
    16   13   14 ar 
    17   13   18 ar 
    18   21   13 1  
    19   14   15 ar 
    20   15   16 ar 
    21   17   16 ar 
    22   18   17 ar 
    23   18   19 1  
    24   19   20 1  
    25   22   21 am 
    26   21   23 2  
    27   29   24 1  
    28   26   25 ar 
    29   25   30 ar 
    30   27   26 ar 
    31   28   27 ar 
    32   28   29 ar 
    33   29   30 ar 
    34    1   31 1  
    35    2   32 1  
    36    4   33 1  
    37    5   34 1  
    38    7   35 1  
    39    9   36 1  
    40   11   37 1  
    41   12   38 1  
    42   14   39 1  
    43   15   40 1  
    44   16   41 1  
    45   19   42 1  
    46   20   43 1  
    47   20   44 1  
    48   22   45 1  
    49   25   46 1  
    50   26   47 1  
    51   27   48 1  
    52   28   49 1  
    53   30   50 1  
@<TRIPOS>SUBSTRUCTURE
     1 608         1

