### 
### Created by X-TOOL on Mon Sep 10 21:12:56 2018
### 

@<TRIPOS>MOLECULE
2p33_ligand
   51    54     1     0     0
SMALL
GAST_HUCK


@<TRIPOS>ATOM
      1 C01        29.1850    4.5930   29.2020 C.3       1 J07        -0.0451
      2 C02        28.4270    5.0480   27.9700 C.3       1 J07         0.0284
      3 N03        26.9940    4.8280   28.1280 N.am      1 J07        -0.2733
      4 C04        26.1190    5.8870   28.0050 C.2       1 J07         0.2599
      5 O05        25.9170    6.4400   26.9220 O.2       1 J07        -0.4007
      6 N06        25.4790    6.2960   29.2120 N.am      1 J07        -0.2594
      7 C07        24.5380    7.4400   29.1350 C.3       1 J07         0.0363
      8 C08        23.1780    7.1060   29.7560 C.3       1 J07        -0.0093
      9 C09        23.3740    6.6250   31.2170 C.3       1 J07         0.0454
     10 C10        24.2950    5.3720   31.2230 C.3       1 J07        -0.0093
     11 C11        25.6530    5.6990   30.5860 C.3       1 J07         0.0363
     12 N12        22.0520    6.3120   31.8210 N.pl3     1 J07        -0.2879
     13 C13        21.1470    7.2600   32.3030 C.ar      1 J07         0.1784
     14 N14        21.4630    8.5710   32.1220 N.ar      1 J07        -0.2662
     15 C15        20.5940    9.5520   32.5890 C.ar      1 J07         0.0432
     16 C16        19.3600    9.2250   33.2570 C.ar      1 J07         0.0715
     17 C17        19.1420    7.8510   33.3800 C.ar      1 J07         0.0172
     18 N18        19.9950    6.8680   32.9200 N.ar      1 J07        -0.2658
     19 CL1        18.1740   10.3030   33.8950 Cl        1 J07        -0.0723
     20 C20        21.0960   10.9110   32.2930 C.2       1 J07         0.0119
     21 C21        22.3730   11.2950   31.7860 C.ar      1 J07        -0.0098
     22 C22        23.5660   10.5870   31.4090 C.ar      1 J07        -0.0720
     23 C23        24.6810   11.3190   30.9250 C.ar      1 J07        -0.0775
     24 C24        24.6310   12.7280   30.8140 C.ar      1 J07        -0.0749
     25 C25        23.4720   13.4510   31.1800 C.ar      1 J07        -0.0408
     26 C26        22.3620   12.7120   31.6650 C.ar      1 J07         0.0712
     27 N27        21.1340   13.1470   32.0800 N.pl3     1 J07        -0.2669
     28 C28        20.3740   12.0870   32.4550 C.2       1 J07         0.0501
     29 H1         30.2609    4.7698   29.0566 H         1 J07         0.0249
     30 H2         29.0086    3.5196   29.3654 H         1 J07         0.0249
     31 H3         28.8354    5.1595   30.0777 H         1 J07         0.0249
     32 H4         28.7841    4.4807   27.0978 H         1 J07         0.0514
     33 H5         28.6109    6.1207   27.8101 H         1 J07         0.0514
     34 H6         26.6465    3.9112   28.3251 H         1 J07         0.1845
     35 H7         24.3899    7.7078   28.0784 H         1 J07         0.0520
     36 H8         24.9736    8.2952   29.6725 H         1 J07         0.0520
     37 H9         22.6945    6.3099   29.1708 H         1 J07         0.0307
     38 H10        22.5425    8.0038   29.7489 H         1 J07         0.0307
     39 H11        23.8528    7.4247   31.8011 H         1 J07         0.0561
     40 H12        23.8123    4.5653   30.6518 H         1 J07         0.0307
     41 H13        24.4520    5.0432   32.2609 H         1 J07         0.0307
     42 H14        26.1857    6.4183   31.2254 H         1 J07         0.0520
     43 H15        26.2431    4.7743   30.5038 H         1 J07         0.0520
     44 H16        21.7831    5.3201   31.8891 H         1 J07         0.1864
     45 H17        18.2322    7.5316   33.8752 H         1 J07         0.0866
     46 H18        23.6132    9.5073   31.4934 H         1 J07         0.0544
     47 H19        25.5829   10.7914   30.6366 H         1 J07         0.0522
     48 H20        25.4968   13.2635   30.4416 H         1 J07         0.0538
     49 H21        23.4330   14.5308   31.0932 H         1 J07         0.0552
     50 H22        20.8312   14.1312   32.1044 H         1 J07         0.2339
     51 H23        19.3523   12.1488   32.8268 H         1 J07         0.1099
@<TRIPOS>BOND
     1    1    2 1  
     2    2    3 1  
     3    3    4 am 
     4    4    5 2  
     5    4    6 am 
     6    6    7 1  
     7    6   11 1  
     8    7    8 1  
     9    8    9 1  
    10    9   10 1  
    11    9   12 1  
    12   10   11 1  
    13   12   13 1  
    14   13   14 ar 
    15   13   18 ar 
    16   14   15 ar 
    17   15   16 ar 
    18   15   20 1  
    19   16   17 ar 
    20   16   19 1  
    21   17   18 ar 
    22   20   21 1  
    23   20   28 2  
    24   21   22 ar 
    25   21   26 ar 
    26   22   23 ar 
    27   23   24 ar 
    28   24   25 ar 
    29   25   26 ar 
    30   26   27 1  
    31   27   28 1  
    32    1   29 1  
    33    1   30 1  
    34    1   31 1  
    35    2   32 1  
    36    2   33 1  
    37    3   34 1  
    38    7   35 1  
    39    7   36 1  
    40    8   37 1  
    41    8   38 1  
    42    9   39 1  
    43   10   40 1  
    44   10   41 1  
    45   11   42 1  
    46   11   43 1  
    47   12   44 1  
    48   17   45 1  
    49   22   46 1  
    50   23   47 1  
    51   24   48 1  
    52   25   49 1  
    53   27   50 1  
    54   28   51 1  
@<TRIPOS>SUBSTRUCTURE
     1 J07         1

