### 
### Created by X-TOOL on Mon Sep 10 21:12:55 2018
### 

@<TRIPOS>MOLECULE
2p3a_ligand
  130   133     1     0     0
SMALL
GAST_HUCK


@<TRIPOS>ATOM
      1 N1         18.2190    1.2750    1.9740 N.am      1 3TL        -0.2774
      2 C1         18.2400    1.2900    0.5240 C.3       1 3TL         0.0799
      3 N2         16.3440    2.1220    4.6850 N.am      1 3TL        -0.2635
      4 C2         19.1620    0.2190   -0.0290 C.3       1 3TL         0.1079
      5 C3         18.8020    2.6180    0.0650 C.3       1 3TL         0.0065
      6 C4         17.8760    3.7170    0.4890 C.ar      1 3TL        -0.0408
      7 C5         18.4020    4.8310    1.1740 C.ar      1 3TL        -0.0603
      8 O1         20.4630    0.4950    0.4650 O.3       1 3TL        -0.3867
      9 C6         17.5370    5.8580    1.5660 C.ar      1 3TL        -0.0686
     10 C7         16.1670    5.7530    1.2670 C.ar      1 3TL        -0.0687
     11 O2         16.0300    0.8090    2.1630 O.2       1 3TL        -0.3945
     12 C8         15.6560    4.6350    0.5910 C.ar      1 3TL        -0.0686
     13 C9         16.5110    3.6150    0.1940 C.ar      1 3TL        -0.0603
     14 C10        17.2550    1.1070    4.1680 C.3       1 3TL         0.1331
     15 C11        17.1110    1.0430    2.6750 C.2       1 3TL         0.2024
     16 C12        17.0460   -0.2270    4.8970 C.3       1 3TL        -0.0063
     17 C13        12.5100    5.6960   11.0640 C.ar      1 3TL        -0.0578
     18 C14        11.7140    6.8480   11.0300 C.ar      1 3TL        -0.0685
     19 N4         16.1040    4.6000    7.1750 N.am      1 3TL        -0.2413
     20 C15        12.1500    7.9930   10.3570 C.ar      1 3TL        -0.0687
     21 C16        13.3930    7.9840    9.7110 C.ar      1 3TL        -0.0685
     22 C17        14.1960    6.8390    9.7460 C.ar      1 3TL        -0.0578
     23 O4         18.0540    3.0410    5.7890 O.2       1 3TL        -0.3944
     24 C18        16.0040    4.2500    5.7870 C.3       1 3TL         0.1300
     25 C19        16.8920    3.0840    5.4300 C.2       1 3TL         0.2036
     26 C20        16.4030    5.4680    4.9770 C.3       1 3TL        -0.0244
     27 O58        14.8480   -3.8320   -7.4940 O.2       1 3TL        -0.3773
     28 C81        15.8890   -4.3970   -7.7940 C.2       1 3TL         0.3239
     29 O59        15.9360   -5.0730   -9.0630 O.3       1 3TL        -0.2506
     30 CA5        14.6990   -5.0860   -9.7970 C.3       1 3TL         0.1113
     31 C50        13.8220   -6.2860   -9.5060 C.ar      1 3TL        -0.0130
     32 C63        12.7720   -6.5710  -10.3930 C.ar      1 3TL        -0.0578
     33 C64        11.9270   -7.6610  -10.1740 C.ar      1 3TL        -0.0685
     34 C65        12.1190   -8.4920   -9.0670 C.ar      1 3TL        -0.0687
     35 C66        13.1690   -8.2110   -8.1710 C.ar      1 3TL        -0.0685
     36 C67        14.0240   -7.1180   -8.3970 C.ar      1 3TL        -0.0578
     37 N54        16.9790   -4.4210   -7.0540 N.am      1 3TL        -0.2413
     38 C68        16.8900   -4.3350   -5.6100 C.3       1 3TL         0.1300
     39 C70        17.4830   -5.5860   -4.9820 C.3       1 3TL        -0.0244
     40 C69        17.6040   -3.0850   -5.1990 C.2       1 3TL         0.2036
     41 O54        18.7340   -2.8620   -5.6300 O.2       1 3TL        -0.3944
     42 N52        16.8870   -2.2820   -4.4170 N.am      1 3TL        -0.2635
     43 C60        17.3080   -0.9790   -3.9290 C.3       1 3TL         0.1331
     44 C62        16.7270    0.1510   -4.8160 C.3       1 3TL        -0.0063
     45 CG6        16.8580   -0.0590   -6.3120 C.3       1 3TL        -0.0584
     46 CG5        17.2800    1.5420   -4.4620 C.3       1 3TL        -0.0584
     47 C61        16.8500   -0.9570   -2.4910 C.2       1 3TL         0.2024
     48 O52        15.8310   -0.3870   -2.1610 O.2       1 3TL        -0.3945
     49 N51        17.5870   -1.6870   -1.6450 N.am      1 3TL        -0.2774
     50 C51        17.4730   -1.6920   -0.1970 C.3       1 3TL         0.0799
     51 C53        17.3220   -3.0950    0.4090 C.3       1 3TL         0.0065
     52 C54        16.7220   -4.1830   -0.4470 C.ar      1 3TL        -0.0408
     53 C55        15.4240   -4.0520   -0.9200 C.ar      1 3TL        -0.0603
     54 C56        14.8770   -5.0630   -1.6920 C.ar      1 3TL        -0.0686
     55 C57        15.6080   -6.2260   -1.9750 C.ar      1 3TL        -0.0687
     56 C58        16.9160   -6.3710   -1.5020 C.ar      1 3TL        -0.0686
     57 C59        17.4640   -5.3450   -0.7290 C.ar      1 3TL        -0.0603
     58 C52        18.7520   -1.1770    0.4290 C.3       1 3TL         0.1079
     59 O51        19.7830   -2.0790    0.0650 O.3       1 3TL        -0.3867
     60 CG2        17.5690   -0.1690    6.3290 C.3       1 3TL        -0.0584
     61 CG1        17.6970   -1.3790    4.1160 C.3       1 3TL        -0.0584
     62 C31        15.1520    4.3930    8.0640 C.2       1 3TL         0.3239
     63 O8         13.9890    4.1390    7.8160 O.2       1 3TL        -0.3773
     64 O9         15.5740    4.5070    9.4450 O.3       1 3TL        -0.2506
     65 CA         14.5920    4.4530   10.4690 C.3       1 3TL         0.1113
     66 C          13.7420    5.6960   10.4120 C.ar      1 3TL        -0.0130
     67 H1         19.0717    1.4459    2.4677 H         1 3TL         0.1857
     68 H2         17.2202    1.1460    0.1378 H         1 3TL         0.0605
     69 H3         15.3631    2.0983    4.4919 H         1 3TL         0.1883
     70 H4         19.1554    0.2575   -1.1283 H         1 3TL         0.0645
     71 H5         18.8964    2.6187   -1.0309 H         1 3TL         0.0449
     72 H6         19.7918    2.7753    0.5184 H         1 3TL         0.0449
     73 H7         19.4618    4.8910    1.3939 H         1 3TL         0.0557
     74 H8         21.0700   -0.1584    0.1378 H         1 3TL         0.2100
     75 H9         17.9183    6.7245    2.0940 H         1 3TL         0.0599
     76 H10        15.4943    6.5495    1.5639 H         1 3TL         0.0559
     77 H11        14.5951    4.5673    0.3788 H         1 3TL         0.0599
     78 H12        16.1268    2.7516   -0.3370 H         1 3TL         0.0557
     79 H13        18.2843    1.4303    4.3824 H         1 3TL         0.0802
     80 H14        15.9639   -0.4193    4.9433 H         1 3TL         0.0343
     81 H15        12.1710    4.8124   11.5926 H         1 3TL         0.0557
     82 H16        10.7520    6.8517   11.5296 H         1 3TL         0.0599
     83 H17        16.9510    5.0290    7.4888 H         1 3TL         0.1899
     84 H18        11.5303    8.8821   10.3351 H         1 3TL         0.0559
     85 H19        13.7337    8.8669    9.1824 H         1 3TL         0.0599
     86 H20        15.1648    6.8377    9.2596 H         1 3TL         0.0557
     87 H21        14.9622    3.9814    5.5581 H         1 3TL         0.0796
     88 H22        16.3370    5.2327    3.9045 H         1 3TL         0.0277
     89 H23        17.4357    5.7525    5.2271 H         1 3TL         0.0277
     90 H24        15.7257    6.3024    5.2116 H         1 3TL         0.0277
     91 H25        14.9344   -5.0822  -10.8715 H         1 3TL         0.0776
     92 H26        14.1359   -4.1762   -9.5418 H         1 3TL         0.0776
     93 H27        12.6152   -5.9373  -11.2584 H         1 3TL         0.0557
     94 H28        11.1179   -7.8636  -10.8663 H         1 3TL         0.0599
     95 H29        11.4679   -9.3424   -8.8999 H         1 3TL         0.0559
     96 H30        13.3187   -8.8413   -7.3019 H         1 3TL         0.0599
     97 H31        14.8405   -6.9188   -7.7124 H         1 3TL         0.0557
     98 H32        17.8745   -4.4992   -7.4921 H         1 3TL         0.1899
     99 H33        15.8347   -4.2603   -5.3087 H         1 3TL         0.0796
    100 H34        17.4126   -5.5150   -3.8866 H         1 3TL         0.0277
    101 H35        18.5388   -5.6789   -5.2763 H         1 3TL         0.0277
    102 H36        16.9266   -6.4693   -5.3286 H         1 3TL         0.0277
    103 H37        15.9807   -2.6024   -4.1413 H         1 3TL         0.1883
    104 H38        18.4049   -0.9021   -3.9592 H         1 3TL         0.0802
    105 H39        15.6489    0.1714   -4.5987 H         1 3TL         0.0343
    106 H40        16.4158    0.7972   -6.8425 H         1 3TL         0.0234
    107 H41        16.3314   -0.9807   -6.6004 H         1 3TL         0.0234
    108 H42        17.9217   -0.1457   -6.5784 H         1 3TL         0.0234
    109 H43        17.1907    1.7071   -3.3781 H         1 3TL         0.0234
    110 H44        16.7064    2.3121   -4.9986 H         1 3TL         0.0234
    111 H45        18.3383    1.6016   -4.7560 H         1 3TL         0.0234
    112 H46        18.2806   -2.2845   -2.0473 H         1 3TL         0.1857
    113 H47        16.6173   -1.0637    0.0911 H         1 3TL         0.0605
    114 H48        16.6884   -2.9973    1.3029 H         1 3TL         0.0449
    115 H49        18.3263   -3.4312    0.7064 H         1 3TL         0.0449
    116 H50        14.8437   -3.1665   -0.6873 H         1 3TL         0.0557
    117 H51        13.8716   -4.9543   -2.0824 H         1 3TL         0.0599
    118 H52        15.1567   -7.0166   -2.5635 H         1 3TL         0.0559
    119 H53        17.4920   -7.2604   -1.7304 H         1 3TL         0.0599
    120 H54        18.4717   -5.4448   -0.3421 H         1 3TL         0.0557
    121 H55        18.6304   -1.1647    1.5222 H         1 3TL         0.0645
    122 H56        20.6050   -1.7872    0.4415 H         1 3TL         0.2100
    123 H57        17.4030   -1.1395    6.8195 H         1 3TL         0.0234
    124 H58        17.0355    0.6177    6.8826 H         1 3TL         0.0234
    125 H59        18.6456    0.0565    6.3174 H         1 3TL         0.0234
    126 H60        17.3014   -1.3958    3.0897 H         1 3TL         0.0234
    127 H61        17.4688   -2.3337    4.6125 H         1 3TL         0.0234
    128 H62        18.7868   -1.2323    4.0865 H         1 3TL         0.0234
    129 H63        15.0869    4.3913   11.4494 H         1 3TL         0.0776
    130 H64        13.9569    3.5669   10.3224 H         1 3TL         0.0776
@<TRIPOS>BOND
     1    1    2 1  
     2   15    1 am 
     3    2    4 1  
     4    2    5 1  
     5    3   14 1  
     6   25    3 am 
     7    4    8 1  
     8    4   58 1  
     9    5    6 1  
    10    6    7 ar 
    11    6   13 ar 
    12    7    9 ar 
    13    9   10 ar 
    14   12   10 ar 
    15   15   11 2  
    16   13   12 ar 
    17   14   15 1  
    18   14   16 1  
    19   16   60 1  
    20   16   61 1  
    21   17   18 ar 
    22   66   17 ar 
    23   18   20 ar 
    24   19   24 1  
    25   62   19 am 
    26   21   20 ar 
    27   22   21 ar 
    28   66   22 ar 
    29   25   23 2  
    30   24   25 1  
    31   24   26 1  
    32   28   27 2  
    33   28   29 1  
    34   37   28 am 
    35   29   30 1  
    36   30   31 1  
    37   31   32 ar 
    38   31   36 ar 
    39   32   33 ar 
    40   33   34 ar 
    41   35   34 ar 
    42   36   35 ar 
    43   38   37 1  
    44   38   39 1  
    45   40   38 1  
    46   40   41 2  
    47   42   40 am 
    48   43   42 1  
    49   43   44 1  
    50   47   43 1  
    51   44   45 1  
    52   44   46 1  
    53   47   48 2  
    54   49   47 am 
    55   50   49 1  
    56   50   51 1  
    57   58   50 1  
    58   51   52 1  
    59   52   53 ar 
    60   52   57 ar 
    61   53   54 ar 
    62   54   55 ar 
    63   56   55 ar 
    64   57   56 ar 
    65   58   59 1  
    66   62   63 2  
    67   64   62 1  
    68   65   64 1  
    69   65   66 1  
    70    1   67 1  
    71    2   68 1  
    72    3   69 1  
    73    4   70 1  
    74    5   71 1  
    75    5   72 1  
    76    7   73 1  
    77    8   74 1  
    78    9   75 1  
    79   10   76 1  
    80   12   77 1  
    81   13   78 1  
    82   14   79 1  
    83   16   80 1  
    84   17   81 1  
    85   18   82 1  
    86   19   83 1  
    87   20   84 1  
    88   21   85 1  
    89   22   86 1  
    90   24   87 1  
    91   26   88 1  
    92   26   89 1  
    93   26   90 1  
    94   30   91 1  
    95   30   92 1  
    96   32   93 1  
    97   33   94 1  
    98   34   95 1  
    99   35   96 1  
   100   36   97 1  
   101   37   98 1  
   102   38   99 1  
   103   39  100 1  
   104   39  101 1  
   105   39  102 1  
   106   42  103 1  
   107   43  104 1  
   108   44  105 1  
   109   45  106 1  
   110   45  107 1  
   111   45  108 1  
   112   46  109 1  
   113   46  110 1  
   114   46  111 1  
   115   49  112 1  
   116   50  113 1  
   117   51  114 1  
   118   51  115 1  
   119   53  116 1  
   120   54  117 1  
   121   55  118 1  
   122   56  119 1  
   123   57  120 1  
   124   58  121 1  
   125   59  122 1  
   126   60  123 1  
   127   60  124 1  
   128   60  125 1  
   129   61  126 1  
   130   61  127 1  
   131   61  128 1  
   132   65  129 1  
   133   65  130 1  
@<TRIPOS>SUBSTRUCTURE
     1 3TL         1

