### 
### Created by X-TOOL on Mon Sep 10 21:12:55 2018
### 

@<TRIPOS>MOLECULE
2p3b_ligand
  130   133     1     0     0
SMALL
GAST_HUCK


@<TRIPOS>ATOM
      1 N1         19.1050    1.5230    2.5720 N.am      1 3TL        -0.2774
      2 C1         19.0010    1.4000    1.1110 C.3       1 3TL         0.0799
      3 N2         17.7470    2.3440    5.5670 N.am      1 3TL        -0.2635
      4 C2         19.9170    0.3010    0.5580 C.3       1 3TL         0.1079
      5 C3         19.3040    2.7190    0.3850 C.3       1 3TL         0.0065
      6 C4         18.5000    3.8510    0.9740 C.ar      1 3TL        -0.0408
      7 C5         19.0740    4.7180    1.9090 C.ar      1 3TL        -0.0603
      8 O1         21.2460    0.5860    0.9080 O.3       1 3TL        -0.3867
      9 C6         18.3270    5.7700    2.4510 C.ar      1 3TL        -0.0686
     10 C7         16.9930    5.9360    2.0700 C.ar      1 3TL        -0.0687
     11 O2         16.9750    0.9450    3.0290 O.2       1 3TL        -0.3945
     12 C8         16.4220    5.0550    1.1450 C.ar      1 3TL        -0.0686
     13 C9         17.1690    4.0210    0.5890 C.ar      1 3TL        -0.0603
     14 C10        18.4270    1.2580    4.8880 C.3       1 3TL         0.1331
     15 C11        18.1060    1.2250    3.4140 C.2       1 3TL         0.2024
     16 C12        18.0900   -0.0610    5.6110 C.3       1 3TL        -0.0063
     17 C13        13.3660    6.4650   11.4220 C.ar      1 3TL        -0.0578
     18 C14        12.4290    7.4580   11.1280 C.ar      1 3TL        -0.0685
     19 N4         17.7130    4.8450    8.0860 N.am      1 3TL        -0.2413
     20 C15        12.7040    8.3800   10.1230 C.ar      1 3TL        -0.0687
     21 C16        13.9180    8.3160    9.4420 C.ar      1 3TL        -0.0685
     22 C17        14.8540    7.3220    9.7540 C.ar      1 3TL        -0.0578
     23 O4         19.5710    3.1260    6.6190 O.2       1 3TL        -0.3944
     24 C18        17.5940    4.4730    6.6870 C.3       1 3TL         0.1300
     25 C19        18.4000    3.2580    6.2910 C.2       1 3TL         0.2036
     26 C20        17.9610    5.6430    5.7940 C.3       1 3TL        -0.0244
     27 O58        14.5470   -4.2180   -7.3560 O.2       1 3TL        -0.3773
     28 C81        15.7220   -4.4510   -7.5800 C.2       1 3TL         0.3239
     29 O59        16.0620   -5.0780   -8.8290 O.3       1 3TL        -0.2506
     30 CA5        15.0850   -5.4240   -9.8190 C.3       1 3TL         0.1113
     31 C50        14.1950   -6.5710   -9.3900 C.ar      1 3TL        -0.0130
     32 C63        13.0460   -6.8660  -10.1410 C.ar      1 3TL        -0.0578
     33 C64        12.1950   -7.9080   -9.7670 C.ar      1 3TL        -0.0685
     34 C65        12.5080   -8.6630   -8.6390 C.ar      1 3TL        -0.0687
     35 C66        13.6480   -8.3780   -7.8840 C.ar      1 3TL        -0.0685
     36 C67        14.4930   -7.3300   -8.2620 C.ar      1 3TL        -0.0578
     37 N54        16.7390   -4.1720   -6.7660 N.am      1 3TL        -0.2413
     38 C68        16.7230   -4.2260   -5.3210 C.3       1 3TL         0.1300
     39 C70        17.1010   -5.6250   -4.8540 C.3       1 3TL        -0.0244
     40 C69        17.6760   -3.1990   -4.7340 C.2       1 3TL         0.2036
     41 O54        18.8650   -3.1800   -5.0270 O.2       1 3TL        -0.3944
     42 N52        17.1230   -2.3130   -3.9050 N.am      1 3TL        -0.2635
     43 C60        17.8180   -1.2070   -3.2570 C.3       1 3TL         0.1331
     44 C62        17.4310    0.1090   -3.9360 C.3       1 3TL        -0.0063
     45 CG6        17.6890    0.0490   -5.4340 C.3       1 3TL        -0.0584
     46 CG5        18.1630    1.3140   -3.3410 C.3       1 3TL        -0.0584
     47 C61        17.5180   -1.1860   -1.7760 C.2       1 3TL         0.2024
     48 O52        16.4810   -0.7110   -1.3510 O.2       1 3TL        -0.3945
     49 N51        18.4460   -1.7280   -0.9840 N.am      1 3TL        -0.2774
     50 C51        18.4020   -1.7950    0.4780 C.3       1 3TL         0.0799
     51 C53        18.4400   -3.2430    0.9910 C.3       1 3TL         0.0065
     52 C54        17.3180   -4.1040    0.4640 C.ar      1 3TL        -0.0408
     53 C55        17.3790   -4.6740   -0.8090 C.ar      1 3TL        -0.0603
     54 C56        16.3440   -5.4800   -1.2880 C.ar      1 3TL        -0.0686
     55 C57        15.2480   -5.7110   -0.4600 C.ar      1 3TL        -0.0687
     56 C58        15.1880   -5.1450    0.8200 C.ar      1 3TL        -0.0686
     57 C59        16.2260   -4.3470    1.2860 C.ar      1 3TL        -0.0603
     58 C52        19.6260   -1.1120    1.0700 C.3       1 3TL         0.1079
     59 O51        20.7310   -1.9100    0.7100 O.3       1 3TL        -0.3867
     60 CG2        18.6220   -0.0890    7.0330 C.3       1 3TL        -0.0584
     61 CG1        18.6450   -1.2820    4.8830 C.3       1 3TL        -0.0584
     62 C31        16.6670    4.6770    8.9030 C.2       1 3TL         0.3239
     63 O8         15.6560    4.1020    8.5660 O.2       1 3TL        -0.3773
     64 O9         16.7360    5.1730   10.2590 O.3       1 3TL        -0.2506
     65 CA         15.5850    5.2870   11.1190 C.3       1 3TL         0.1113
     66 C          14.5930    6.3850   10.7430 C.ar      1 3TL        -0.0130
     67 H1         19.9685    1.8468    2.9588 H         1 3TL         0.1857
     68 H2         17.9621    1.1211    0.8812 H         1 3TL         0.0605
     69 H3         16.7522    2.4115    5.4906 H         1 3TL         0.1883
     70 H4         19.8169    0.2994   -0.5374 H         1 3TL         0.0645
     71 H5         19.0493    2.6115   -0.6797 H         1 3TL         0.0449
     72 H6         20.3754    2.9477    0.4845 H         1 3TL         0.0449
     73 H7         20.1037    4.5744    2.2158 H         1 3TL         0.0557
     74 H8         21.8150   -0.0937    0.5663 H         1 3TL         0.2100
     75 H9         18.7803    6.4515    3.1617 H         1 3TL         0.0599
     76 H10        16.4033    6.7433    2.4890 H         1 3TL         0.0559
     77 H11        15.3842    5.1796    0.8578 H         1 3TL         0.0599
     78 H12        16.7209    3.3527   -0.1374 H         1 3TL         0.0557
     79 H13        19.5104    1.4243    4.9800 H         1 3TL         0.0802
     80 H14        16.9940   -0.1475    5.6480 H         1 3TL         0.0343
     81 H15        13.1407    5.7377   12.1936 H         1 3TL         0.0557
     82 H16        11.4962    7.5099   11.6777 H         1 3TL         0.0599
     83 H17        18.5699    5.2237    8.4357 H         1 3TL         0.1899
     84 H18        11.9776    9.1442    9.8711 H         1 3TL         0.0559
     85 H19        14.1393    9.0399    8.6661 H         1 3TL         0.0599
     86 H20        15.7942    7.2844    9.2159 H         1 3TL         0.0557
     87 H21        16.5359    4.2309    6.5088 H         1 3TL         0.0796
     88 H22        17.8654    5.3437    4.7398 H         1 3TL         0.0277
     89 H23        18.9986    5.9472    5.9961 H         1 3TL         0.0277
     90 H24        17.2852    6.4865    5.9984 H         1 3TL         0.0277
     91 H25        15.6078   -5.7116  -10.7431 H         1 3TL         0.0776
     92 H26        14.4545   -4.5438  -10.0131 H         1 3TL         0.0776
     93 H27        12.8167   -6.2776  -11.0221 H         1 3TL         0.0557
     94 H28        11.3046   -8.1260  -10.3455 H         1 3TL         0.0599
     95 H29        11.8600   -9.4804   -8.3440 H         1 3TL         0.0559
     96 H30        13.8777   -8.9693   -7.0050 H         1 3TL         0.0599
     97 H31        15.3788   -7.1090   -7.6775 H         1 3TL         0.0557
     98 H32        17.5988   -3.8980   -7.1970 H         1 3TL         0.1899
     99 H33        15.7050   -3.9993   -4.9713 H         1 3TL         0.0796
    100 H34        17.0873   -5.6607   -3.7547 H         1 3TL         0.0277
    101 H35        18.1097   -5.8725   -5.2164 H         1 3TL         0.0277
    102 H36        16.3791   -6.3525   -5.2535 H         1 3TL         0.0277
    103 H37        16.1474   -2.4159   -3.7109 H         1 3TL         0.1883
    104 H38        18.9009   -1.3537   -3.3829 H         1 3TL         0.0802
    105 H39        16.3525    0.2583   -3.7795 H         1 3TL         0.0343
    106 H40        17.4022    1.0061   -5.8941 H         1 3TL         0.0234
    107 H41        17.0937   -0.7633   -5.8764 H         1 3TL         0.0234
    108 H42        18.7576   -0.1391   -5.6148 H         1 3TL         0.0234
    109 H43        17.9768    1.3579   -2.2578 H         1 3TL         0.0234
    110 H44        17.7953    2.2366   -3.8139 H         1 3TL         0.0234
    111 H45        19.2431    1.2137   -3.5236 H         1 3TL         0.0234
    112 H46        19.2469   -2.1258   -1.4315 H         1 3TL         0.1857
    113 H47        17.4849   -1.3001    0.8300 H         1 3TL         0.0605
    114 H48        18.3766   -3.2240    2.0890 H         1 3TL         0.0449
    115 H49        19.3960   -3.6941    0.6867 H         1 3TL         0.0449
    116 H50        18.2437   -4.4879   -1.4357 H         1 3TL         0.0557
    117 H51        16.3924   -5.9151   -2.2797 H         1 3TL         0.0599
    118 H52        14.4334   -6.3349   -0.8096 H         1 3TL         0.0559
    119 H53        14.3264   -5.3306    1.4511 H         1 3TL         0.0599
    120 H54        16.1834   -3.9188    2.2809 H         1 3TL         0.0557
    121 H55        19.5154   -1.0737    2.1637 H         1 3TL         0.0645
    122 H56        21.5260   -1.5237    1.0582 H         1 3TL         0.2100
    123 H57        18.3570   -1.0467    7.5048 H         1 3TL         0.0234
    124 H58        18.1781    0.7377    7.6069 H         1 3TL         0.0234
    125 H59        19.7163    0.0215    7.0174 H         1 3TL         0.0234
    126 H60        18.2763   -1.2899    3.8467 H         1 3TL         0.0234
    127 H61        18.3146   -2.1968    5.3967 H         1 3TL         0.0234
    128 H62        19.7442   -1.2393    4.8807 H         1 3TL         0.0234
    129 H63        15.9425    5.4877   12.1397 H         1 3TL         0.0776
    130 H64        15.0505    4.3258   11.1000 H         1 3TL         0.0776
@<TRIPOS>BOND
     1    1    2 1  
     2   15    1 am 
     3    2    4 1  
     4    2    5 1  
     5    3   14 1  
     6   25    3 am 
     7    4    8 1  
     8    4   58 1  
     9    5    6 1  
    10    6    7 ar 
    11    6   13 ar 
    12    7    9 ar 
    13    9   10 ar 
    14   12   10 ar 
    15   15   11 2  
    16   13   12 ar 
    17   14   15 1  
    18   14   16 1  
    19   16   60 1  
    20   16   61 1  
    21   17   18 ar 
    22   66   17 ar 
    23   18   20 ar 
    24   19   24 1  
    25   62   19 am 
    26   21   20 ar 
    27   22   21 ar 
    28   66   22 ar 
    29   25   23 2  
    30   24   25 1  
    31   24   26 1  
    32   28   27 2  
    33   28   29 1  
    34   37   28 am 
    35   29   30 1  
    36   30   31 1  
    37   31   32 ar 
    38   31   36 ar 
    39   32   33 ar 
    40   33   34 ar 
    41   35   34 ar 
    42   36   35 ar 
    43   38   37 1  
    44   38   39 1  
    45   40   38 1  
    46   40   41 2  
    47   42   40 am 
    48   43   42 1  
    49   43   44 1  
    50   47   43 1  
    51   44   45 1  
    52   44   46 1  
    53   47   48 2  
    54   49   47 am 
    55   50   49 1  
    56   50   51 1  
    57   58   50 1  
    58   51   52 1  
    59   52   53 ar 
    60   52   57 ar 
    61   53   54 ar 
    62   54   55 ar 
    63   56   55 ar 
    64   57   56 ar 
    65   58   59 1  
    66   62   63 2  
    67   64   62 1  
    68   65   64 1  
    69   65   66 1  
    70    1   67 1  
    71    2   68 1  
    72    3   69 1  
    73    4   70 1  
    74    5   71 1  
    75    5   72 1  
    76    7   73 1  
    77    8   74 1  
    78    9   75 1  
    79   10   76 1  
    80   12   77 1  
    81   13   78 1  
    82   14   79 1  
    83   16   80 1  
    84   17   81 1  
    85   18   82 1  
    86   19   83 1  
    87   20   84 1  
    88   21   85 1  
    89   22   86 1  
    90   24   87 1  
    91   26   88 1  
    92   26   89 1  
    93   26   90 1  
    94   30   91 1  
    95   30   92 1  
    96   32   93 1  
    97   33   94 1  
    98   34   95 1  
    99   35   96 1  
   100   36   97 1  
   101   37   98 1  
   102   38   99 1  
   103   39  100 1  
   104   39  101 1  
   105   39  102 1  
   106   42  103 1  
   107   43  104 1  
   108   44  105 1  
   109   45  106 1  
   110   45  107 1  
   111   45  108 1  
   112   46  109 1  
   113   46  110 1  
   114   46  111 1  
   115   49  112 1  
   116   50  113 1  
   117   51  114 1  
   118   51  115 1  
   119   53  116 1  
   120   54  117 1  
   121   55  118 1  
   122   56  119 1  
   123   57  120 1  
   124   58  121 1  
   125   59  122 1  
   126   60  123 1  
   127   60  124 1  
   128   60  125 1  
   129   61  126 1  
   130   61  127 1  
   131   61  128 1  
   132   65  129 1  
   133   65  130 1  
@<TRIPOS>SUBSTRUCTURE
     1 3TL         1

