### 
### Created by X-TOOL on Mon Sep 10 21:12:56 2018
### 

@<TRIPOS>MOLECULE
2p3c_ligand
  130   133     1     0     0
SMALL
GAST_HUCK


@<TRIPOS>ATOM
      1 N1        -10.4620  -15.4670   11.6520 N.am      1 3TL        -0.2774
      2 C1        -10.4590  -15.3080   13.0890 C.3       1 3TL         0.0799
      3 N2        -10.6500  -13.7320    8.9270 N.am      1 3TL        -0.2635
      4 C2         -9.8850  -16.5460   13.7550 C.3       1 3TL         0.1079
      5 C3        -11.8870  -15.0520   13.5630 C.3       1 3TL         0.0065
      6 C4        -12.2070  -13.5980   13.3430 C.ar      1 3TL        -0.0408
      7 C5        -13.0210  -13.2240   12.2710 C.ar      1 3TL        -0.0603
      8 O1        -10.7170  -17.6220   13.3810 O.3       1 3TL        -0.3867
      9 C6        -13.3020  -11.8730   12.0760 C.ar      1 3TL        -0.0686
     10 C7        -12.7720  -10.9140   12.9410 C.ar      1 3TL        -0.0687
     11 O2         -8.9370  -13.8740   11.2760 O.2       1 3TL        -0.3945
     12 C8        -11.9720  -11.2970   14.0120 C.ar      1 3TL        -0.0686
     13 C9        -11.6910  -12.6440   14.2180 C.ar      1 3TL        -0.0603
     14 C10        -9.9200  -14.9030    9.3970 C.3       1 3TL         0.1331
     15 C11        -9.7140  -14.7090   10.8630 C.2       1 3TL         0.2024
     16 C12        -8.6040  -15.0860    8.6420 C.3       1 3TL        -0.0063
     17 C13       -11.2170   -8.1330    3.1340 C.ar      1 3TL        -0.0578
     18 C14       -11.6840   -6.8380    3.3310 C.ar      1 3TL        -0.0685
     19 N4        -12.4990  -12.3820    6.2310 N.am      1 3TL        -0.2413
     20 C15       -12.9880   -6.6340    3.7910 C.ar      1 3TL        -0.0687
     21 C16       -13.8200   -7.7300    4.0430 C.ar      1 3TL        -0.0685
     22 C17       -13.3480   -9.0340    3.8350 C.ar      1 3TL        -0.0578
     23 O4        -11.9560  -14.8200    7.4890 O.2       1 3TL        -0.3944
     24 C18       -12.2500  -12.4720    7.6590 C.3       1 3TL         0.1300
     25 C19       -11.6120  -13.7830    8.0210 C.2       1 3TL         0.2036
     26 C20       -13.5470  -12.2970    8.4420 C.3       1 3TL        -0.0244
     27 O58        -3.8480  -14.7170   20.8330 O.2       1 3TL        -0.3773
     28 C81        -4.0890  -15.7890   21.3680 C.2       1 3TL         0.3239
     29 O59        -3.9850  -15.9170   22.8110 O.3       1 3TL        -0.2506
     30 CA5        -3.4950  -14.8330   23.6000 C.3       1 3TL         0.1113
     31 C50        -1.9830  -14.7630   23.5710 C.ar      1 3TL        -0.0130
     32 C63        -1.3570  -13.5350   23.7900 C.ar      1 3TL        -0.0578
     33 C64         0.0360  -13.4460   23.7840 C.ar      1 3TL        -0.0685
     34 C65         0.8080  -14.5830   23.5600 C.ar      1 3TL        -0.0687
     35 C66         0.1790  -15.8120   23.3490 C.ar      1 3TL        -0.0685
     36 C67        -1.2160  -15.9100   23.3590 C.ar      1 3TL        -0.0578
     37 N54        -4.4250  -16.8840   20.6960 N.am      1 3TL        -0.2413
     38 C68        -4.6030  -16.8670   19.2570 C.3       1 3TL         0.1300
     39 C70        -3.9200  -18.0950   18.6590 C.3       1 3TL        -0.0244
     40 C69        -6.0690  -16.7580   18.9300 C.2       1 3TL         0.2036
     41 O54        -6.8610  -17.5630   19.3900 O.2       1 3TL        -0.3944
     42 N52        -6.4280  -15.7080   18.1860 N.am      1 3TL        -0.2635
     43 C60        -7.7440  -15.5150   17.5790 C.3       1 3TL         0.1331
     44 C62        -8.6460  -14.5300   18.3460 C.3       1 3TL        -0.0063
     45 CG6        -8.6160  -14.7410   19.8670 C.3       1 3TL        -0.0584
     46 CG5       -10.0840  -14.6370   17.8590 C.3       1 3TL        -0.0584
     47 C61        -7.5540  -15.1130   16.1450 C.2       1 3TL         0.2024
     48 O52        -7.4890  -13.9360   15.8140 O.2       1 3TL        -0.3945
     49 N51        -7.4340  -16.1420   15.3070 N.am      1 3TL        -0.2774
     50 C51        -7.3580  -16.0730   13.8530 C.3       1 3TL         0.0799
     51 C53        -6.1070  -16.7490   13.3000 C.3       1 3TL         0.0065
     52 C54        -4.8150  -16.1800   13.8230 C.ar      1 3TL        -0.0408
     53 C55        -4.4190  -16.4080   15.1320 C.ar      1 3TL        -0.0603
     54 C56        -3.2240  -15.8820   15.6070 C.ar      1 3TL        -0.0686
     55 C57        -2.4410  -15.1300   14.7490 C.ar      1 3TL        -0.0687
     56 C58        -2.8360  -14.9170   13.4290 C.ar      1 3TL        -0.0686
     57 C59        -4.0260  -15.4460   12.9650 C.ar      1 3TL        -0.0603
     58 C52        -8.4860  -16.9260   13.3040 C.3       1 3TL         0.1079
     59 O51        -8.2600  -18.2620   13.7460 O.3       1 3TL        -0.3867
     60 CG2        -8.8390  -15.4600    7.1820 C.3       1 3TL        -0.0584
     61 CG1        -7.6350  -16.0840    9.2810 C.3       1 3TL        -0.0584
     62 C31       -11.6970  -11.7070    5.4010 C.2       1 3TL         0.3239
     63 O8        -10.6620  -11.1610    5.7560 O.2       1 3TL        -0.3773
     64 O9        -12.1000  -11.6040    4.0050 O.3       1 3TL        -0.2506
     65 CA        -11.5180  -10.6300    3.1420 C.3       1 3TL         0.1113
     66 C         -12.0500   -9.2340    3.3870 C.ar      1 3TL        -0.0130
     67 H1        -11.0448  -16.1686   11.2419 H         1 3TL         0.1857
     68 H2         -9.8336  -14.4426   13.3536 H         1 3TL         0.0605
     69 H3        -10.4100  -12.8404    9.3111 H         1 3TL         0.1883
     70 H4         -9.8890  -16.4043   14.8458 H         1 3TL         0.0645
     71 H5        -11.9723  -15.2934   14.6328 H         1 3TL         0.0449
     72 H6        -12.5867  -15.6773   12.9891 H         1 3TL         0.0449
     73 H7        -13.4277  -13.9730   11.6012 H         1 3TL         0.0557
     74 H8        -10.3943  -18.4229   13.7771 H         1 3TL         0.2100
     75 H9        -13.9338  -11.5660   11.2504 H         1 3TL         0.0599
     76 H10       -12.9855   -9.8640   12.7767 H         1 3TL         0.0559
     77 H11       -11.5686  -10.5484   14.6843 H         1 3TL         0.0599
     78 H12       -11.0738  -12.9499   15.0550 H         1 3TL         0.0557
     79 H13       -10.5333  -15.8018    9.2358 H         1 3TL         0.0802
     80 H14        -8.1025  -14.1070    8.6525 H         1 3TL         0.0343
     81 H15       -10.2039   -8.2930    2.7831 H         1 3TL         0.0557
     82 H16       -11.0394   -5.9903    3.1286 H         1 3TL         0.0599
     83 H17       -13.3021  -12.8431    5.8536 H         1 3TL         0.1899
     84 H18       -13.3545   -5.6267    3.9524 H         1 3TL         0.0559
     85 H19       -14.8312   -7.5710    4.3996 H         1 3TL         0.0599
     86 H20       -13.9950   -9.8830    4.0236 H         1 3TL         0.0557
     87 H21       -11.5607  -11.6619    7.9393 H         1 3TL         0.0796
     88 H22       -13.3373  -12.3683    9.5195 H         1 3TL         0.0277
     89 H23       -14.2584  -13.0850    8.1540 H         1 3TL         0.0277
     90 H24       -13.9808  -11.3114    8.2174 H         1 3TL         0.0277
     91 H25        -3.8263  -14.9698   24.6400 H         1 3TL         0.0776
     92 H26        -3.9038  -13.8909   23.2058 H         1 3TL         0.0776
     93 H27        -1.9544  -12.6476   23.9653 H         1 3TL         0.0557
     94 H28         0.5177  -12.4899   23.9540 H         1 3TL         0.0599
     95 H29         1.8898  -14.5147   23.5495 H         1 3TL         0.0559
     96 H30         0.7780  -16.6987   23.1758 H         1 3TL         0.0599
     97 H31        -1.6977  -16.8686   23.2034 H         1 3TL         0.0557
     98 H32        -4.5584  -17.7407   21.1942 H         1 3TL         0.1899
     99 H33        -4.1041  -15.9746   18.8512 H         1 3TL         0.0796
    100 H34        -4.0496  -18.0911   17.5667 H         1 3TL         0.0277
    101 H35        -4.3712  -19.0063   19.0785 H         1 3TL         0.0277
    102 H36        -2.8472  -18.0722   18.9010 H         1 3TL         0.0277
    103 H37        -5.7417  -14.9972   18.0320 H         1 3TL         0.1883
    104 H38        -8.2574  -16.4878   17.5894 H         1 3TL         0.0802
    105 H39        -8.2821  -13.5130   18.1379 H         1 3TL         0.0343
    106 H40        -9.2783  -14.0087   20.3519 H         1 3TL         0.0234
    107 H41        -7.5884  -14.6064   20.2357 H         1 3TL         0.0234
    108 H42        -8.9599  -15.7589   20.1029 H         1 3TL         0.0234
    109 H43       -10.1143  -14.4870   16.7697 H         1 3TL         0.0234
    110 H44       -10.6964  -13.8678   18.3522 H         1 3TL         0.0234
    111 H45       -10.4806  -15.6336   18.1030 H         1 3TL         0.0234
    112 H46        -7.3918  -17.0532   15.7168 H         1 3TL         0.1857
    113 H47        -7.4250  -15.0280   13.5161 H         1 3TL         0.0605
    114 H48        -6.1126  -16.6422   12.2052 H         1 3TL         0.0449
    115 H49        -6.1460  -17.8160   13.5646 H         1 3TL         0.0449
    116 H50        -5.0456  -17.0003   15.7889 H         1 3TL         0.0557
    117 H51        -2.9111  -16.0573   16.6299 H         1 3TL         0.0599
    118 H52        -1.5114  -14.7023   15.1067 H         1 3TL         0.0559
    119 H53        -2.2080  -14.3347   12.7644 H         1 3TL         0.0599
    120 H54        -4.3345  -15.2851   11.9383 H         1 3TL         0.0557
    121 H55        -8.4509  -16.8794   12.2056 H         1 3TL         0.0645
    122 H56        -8.9519  -18.8242   13.4179 H         1 3TL         0.2100
    123 H57        -7.8708  -15.5824    6.6745 H         1 3TL         0.0234
    124 H58        -9.4141  -14.6634    6.6874 H         1 3TL         0.0234
    125 H59        -9.4015  -16.4039    7.1312 H         1 3TL         0.0234
    126 H60        -7.4684  -15.8107   10.3334 H         1 3TL         0.0234
    127 H61        -6.6772  -16.0625    8.7405 H         1 3TL         0.0234
    128 H62        -8.0631  -17.0959    9.2283 H         1 3TL         0.0234
    129 H63       -11.7337  -10.9101    2.1004 H         1 3TL         0.0776
    130 H64       -10.4298  -10.6242    3.3024 H         1 3TL         0.0776
@<TRIPOS>BOND
     1    1    2 1  
     2   15    1 am 
     3    2    4 1  
     4    2    5 1  
     5    3   14 1  
     6   25    3 am 
     7    4    8 1  
     8    4   58 1  
     9    5    6 1  
    10    6    7 ar 
    11    6   13 ar 
    12    7    9 ar 
    13    9   10 ar 
    14   12   10 ar 
    15   15   11 2  
    16   13   12 ar 
    17   14   15 1  
    18   14   16 1  
    19   16   60 1  
    20   16   61 1  
    21   17   18 ar 
    22   66   17 ar 
    23   18   20 ar 
    24   19   24 1  
    25   62   19 am 
    26   21   20 ar 
    27   22   21 ar 
    28   66   22 ar 
    29   25   23 2  
    30   24   25 1  
    31   24   26 1  
    32   28   27 2  
    33   28   29 1  
    34   37   28 am 
    35   29   30 1  
    36   30   31 1  
    37   31   32 ar 
    38   31   36 ar 
    39   32   33 ar 
    40   33   34 ar 
    41   35   34 ar 
    42   36   35 ar 
    43   38   37 1  
    44   38   39 1  
    45   40   38 1  
    46   40   41 2  
    47   42   40 am 
    48   43   42 1  
    49   43   44 1  
    50   47   43 1  
    51   44   45 1  
    52   44   46 1  
    53   47   48 2  
    54   49   47 am 
    55   50   49 1  
    56   50   51 1  
    57   58   50 1  
    58   51   52 1  
    59   52   53 ar 
    60   52   57 ar 
    61   53   54 ar 
    62   54   55 ar 
    63   56   55 ar 
    64   57   56 ar 
    65   58   59 1  
    66   62   63 2  
    67   64   62 1  
    68   65   64 1  
    69   65   66 1  
    70    1   67 1  
    71    2   68 1  
    72    3   69 1  
    73    4   70 1  
    74    5   71 1  
    75    5   72 1  
    76    7   73 1  
    77    8   74 1  
    78    9   75 1  
    79   10   76 1  
    80   12   77 1  
    81   13   78 1  
    82   14   79 1  
    83   16   80 1  
    84   17   81 1  
    85   18   82 1  
    86   19   83 1  
    87   20   84 1  
    88   21   85 1  
    89   22   86 1  
    90   24   87 1  
    91   26   88 1  
    92   26   89 1  
    93   26   90 1  
    94   30   91 1  
    95   30   92 1  
    96   32   93 1  
    97   33   94 1  
    98   34   95 1  
    99   35   96 1  
   100   36   97 1  
   101   37   98 1  
   102   38   99 1  
   103   39  100 1  
   104   39  101 1  
   105   39  102 1  
   106   42  103 1  
   107   43  104 1  
   108   44  105 1  
   109   45  106 1  
   110   45  107 1  
   111   45  108 1  
   112   46  109 1  
   113   46  110 1  
   114   46  111 1  
   115   49  112 1  
   116   50  113 1  
   117   51  114 1  
   118   51  115 1  
   119   53  116 1  
   120   54  117 1  
   121   55  118 1  
   122   56  119 1  
   123   57  120 1  
   124   58  121 1  
   125   59  122 1  
   126   60  123 1  
   127   60  124 1  
   128   60  125 1  
   129   61  126 1  
   130   61  127 1  
   131   61  128 1  
   132   65  129 1  
   133   65  130 1  
@<TRIPOS>SUBSTRUCTURE
     1 3TL         1

