### 
### Created by X-TOOL on Mon Sep 10 21:12:56 2018
### 

@<TRIPOS>MOLECULE
2p3g_ligand
   37    40     1     0     0
SMALL
GAST_HUCK


@<TRIPOS>ATOM
      1 N1         87.7620  260.1570  111.6410 N.am      1 F10        -0.2898
      2 O3         88.5970  260.7450  109.5390 O.2       1 F10        -0.4040
      3 C10        79.0800  262.6050  106.2230 C.ar      1 F10        -0.0525
      4 C11        81.9920  261.2230  107.9860 C.ar      1 F10        -0.0287
      5 C9         77.7060  262.6780  106.1980 C.ar      1 F10        -0.0633
      6 C14        85.7050  260.9450  108.6950 C.2       1 F10        -0.0565
      7 C17        86.6550  260.2380  112.5800 C.3       1 F10         0.0436
      8 C18        85.3990  259.5690  112.0610 C.3       1 F10         0.0315
      9 C15        86.2930  260.4980  109.8980 C.2       1 F10         0.0410
     10 C16        87.6680  260.4790  110.3000 C.2       1 F10         0.1752
     11 C21        83.8470  261.5410  106.5510 C.ar      1 F10        -0.0358
     12 C22        82.9710  261.9010  105.5620 C.ar      1 F10        -0.0005
     13 C19        85.2640  260.0900  110.7060 C.2       1 F10         0.0718
     14 C12        83.3580  261.1890  107.7880 C.ar      1 F10         0.0069
     15 C13        84.3350  260.8050  108.7880 C.2       1 F10         0.0639
     16 C2         81.1820  261.5950  106.9290 C.ar      1 F10         0.0430
     17 C4         79.7360  261.6530  106.9730 C.ar      1 F10         0.0313
     18 C5         78.9540  260.7770  107.6960 C.ar      1 F10         0.1446
     19 C7         77.5790  260.8360  107.6910 C.ar      1 F10        -0.0253
     20 C8         76.9480  261.7910  106.9300 C.ar      1 F10        -0.0618
     21 F6         79.5220  259.8280  108.4410 F         1 F10        -0.1799
     22 N20        84.0890  260.2640  110.0260 N.pl3     1 F10        -0.2707
     23 N23        81.6500  261.9320  105.7220 N.ar      1 F10        -0.3048
     24 H1         88.6480  259.8487  111.9874 H         1 F10         0.1835
     25 H2         79.6591  263.3119  105.6399 H         1 F10         0.0628
     26 H3         81.5645  260.9640  108.9479 H         1 F10         0.0657
     27 H4         77.2175  263.4379  105.5988 H         1 F10         0.0588
     28 H5         86.2444  261.3365  107.8338 H         1 F10         0.0380
     29 H6         86.4347  261.2981  112.7739 H         1 F10         0.0546
     30 H7         86.9528  259.7477  113.5185 H         1 F10         0.0546
     31 H8         84.5275  259.8413  112.6744 H         1 F10         0.0506
     32 H9         85.5129  258.4750  112.0509 H         1 F10         0.0506
     33 H10        84.9143  261.5334  106.3614 H         1 F10         0.0646
     34 H11        83.3760  262.1761  104.5948 H         1 F10         0.0793
     35 H12        76.9991  260.1360  108.2816 H         1 F10         0.0609
     36 H13        75.8656  261.8455  106.9062 H         1 F10         0.0622
     37 H14        83.1558  260.0240  110.3900 H         1 F10         0.2347
@<TRIPOS>BOND
     1    7    1 1  
     2   10    1 am 
     3   10    2 2  
     4    3    5 ar 
     5   17    3 ar 
     6    4   14 ar 
     7   16    4 ar 
     8    5   20 ar 
     9    6    9 1  
    10   15    6 2  
    11    8    7 1  
    12   13    8 1  
    13    9   10 1  
    14   13    9 2  
    15   11   12 ar 
    16   14   11 ar 
    17   12   23 ar 
    18   22   13 1  
    19   14   15 1  
    20   15   22 1  
    21   16   17 1  
    22   16   23 ar 
    23   17   18 ar 
    24   18   19 ar 
    25   18   21 1  
    26   19   20 ar 
    27    1   24 1  
    28    3   25 1  
    29    4   26 1  
    30    5   27 1  
    31    6   28 1  
    32    7   29 1  
    33    7   30 1  
    34    8   31 1  
    35    8   32 1  
    36   11   33 1  
    37   12   34 1  
    38   19   35 1  
    39   20   36 1  
    40   22   37 1  
@<TRIPOS>SUBSTRUCTURE
     1 F10         1

