### 
### Created by X-TOOL on Mon Sep 10 21:12:57 2018
### 

@<TRIPOS>MOLECULE
2p3i_ligand
   42    42     1     0     0
SMALL
GAST_HUCK


@<TRIPOS>ATOM
      1 C1         44.3530   10.2540   18.3400 C.2       1 MNA         0.1041
      2 C2         44.2540   11.4040   19.3330 C.3       1 MNA         0.2201
      3 C3         45.2980   12.4930   19.0700 C.3       1 MNA         0.0353
      4 C4         44.9200   13.3860   17.8750 C.3       1 MNA         0.0850
      5 C5         43.4860   13.9030   17.9810 C.3       1 MNA         0.0964
      6 C6         42.5540   12.6980   18.1730 C.3       1 MNA         0.1143
      7 C7         41.0750   13.0440   18.3060 C.3       1 MNA         0.1114
      8 C8         40.2110   11.7860   18.4090 C.3       1 MNA         0.1065
      9 C9         38.7810   12.0980   18.0010 C.3       1 MNA         0.0727
     10 C10        42.4110   15.7830   16.7950 C.2       1 MNA         0.1733
     11 C11        42.0880   16.3480   15.4430 C.3       1 MNA         0.0257
     12 C12        43.7150    9.8010   21.1110 C.3       1 MNA         0.0386
     13 N5         43.1560   14.6710   16.7940 N.am      1 MNA        -0.2790
     14 O1A        45.4670    9.7070   18.1760 O.co2     1 MNA        -0.5426
     15 O1B        43.3160    9.8570   17.7510 O.co2     1 MNA        -0.5426
     16 O2         44.4890   10.9120   20.6470 O.3       1 MNA        -0.3501
     17 O4         45.8710   14.4590   17.7890 O.3       1 MNA        -0.3893
     18 O6         42.9470   11.9830   19.3680 O.3       1 MNA        -0.3384
     19 O7         40.8630   13.8420   19.4840 O.3       1 MNA        -0.3865
     20 O8         40.7230   10.7440   17.5680 O.3       1 MNA        -0.3869
     21 O9         37.9900   10.9220   18.2470 O.3       1 MNA        -0.3924
     22 O10        42.0110   16.2990   17.8280 O.2       1 MNA        -0.3974
     23 H1         46.2654   12.0130   18.8611 H         1 MNA         0.0336
     24 H2         45.3871   13.1222   19.9678 H         1 MNA         0.0336
     25 H3         44.9918   12.7848   16.9566 H         1 MNA         0.0618
     26 H4         43.3999   14.5611   18.8582 H         1 MNA         0.0608
     27 H5         42.6728   12.0388   17.3005 H         1 MNA         0.0646
     28 H6         40.7665   13.6171   17.4192 H         1 MNA         0.0647
     29 H7         40.2186   11.4376   19.4523 H         1 MNA         0.0643
     30 H8         38.7442   12.3575   16.9327 H         1 MNA         0.0584
     31 H9         38.3966   12.9394   18.5962 H         1 MNA         0.0584
     32 H10        41.4760   17.2543   15.5611 H         1 MNA         0.0467
     33 H11        41.5298   15.6024   14.8578 H         1 MNA         0.0467
     34 H12        43.0213   16.6016   14.9190 H         1 MNA         0.0467
     35 H13        44.0175    9.5467   22.1376 H         1 MNA         0.0523
     36 H14        43.8850    8.9356   20.4536 H         1 MNA         0.0523
     37 H15        42.6477   10.0669   21.0985 H         1 MNA         0.0523
     38 H16        43.5092   14.3473   15.9162 H         1 MNA         0.1856
     39 H17        45.6857   14.9840   17.0192 H         1 MNA         0.2099
     40 H18        41.1092   13.3413   20.2529 H         1 MNA         0.2100
     41 H19        41.6173   10.5459   17.8200 H         1 MNA         0.2100
     42 H20        37.0884   11.0907   17.9996 H         1 MNA         0.2095
@<TRIPOS>BOND
     1    2    1 1  
     2    1   14 ar 
     3    1   15 ar 
     4    3    2 1  
     5    2   16 1  
     6   18    2 1  
     7    4    3 1  
     8    5    4 1  
     9    4   17 1  
    10    5    6 1  
    11   13    5 1  
    12    6    7 1  
    13    6   18 1  
    14    7    8 1  
    15    7   19 1  
    16    8    9 1  
    17    8   20 1  
    18    9   21 1  
    19   10   11 1  
    20   10   13 am 
    21   10   22 2  
    22   16   12 1  
    23    3   23 1  
    24    3   24 1  
    25    4   25 1  
    26    5   26 1  
    27    6   27 1  
    28    7   28 1  
    29    8   29 1  
    30    9   30 1  
    31    9   31 1  
    32   11   32 1  
    33   11   33 1  
    34   11   34 1  
    35   12   35 1  
    36   12   36 1  
    37   12   37 1  
    38   13   38 1  
    39   17   39 1  
    40   19   40 1  
    41   20   41 1  
    42   21   42 1  
@<TRIPOS>SUBSTRUCTURE
     1 MNA         1

