### 
### Created by X-TOOL on Mon Sep 10 21:12:56 2018
### 

@<TRIPOS>MOLECULE
2p4i_ligand
   68    72     1     0     0
SMALL
GAST_HUCK


@<TRIPOS>ATOM
      1 C26        25.9530    5.7030   91.1250 C.3       1 MR9         0.0582
      2 C27        26.8990    4.5000   91.1830 C.3       1 MR9         0.0691
      3 O3         26.9740    3.9770   92.5290 O.3       1 MR9        -0.3755
      4 C28        25.6500    3.7690   93.1560 C.3       1 MR9         0.0691
      5 C29        24.6620    4.9360   92.9980 C.3       1 MR9         0.0582
      6 N6         24.6170    5.2400   91.5560 N.pl3     1 MR9        -0.2834
      7 C20        23.6760    6.1310   91.2010 C.ar      1 MR9         0.1104
      8 C21        23.4400    7.2910   91.9540 C.ar      1 MR9        -0.0130
      9 C22        22.4690    8.1870   91.5410 C.ar      1 MR9        -0.0518
     10 C23        21.7200    7.9420   90.3960 C.ar      1 MR9         0.0093
     11 C25        20.6750    8.9700   89.9520 C.3       1 MR9         0.3486
     12 F2         21.3370   10.0020   89.4820 F         1 MR9        -0.2425
     13 F3         19.9610    9.3860   90.9720 F         1 MR9        -0.2425
     14 F1         19.8730    8.5370   88.9830 F         1 MR9        -0.2425
     15 C24        21.9590    6.8050   89.6390 C.ar      1 MR9        -0.0253
     16 C19        22.9470    5.8980   90.0270 C.ar      1 MR9         0.1213
     17 N4         23.1440    4.7540   89.3430 N.am      1 MR9        -0.2301
     18 C17        22.9340    4.5240   88.0380 C.2       1 MR9         0.2239
     19 O2         22.5250    5.3640   87.2380 O.2       1 MR9        -0.3770
     20 C12        23.1680    3.0730   87.5770 C.ar      1 MR9         0.0414
     21 C11        22.8430    2.7280   86.2630 C.ar      1 MR9        -0.0134
     22 C13        23.6130    2.0750   88.4490 C.ar      1 MR9        -0.0580
     23 C14        23.7750    0.7660   87.9970 C.ar      1 MR9        -0.0614
     24 C15        23.4720    0.4340   86.6820 C.ar      1 MR9        -0.0058
     25 C16        23.6560   -1.0190   86.1930 C.3       1 MR9        -0.0298
     26 C10        23.0190    1.4230   85.8110 C.ar      1 MR9         0.1295
     27 O1         22.7010    1.1280   84.5140 O.3       1 MR9        -0.2361
     28 C9         23.6450    1.1290   83.5410 C.ar      1 MR9         0.2042
     29 N3         24.9540    1.1830   83.8440 N.ar      1 MR9        -0.2648
     30 C8         25.9090    1.1820   82.9090 C.ar      1 MR9         0.0037
     31 C7         25.5610    1.1260   81.5590 C.ar      1 MR9        -0.0411
     32 C6         24.2100    1.0640   81.2150 C.ar      1 MR9        -0.0364
     33 C5         23.2300    1.0750   82.2130 C.ar      1 MR9         0.0660
     34 C2         21.8740    0.9870   81.8520 C.ar      1 MR9         0.0573
     35 N1         21.5510    0.8720   80.5530 N.ar      1 MR9        -0.2531
     36 C3         20.8370    0.9670   82.7960 C.ar      1 MR9        -0.0191
     37 C4         19.5250    0.8470   82.3540 C.ar      1 MR9         0.0113
     38 N2         19.2880    0.7380   81.0620 N.ar      1 MR9        -0.2577
     39 C1         20.2780    0.7480   80.1600 C.ar      1 MR9         0.1871
     40 N5         20.0010    0.6550   78.8620 N.pl3     1 MR9        -0.2927
     41 C18        21.0880    0.7800   77.8750 C.3       1 MR9         0.0194
     42 H1         25.9021    6.0914   90.0971 H         1 MR9         0.0558
     43 H2         26.3112    6.4951   91.7990 H         1 MR9         0.0558
     44 H3         27.9028    4.8134   90.8604 H         1 MR9         0.0581
     45 H4         26.5262    3.7139   90.5099 H         1 MR9         0.0581
     46 H5         25.8055    3.5977   94.2314 H         1 MR9         0.0581
     47 H6         25.1959    2.8748   92.7042 H         1 MR9         0.0581
     48 H7         25.0129    5.8126   93.5623 H         1 MR9         0.0558
     49 H8         23.6646    4.6434   93.3579 H         1 MR9         0.0558
     50 H9         24.0140    7.4843   92.8530 H         1 MR9         0.0608
     51 H10        22.2910    9.0885   92.1161 H         1 MR9         0.0749
     52 H11        21.3770    6.6198   88.7434 H         1 MR9         0.0613
     53 H12        23.4897    3.9803   89.8740 H         1 MR9         0.2237
     54 H13        22.4508    3.4820   85.5902 H         1 MR9         0.0586
     55 H14        23.8332    2.3201   89.4817 H         1 MR9         0.0568
     56 H15        24.1394    0.0029   88.6752 H         1 MR9         0.0542
     57 H16        24.0182   -1.6423   87.0238 H         1 MR9         0.0381
     58 H17        24.3884   -1.0398   85.3726 H         1 MR9         0.0381
     59 H18        22.6924   -1.4100   85.8343 H         1 MR9         0.0381
     60 H19        26.9526    1.2246   83.1991 H         1 MR9         0.0816
     61 H20        26.3262    1.1306   80.7912 H         1 MR9         0.0628
     62 H21        23.9194    1.0072   80.1722 H         1 MR9         0.0742
     63 H22        21.0557    1.0440   83.8549 H         1 MR9         0.0656
     64 H23        18.7057    0.8431   83.0638 H         1 MR9         0.0884
     65 H24        19.0326    0.4966   78.5489 H         1 MR9         0.1858
     66 H25        20.6755    0.6777   76.8604 H         1 MR9         0.0488
     67 H26        21.8338   -0.0097   78.0489 H         1 MR9         0.0488
     68 H27        21.5661    1.7652   77.9788 H         1 MR9         0.0488
@<TRIPOS>BOND
     1    1    2 1  
     2    1    6 1  
     3    2    3 1  
     4    3    4 1  
     5    4    5 1  
     6    5    6 1  
     7    6    7 1  
     8    7    8 ar 
     9    7   16 ar 
    10    8    9 ar 
    11    9   10 ar 
    12   10   11 1  
    13   10   15 ar 
    14   11   12 1  
    15   11   13 1  
    16   11   14 1  
    17   15   16 ar 
    18   16   17 1  
    19   17   18 am 
    20   18   19 2  
    21   18   20 1  
    22   20   21 ar 
    23   20   22 ar 
    24   21   26 ar 
    25   22   23 ar 
    26   23   24 ar 
    27   24   25 1  
    28   24   26 ar 
    29   26   27 1  
    30   27   28 1  
    31   28   29 ar 
    32   28   33 ar 
    33   29   30 ar 
    34   30   31 ar 
    35   31   32 ar 
    36   32   33 ar 
    37   33   34 1  
    38   34   35 ar 
    39   34   36 ar 
    40   35   39 ar 
    41   36   37 ar 
    42   37   38 ar 
    43   38   39 ar 
    44   39   40 1  
    45   40   41 1  
    46    1   42 1  
    47    1   43 1  
    48    2   44 1  
    49    2   45 1  
    50    4   46 1  
    51    4   47 1  
    52    5   48 1  
    53    5   49 1  
    54    8   50 1  
    55    9   51 1  
    56   15   52 1  
    57   17   53 1  
    58   21   54 1  
    59   22   55 1  
    60   23   56 1  
    61   25   57 1  
    62   25   58 1  
    63   25   59 1  
    64   30   60 1  
    65   31   61 1  
    66   32   62 1  
    67   36   63 1  
    68   37   64 1  
    69   40   65 1  
    70   41   66 1  
    71   41   67 1  
    72   41   68 1  
@<TRIPOS>SUBSTRUCTURE
     1 MR9         1

