### 
### Created by X-TOOL on Mon Sep 10 21:12:56 2018
### 

@<TRIPOS>MOLECULE
2p4j_ligand
  104   105     1     0     0
SMALL
GAST_HUCK


@<TRIPOS>ATOM
      1 O4        -10.8270   -0.4670   31.5230 O.2       1 23I        -0.3945
      2 C11         4.8920   -5.4360   32.8140 C.ar      1 23I        -0.0582
      3 C12         5.7650   -4.6750   33.6240 C.ar      1 23I        -0.0685
      4 C13         5.2300   -3.7980   34.5980 C.ar      1 23I        -0.0687
      5 C14         3.8230   -3.6810   34.7610 C.ar      1 23I        -0.0685
      6 C15         2.9480   -4.4420   33.9490 C.ar      1 23I        -0.0582
      7 C16         3.4750   -5.3290   32.9680 C.ar      1 23I        -0.0183
      8 C20         2.5640   -1.5730   25.9320 C.3       1 23I         0.0790
      9 C21         1.5520   -5.1710   30.0280 C.2       1 23I         0.2041
     10 C22        -3.3190   -3.9380   30.0730 C.2       1 23I         0.2023
     11 C24         0.6620   -3.3610   28.4870 C.ar      1 23I        -0.0214
     12 C27        -1.9510   -3.7140   29.5230 C.ar      1 23I         0.0397
     13 C30        -7.9750   -2.1290   32.1150 C.2       1 23I         0.1811
     14 C31        -4.5810   -4.6300   32.1330 C.3       1 23I         0.0678
     15 C32        -5.0460   -3.4840   33.0740 C.3       1 23I         0.0803
     16 C33        -4.2590   -5.9790   32.8730 C.3       1 23I        -0.0252
     17 C34        -3.3460   -7.0010   32.1050 C.3       1 23I        -0.0446
     18 C35        -2.8000   -8.0890   33.0390 C.3       1 23I        -0.0626
     19 C17         2.5660   -6.1850   32.0580 C.3       1 23I         0.0723
     20 C18         1.7600   -7.2710   32.7960 C.3       1 23I        -0.0320
     21 N21         1.5690   -5.3790   31.3580 N.am      1 23I        -0.2723
     22 O21         2.4070   -5.6740   29.2800 O.2       1 23I        -0.3845
     23 C23         0.4370   -4.3260   29.5020 C.ar      1 23I         0.0398
     24 C25        -0.4060   -2.5550   27.9730 C.ar      1 23I         0.0754
     25 C26        -1.7140   -2.7610   28.5170 C.ar      1 23I        -0.0214
     26 C28        -0.8620   -4.4710   29.9860 C.ar      1 23I        -0.0393
     27 N22        -0.1600   -1.5680   26.8960 N.am      1 23I        -0.1796
     28 C29        -1.2280   -0.5660   26.5640 C.3       1 23I         0.0445
     29 S2          1.4100   -0.7470   26.9990 S.o2      1 23I         0.0593
     30 O23         1.2930    0.7300   26.4690 O.2       1 23I        -0.1500
     31 O24         1.9970   -0.6270   28.4540 O.2       1 23I        -0.1500
     32 O22        -4.3480   -3.8450   29.3740 O.2       1 23I        -0.3847
     33 N3         -3.3660   -4.2990   31.3720 N.am      1 23I        -0.2807
     34 C36        -4.0990   -7.6970   30.9680 C.3       1 23I        -0.0626
     35 C37        -5.4170   -2.2070   32.2960 C.3       1 23I        -0.0052
     36 C38        -6.6970   -1.5010   32.7630 C.3       1 23I         0.0483
     37 C39        -6.5910    0.0110   32.4080 C.3       1 23I        -0.0452
     38 O31        -4.0250   -3.1200   33.9830 O.3       1 23I        -0.3894
     39 O32        -7.9810   -2.5270   30.9470 O.2       1 23I        -0.3966
     40 N4         -9.0680   -2.1900   32.8910 N.am      1 23I        -0.2652
     41 C41       -10.3650   -2.7250   32.4070 C.3       1 23I         0.1330
     42 C42       -11.3110   -3.0130   33.6380 C.3       1 23I        -0.0063
     43 C43       -12.6410   -3.6610   33.1960 C.3       1 23I        -0.0584
     44 C44       -11.6950   -1.7670   34.4770 C.3       1 23I        -0.0584
     45 C45       -10.8960   -1.6930   31.3340 C.2       1 23I         0.2021
     46 N5        -11.3940   -2.2260   30.2100 N.am      1 23I        -0.2825
     47 C51       -11.9160   -1.4450   29.0840 C.3       1 23I         0.0365
     48 C53       -13.3220   -1.9630   28.7960 C.3       1 23I        -0.0423
     49 C52       -10.9870   -1.6680   27.8890 C.3       1 23I        -0.0423
     50 H1          5.3013   -6.1078   32.0682 H         1 23I         0.0557
     51 H2          6.8384   -4.7624   33.5001 H         1 23I         0.0599
     52 H3          5.8962   -3.2133   35.2220 H         1 23I         0.0559
     53 H4          3.4191   -3.0078   35.5085 H         1 23I         0.0599
     54 H5          1.8753   -4.3492   34.0743 H         1 23I         0.0557
     55 H6          3.5408   -1.0705   25.9894 H         1 23I         0.0487
     56 H7          2.1947   -1.5394   24.8964 H         1 23I         0.0487
     57 H8          2.6715   -2.6208   26.2492 H         1 23I         0.0487
     58 H9          1.6629   -3.2303   28.0917 H         1 23I         0.0566
     59 H10        -5.4005   -4.8117   31.4221 H         1 23I         0.0581
     60 H11        -5.9254   -3.8339   33.6345 H         1 23I         0.0618
     61 H12        -5.2151   -6.4797   33.0856 H         1 23I         0.0291
     62 H13        -3.7575   -5.7291   33.8196 H         1 23I         0.0291
     63 H14        -2.4990   -6.4439   31.6781 H         1 23I         0.0296
     64 H15        -2.1678   -8.7820   32.4645 H         1 23I         0.0232
     65 H16        -3.6385   -8.6429   33.4864 H         1 23I         0.0232
     66 H17        -2.2022   -7.6222   33.8357 H         1 23I         0.0232
     67 H18         3.2158   -6.6743   31.3175 H         1 23I         0.0716
     68 H19         1.1455   -7.8267   32.0725 H         1 23I         0.0274
     69 H20         1.1073   -6.7981   33.5445 H         1 23I         0.0274
     70 H21         2.4517   -7.9636   33.2978 H         1 23I         0.0274
     71 H22         0.8489   -4.9519   31.9048 H         1 23I         0.1875
     72 H23        -2.5414   -2.1681   28.1444 H         1 23I         0.0566
     73 H24        -1.0415   -5.2072   30.7611 H         1 23I         0.0576
     74 H25        -2.2011   -1.0749   26.5002 H         1 23I         0.0517
     75 H26        -0.9983   -0.0916   25.5985 H         1 23I         0.0517
     76 H27        -1.2670    0.2024   27.3501 H         1 23I         0.0517
     77 H28        -2.4958   -4.3459   31.8624 H         1 23I         0.1849
     78 H29        -4.5036   -6.9407   30.2793 H         1 23I         0.0232
     79 H30        -4.9247   -8.2920   31.3853 H         1 23I         0.0232
     80 H31        -3.4097   -8.3582   30.4225 H         1 23I         0.0232
     81 H32        -5.5463   -2.4794   31.2382 H         1 23I         0.0318
     82 H33        -4.5829   -1.4964   32.3924 H         1 23I         0.0318
     83 H34        -6.7774   -1.6052   33.8551 H         1 23I         0.0536
     84 H35        -7.5032    0.5298   32.7377 H         1 23I         0.0257
     85 H36        -6.4772    0.1251   31.3199 H         1 23I         0.0257
     86 H37        -5.7177    0.4465   32.9157 H         1 23I         0.0257
     87 H38        -4.3500   -2.4473   34.5698 H         1 23I         0.2099
     88 H39        -9.0061   -1.8617   33.8336 H         1 23I         0.1883
     89 H40       -10.1942   -3.6842   31.8964 H         1 23I         0.0802
     90 H41       -10.7776   -3.7151   34.2957 H         1 23I         0.0343
     91 H42       -13.2703   -3.8454   34.0792 H         1 23I         0.0234
     92 H43       -12.4334   -4.6144   32.6882 H         1 23I         0.0234
     93 H44       -13.1668   -2.9848   32.5059 H         1 23I         0.0234
     94 H45       -10.7810   -1.2611   34.8216 H         1 23I         0.0234
     95 H46       -12.2909   -2.0801   35.3469 H         1 23I         0.0234
     96 H47       -12.2854   -1.0757   33.8577 H         1 23I         0.0234
     97 H48       -11.4108   -3.2230   30.1340 H         1 23I         0.1854
     98 H49       -11.9523   -0.3747   29.3353 H         1 23I         0.0550
     99 H50       -13.7539   -1.4024   27.9539 H         1 23I         0.0252
    100 H51       -13.9521   -1.8286   29.6876 H         1 23I         0.0252
    101 H52       -13.2736   -3.0314   28.5388 H         1 23I         0.0252
    102 H53       -11.3545   -1.0927   27.0265 H         1 23I         0.0252
    103 H54       -10.9673   -2.7380   27.6345 H         1 23I         0.0252
    104 H55        -9.9713   -1.3336   28.1468 H         1 23I         0.0252
@<TRIPOS>BOND
     1   45    1 2  
     2    2    3 ar 
     3    7    2 ar 
     4    3    4 ar 
     5    5    4 ar 
     6    6    5 ar 
     7    7    6 ar 
     8   19    7 1  
     9   29    8 1  
    10    9   21 am 
    11    9   22 2  
    12   23    9 1  
    13   10   12 1  
    14   10   32 2  
    15   33   10 am 
    16   23   11 ar 
    17   24   11 ar 
    18   12   25 ar 
    19   12   26 ar 
    20   13   36 1  
    21   13   39 2  
    22   40   13 am 
    23   15   14 1  
    24   14   16 1  
    25   14   33 1  
    26   35   15 1  
    27   15   38 1  
    28   16   17 1  
    29   17   18 1  
    30   17   34 1  
    31   19   20 1  
    32   21   19 1  
    33   26   23 ar 
    34   25   24 ar 
    35   24   27 1  
    36   27   28 1  
    37   27   29 am 
    38   29   30 2  
    39   29   31 2  
    40   36   35 1  
    41   36   37 1  
    42   41   40 1  
    43   41   42 1  
    44   41   45 1  
    45   42   43 1  
    46   42   44 1  
    47   45   46 am 
    48   46   47 1  
    49   47   48 1  
    50   47   49 1  
    51    2   50 1  
    52    3   51 1  
    53    4   52 1  
    54    5   53 1  
    55    6   54 1  
    56    8   55 1  
    57    8   56 1  
    58    8   57 1  
    59   11   58 1  
    60   14   59 1  
    61   15   60 1  
    62   16   61 1  
    63   16   62 1  
    64   17   63 1  
    65   18   64 1  
    66   18   65 1  
    67   18   66 1  
    68   19   67 1  
    69   20   68 1  
    70   20   69 1  
    71   20   70 1  
    72   21   71 1  
    73   25   72 1  
    74   26   73 1  
    75   28   74 1  
    76   28   75 1  
    77   28   76 1  
    78   33   77 1  
    79   34   78 1  
    80   34   79 1  
    81   34   80 1  
    82   35   81 1  
    83   35   82 1  
    84   36   83 1  
    85   37   84 1  
    86   37   85 1  
    87   37   86 1  
    88   38   87 1  
    89   40   88 1  
    90   41   89 1  
    91   42   90 1  
    92   43   91 1  
    93   43   92 1  
    94   43   93 1  
    95   44   94 1  
    96   44   95 1  
    97   44   96 1  
    98   46   97 1  
    99   47   98 1  
   100   48   99 1  
   101   48  100 1  
   102   48  101 1  
   103   49  102 1  
   104   49  103 1  
   105   49  104 1  
@<TRIPOS>SUBSTRUCTURE
     1 23I         1

