### 
### Created by X-TOOL on Mon Sep 10 21:12:57 2018
### 

@<TRIPOS>MOLECULE
2p4s_ligand
   36    38     1     0     0
SMALL
GAST_HUCK


@<TRIPOS>ATOM
      1 O5'        40.8270    5.0450  106.3490 O.3       1 DIH        -0.3944
      2 C5'        39.8860    4.0540  106.8070 C.3       1 DIH         0.0544
      3 C4'        38.5160    4.5440  106.4060 C.3       1 DIH         0.0531
      4 C6'        38.4480    4.8610  104.8950 C.3       1 DIH        -0.0234
      5 C3'        37.4800    3.4770  106.6860 C.3       1 DIH         0.1046
      6 O3'        36.2630    4.1260  107.0600 O.3       1 DIH        -0.3860
      7 C2'        37.2610    2.8240  105.3340 C.3       1 DIH        -0.0040
      8 N1'        37.3440    3.9900  104.3990 N.4       1 DIH         0.2441
      9 C10        37.3790    3.5290  103.0030 C.3       1 DIH        -0.0144
     10 C9         38.6840    3.0000  102.4480 C.2       1 DIH         0.0001
     11 C8         39.6920    3.7860  101.8280 C.2       1 DIH         0.0220
     12 N7         40.6970    2.9590  101.4280 N.pl3     1 DIH        -0.2895
     13 C5         40.3910    1.6770  101.7580 C.2       1 DIH         0.1348
     14 C6         41.0470    0.3570  101.5360 C.2       1 DIH         0.2413
     15 O6         42.1990    0.2510  100.9440 O.2       1 DIH        -0.4013
     16 N1         40.3700   -0.7130  102.0030 N.am      1 DIH        -0.2067
     17 C2         39.1630   -0.6330  102.6410 C.2       1 DIH         0.1146
     18 N3         38.5270    0.5340  102.8280 N.2       1 DIH        -0.3199
     19 C4         39.1340    1.6860  102.3850 C.2       1 DIH         0.0180
     20 H1         40.6313    5.8793  106.7591 H         1 DIH         0.2094
     21 H2         39.9468    3.9493  107.9003 H         1 DIH         0.0562
     22 H3         40.0958    3.0836  106.3334 H         1 DIH         0.0562
     23 H4         38.2798    5.4511  106.9816 H         1 DIH         0.0402
     24 H5         39.3974    4.6111  104.3989 H         1 DIH         0.0819
     25 H6         38.2150    5.9229  104.7273 H         1 DIH         0.0819
     26 H7         37.8104    2.7603  107.4523 H         1 DIH         0.0652
     27 H8         36.4114    4.6507  107.8379 H         1 DIH         0.2100
     28 H9         36.2746    2.3400  105.2805 H         1 DIH         0.0840
     29 H10        38.0451    2.0834  105.1177 H         1 DIH         0.0840
     30 H11        36.4950    4.5258  104.4892 H         1 DIH         0.2042
     31 H12        37.0796    4.3795  102.3729 H         1 DIH         0.0898
     32 H13        36.6361    2.7233  102.9087 H         1 DIH         0.0898
     33 H14        39.6654    4.8665  101.6952 H         1 DIH         0.0779
     34 H15        41.5577    3.2594  100.9485 H         1 DIH         0.2273
     35 H16        40.7751   -1.6183  101.8749 H         1 DIH         0.2519
     36 H17        38.7019   -1.5479  103.0101 H         1 DIH         0.1426
@<TRIPOS>BOND
     1    1    2 1  
     2    2    3 1  
     3    3    4 1  
     4    3    5 1  
     5    4    8 1  
     6    5    6 1  
     7    5    7 1  
     8    7    8 1  
     9    8    9 1  
    10    9   10 1  
    11   10   11 2  
    12   10   19 1  
    13   11   12 1  
    14   12   13 1  
    15   13   14 1  
    16   13   19 2  
    17   14   15 2  
    18   14   16 am 
    19   16   17 1  
    20   17   18 2  
    21   18   19 1  
    22    1   20 1  
    23    2   21 1  
    24    2   22 1  
    25    3   23 1  
    26    4   24 1  
    27    4   25 1  
    28    5   26 1  
    29    6   27 1  
    30    7   28 1  
    31    7   29 1  
    32    8   30 1  
    33    9   31 1  
    34    9   32 1  
    35   11   33 1  
    36   12   34 1  
    37   16   35 1  
    38   17   36 1  
@<TRIPOS>SUBSTRUCTURE
     1 DIH         1

