### 
### Created by X-TOOL on Mon Sep 10 21:12:59 2018
### 

@<TRIPOS>MOLECULE
2p4y_ligand
   61    65     1     0     0
SMALL
GAST_HUCK


@<TRIPOS>ATOM
      1 C1         15.7060    5.0230   15.8040 C.ar      1 C03        -0.0494
      2 C2         14.5690    4.8940   15.0080 C.ar      1 C03        -0.0824
      3 C3         14.7540    4.8640   13.4680 C.ar      1 C03        -0.0320
      4 C4         15.9600    4.9680   12.8790 C.ar      1 C03         0.0592
      5 C5         17.1240    5.1010   13.7060 C.ar      1 C03        -0.0175
      6 C6         17.0010    5.1260   15.1730 C.ar      1 C03         0.0845
      7 C10        13.6520    4.7270   12.5630 C.2       1 C03        -0.0105
      8 C11        14.3400    4.7660   11.3250 C.2       1 C03         0.0574
      9 N12        15.7630    4.9160   11.4830 N.pl3     1 C03        -0.2466
     10 C13        12.1760    4.5870   12.8970 C.2       1 C03         0.0368
     11 C14        13.6790    4.6670    9.9520 C.3       1 C03        -0.0027
     12 C18        16.8450    5.0030   10.4580 C.3       1 C03         0.0846
     13 O19        18.1770    5.2480   15.8840 O.3       1 C03        -0.2340
     14 C20        18.8370    4.1520   16.4650 C.3       1 C03         0.5447
     15 F21        19.9500    4.6200   16.9880 F         1 C03        -0.1402
     16 F22        19.1280    3.2360   15.5240 F         1 C03        -0.1402
     17 F23        18.0820    3.6260   17.4220 F         1 C03        -0.1402
     18 C24        17.1860    6.4530    9.9960 C.ar      1 C03        -0.0091
     19 C27        16.2810    7.5630   10.3110 C.ar      1 C03        -0.0287
     20 C28        16.5450    8.9190    9.9100 C.ar      1 C03         0.0876
     21 C29        17.7510    9.1930    9.1630 C.ar      1 C03        -0.0391
     22 C30        18.6650    8.1390    8.8330 C.ar      1 C03        -0.0631
     23 C31        18.3910    6.7900    9.2440 C.ar      1 C03         0.0319
     24 CL1        19.5630    5.6330    8.7920 Cl        1 C03        -0.0872
     25 O36        15.5840    9.9040   10.3050 O.3       1 C03        -0.3024
     26 C37        15.1050   10.9540    9.4340 C.3       1 C03         0.1302
     27 C38        14.1280   11.7970   10.2660 C.3       1 C03        -0.0222
     28 C42        14.2750   10.4740    8.2450 C.2       1 C03         0.0683
     29 O44        14.1880   11.0690    7.2330 O.co2     1 C03        -0.5660
     30 O45        13.6520    9.3050    8.4960 O.co2     1 C03        -0.5660
     31 N46        11.0630    5.2530   12.4460 N.2       1 C03        -0.1679
     32 O47         9.9160    4.8200   13.0360 O.3       1 C03        -0.1876
     33 C48        10.2160    3.8320   13.9190 C.ar      1 C03         0.1433
     34 C49        11.6320    3.6550   13.8470 C.ar      1 C03         0.0134
     35 C50         9.3930    3.0830   14.7690 C.ar      1 C03         0.0032
     36 C51         9.9840    2.0600   15.6400 C.ar      1 C03         0.0851
     37 C52        11.3960    1.8370   15.6000 C.ar      1 C03        -0.0395
     38 C53        12.2150    2.6010   14.7370 C.ar      1 C03        -0.0670
     39 O57         9.1060    1.3610   16.4600 O.3       1 C03        -0.3234
     40 C58         8.3730    2.0540   17.4470 C.3       1 C03         0.0592
     41 H1         15.6192    5.0457   16.8843 H         1 C03         0.0459
     42 H2         13.5833    4.8168   15.4525 H         1 C03         0.0504
     43 H3         18.1026    5.1838   13.2472 H         1 C03         0.0444
     44 H4         12.5914    4.5579   10.0757 H         1 C03         0.0449
     45 H5         14.0766    3.7927    9.4158 H         1 C03         0.0449
     46 H6         13.8927    5.5791    9.3755 H         1 C03         0.0449
     47 H7         16.5290    4.4271    9.5757 H         1 C03         0.0764
     48 H8         17.7558    4.5547   10.8815 H         1 C03         0.0764
     49 H9         15.3757    7.3530   10.8691 H         1 C03         0.0480
     50 H10        17.9673   10.2075    8.8484 H         1 C03         0.0487
     51 H11        19.5655    8.3606    8.2717 H         1 C03         0.0578
     52 H12        15.9564   11.5529    9.0784 H         1 C03         0.0818
     53 H13        13.7313   12.6155    9.6474 H         1 C03         0.0276
     54 H14        14.6546   12.2168   11.1357 H         1 C03         0.0276
     55 H15        13.2981   11.1627   10.6109 H         1 C03         0.0276
     56 H16         8.3233    3.2580   14.7837 H         1 C03         0.0476
     57 H17        11.8405    1.0786   16.2343 H         1 C03         0.0490
     58 H18        13.2837    2.4206   14.7193 H         1 C03         0.0582
     59 H19         7.7351    1.3451   17.9952 H         1 C03         0.0578
     60 H20         7.7438    2.8183   16.9674 H         1 C03         0.0578
     61 H21         9.0687    2.5387   18.1477 H         1 C03         0.0578
@<TRIPOS>BOND
     1    1    2 ar 
     2    1    6 ar 
     3    2    3 ar 
     4    3    4 ar 
     5    3    7 1  
     6    4    5 ar 
     7    4    9 1  
     8    5    6 ar 
     9    6   13 1  
    10    7    8 2  
    11    7   10 1  
    12    8    9 1  
    13    8   11 1  
    14    9   12 1  
    15   10   31 2  
    16   10   34 1  
    17   12   18 1  
    18   13   14 1  
    19   14   15 1  
    20   14   16 1  
    21   14   17 1  
    22   18   19 ar 
    23   18   23 ar 
    24   19   20 ar 
    25   20   21 ar 
    26   20   25 1  
    27   21   22 ar 
    28   22   23 ar 
    29   23   24 1  
    30   25   26 1  
    31   26   27 1  
    32   26   28 1  
    33   28   29 ar 
    34   28   30 ar 
    35   31   32 1  
    36   32   33 1  
    37   33   34 ar 
    38   33   35 ar 
    39   34   38 ar 
    40   35   36 ar 
    41   36   37 ar 
    42   36   39 1  
    43   37   38 ar 
    44   39   40 1  
    45    1   41 1  
    46    2   42 1  
    47    5   43 1  
    48   11   44 1  
    49   11   45 1  
    50   11   46 1  
    51   12   47 1  
    52   12   48 1  
    53   19   49 1  
    54   21   50 1  
    55   22   51 1  
    56   26   52 1  
    57   27   53 1  
    58   27   54 1  
    59   27   55 1  
    60   35   56 1  
    61   37   57 1  
    62   38   58 1  
    63   40   59 1  
    64   40   60 1  
    65   40   61 1  
@<TRIPOS>SUBSTRUCTURE
     1 C03         1

