### 
### Created by X-TOOL on Mon Sep 10 21:12:58 2018
### 

@<TRIPOS>MOLECULE
2p59_ligand
  107   111     1     0     0
SMALL
GAST_HUCK


@<TRIPOS>ATOM
      1 C1         84.4040   76.1350   48.9260 C.3       1 GG4        -0.0134
      2 C2         83.6740   76.0340   50.3010 C.3       1 GG4         0.0509
      3 C3         76.1180   75.6710   49.7570 C.3       1 GG4        -0.0526
      4 C4         90.3060   68.6870   49.8650 C.3       1 GG4         0.0788
      5 C5         76.7550   75.7760   51.1550 C.3       1 GG4        -0.0460
      6 C6         79.1460   75.7660   49.9960 C.3       1 GG4        -0.0460
      7 O1         78.5130   80.5220   58.6130 O.2       1 GG4        -0.4663
      8 C7         91.2530   69.7900   50.5010 C.2       1 GG4        -0.0567
      9 C8         78.8800   75.7390   52.5170 C.3       1 GG4         0.1359
     10 C9         82.3810   74.3900   52.5990 C.3       1 GG4         0.1360
     11 C10        84.5070   73.6370   49.3030 C.3       1 GG4         0.1342
     12 C11        85.9630   70.0460   50.0160 C.3       1 GG4         0.0850
     13 C12        78.4450   75.7150   48.6310 C.3       1 GG4        -0.0526
     14 C13        80.3980   75.9340   52.5000 C.2       1 GG4         0.2042
     15 O2         87.6160   70.8710   48.2210 O.3       1 GG4        -0.3691
     16 O3         78.5940   81.0000   56.3020 O.2       1 GG4        -0.4663
     17 C14        83.1230   73.5110   51.5860 C.2       1 GG4         0.2072
     18 N1         89.1830   69.2100   49.0520 N.am      1 GG4        -0.2745
     19 C15        85.5330   72.6260   49.8790 C.2       1 GG4         0.2023
     20 C16        77.0630   75.0140   48.7230 C.3       1 GG4        -0.0530
     21 O6         80.9210   77.0130   52.8220 O.2       1 GG4        -0.3944
     22 C17        78.2450   76.1710   51.1770 C.3       1 GG4        -0.0006
     23 C18        82.7000   74.2760   54.1770 C.3       1 GG4         0.0026
     24 C19        85.1920   74.8530   48.6620 C.3       1 GG4        -0.0073
     25 C20        85.1510   68.8490   50.5370 C.3       1 GG4        -0.0255
     26 C21        82.4240   75.6350   54.9300 C.3       1 GG4        -0.0558
     27 N4         81.0500   74.8100   52.1050 N.am      1 GG4        -0.2632
     28 O7         83.2280   72.2820   51.7470 O.2       1 GG4        -0.3942
     29 O8         86.6260   73.0130   50.3610 O.2       1 GG4        -0.3945
     30 N2         77.9760   76.3970   57.3610 N.pl3     1 GG4        -0.0489
     31 C22        84.2580   73.9930   54.3440 C.3       1 GG4        -0.0558
     32 C23        81.7710   73.1060   54.8210 C.3       1 GG4        -0.0558
     33 C24        84.1000   69.2030   51.5750 C.3       1 GG4        -0.0536
     34 C25        85.0160   77.5350   48.6840 C.3       1 GG4        -0.0479
     35 C26        86.8650   69.6570   48.7370 C.3       1 GG4         0.1662
     36 C27        84.6120   76.4140   51.4640 C.3       1 GG4        -0.0292
     37 C28        90.4530   69.4040   51.2790 C.2       1 GG4        -0.0567
     38 N3         78.2160   76.2740   53.7120 N.am      1 GG4        -0.2340
     39 O10        87.6070   67.6810   49.7150 O.2       1 GG4        -0.3941
     40 N5         83.6700   74.3810   50.3910 N.am      1 GG4        -0.2465
     41 N6         85.1090   71.2710   49.8070 N.am      1 GG4        -0.2772
     42 C32        87.9180   68.7560   49.2130 C.2       1 GG4         0.2080
     43 C33        84.7820   69.1510   52.9260 C.3       1 GG4        -0.0652
     44 O12        78.7660   74.5420   55.1950 O.2       1 GG4        -0.2778
     45 C41        78.4770   75.7330   54.9740 C.2       1 GG4         0.3908
     46 C29        85.7120   77.4720   51.1440 C.3       1 GG4        -0.0509
     47 C30        85.3360   78.3720   49.9480 C.3       1 GG4        -0.0527
     48 C31        78.0050   77.6380   58.0400 C.2       1 GG4         0.2762
     49 C36        78.3800   76.6720   56.0200 C.2       1 GG4         0.3624
     50 C34        78.6920   78.0790   55.7830 C.2       1 GG4         0.2105
     51 C35        78.4380   78.6800   57.0880 C.2       1 GG4         0.3123
     52 N7         78.5280   80.1810   57.3320 N.2       1 GG4        -0.1433
     53 H1         83.6012   76.0919   48.1752 H         1 GG4         0.0325
     54 H2         82.6959   76.5357   50.3405 H         1 GG4         0.0563
     55 H3         75.8629   76.6827   49.4087 H         1 GG4         0.0265
     56 H4         75.2018   75.0668   49.8313 H         1 GG4         0.0265
     57 H5         90.5937   67.6539   49.6204 H         1 GG4         0.0645
     58 H6         76.6566   74.7970   51.6468 H         1 GG4         0.0270
     59 H7         76.1957   76.5313   51.7265 H         1 GG4         0.0270
     60 H8         79.9687   76.4931   49.9299 H         1 GG4         0.0270
     61 H9         79.5555   74.7670   50.2066 H         1 GG4         0.0270
     62 H10        92.0921   70.4630   50.3311 H         1 GG4         0.0596
     63 H11        78.7256   74.6514   52.5745 H         1 GG4         0.0803
     64 H12        82.9212   75.3323   52.4251 H         1 GG4         0.0805
     65 H13        83.8566   73.1121   48.5878 H         1 GG4         0.0802
     66 H14        86.6715   70.3069   50.8160 H         1 GG4         0.0607
     67 H15        79.0799   75.1605   47.9243 H         1 GG4         0.0265
     68 H16        78.3003   76.7424   48.2656 H         1 GG4         0.0265
     69 H17        86.9938   71.5421   47.9659 H         1 GG4         0.2134
     70 H18        89.3642   69.9160   48.3673 H         1 GG4         0.1861
     71 H19        76.5830   75.0550   47.7341 H         1 GG4         0.0265
     72 H20        77.2213   73.9641   49.0106 H         1 GG4         0.0265
     73 H21        78.2470   77.2709   51.1674 H         1 GG4         0.0348
     74 H22        86.2021   74.9595   49.0843 H         1 GG4         0.0316
     75 H23        85.2635   74.6932   47.5760 H         1 GG4         0.0316
     76 H24        85.8505   68.1299   50.9882 H         1 GG4         0.0290
     77 H25        84.6438   68.3796   49.6812 H         1 GG4         0.0290
     78 H26        82.6531   75.5149   55.9991 H         1 GG4         0.0237
     79 H27        81.3662   75.9121   54.8106 H         1 GG4         0.0237
     80 H28        83.0603   76.4254   54.5052 H         1 GG4         0.0237
     81 H29        80.5986   74.2239   51.4321 H         1 GG4         0.1884
     82 H30        77.7162   75.4813   57.7545 H         1 GG4         0.3132
     83 H31        84.5161   73.0516   53.8368 H         1 GG4         0.0237
     84 H32        84.5036   73.9127   55.4132 H         1 GG4         0.0237
     85 H33        84.8307   74.8191   53.8973 H         1 GG4         0.0237
     86 H34        80.7103   73.3578   54.6745 H         1 GG4         0.0237
     87 H35        81.9823   73.0207   55.8971 H         1 GG4         0.0237
     88 H36        81.9922   72.1485   54.3268 H         1 GG4         0.0237
     89 H37        83.2741   68.4773   51.5400 H         1 GG4         0.0263
     90 H38        83.7084   70.2137   51.3875 H         1 GG4         0.0263
     91 H39        84.3055   78.1102   48.0722 H         1 GG4         0.0269
     92 H40        85.9541   77.3988   48.1259 H         1 GG4         0.0269
     93 H41        86.2507   69.1986   47.9480 H         1 GG4         0.0861
     94 H42        85.1167   75.4968   51.8015 H         1 GG4         0.0288
     95 H43        83.9908   76.8121   52.2798 H         1 GG4         0.0288
     96 H44        90.0688   69.4850   52.2947 H         1 GG4         0.0596
     97 H45        77.5708   77.0327   53.6222 H         1 GG4         0.1902
     98 H46        84.1442   71.1140   49.5958 H         1 GG4         0.1857
     99 H47        84.0558   69.4018   53.7132 H         1 GG4         0.0230
    100 H48        85.6099   69.8749   52.9469 H         1 GG4         0.0230
    101 H49        85.1756   68.1386   53.0993 H         1 GG4         0.0230
    102 H50        86.6493   76.9464   50.9090 H         1 GG4         0.0266
    103 H51        85.8597   78.1066   52.0303 H         1 GG4         0.0266
    104 H52        84.4513   78.9689   50.2145 H         1 GG4         0.0265
    105 H53        86.1788   79.0437   49.7277 H         1 GG4         0.0265
    106 H54        77.7511   77.7974   59.0869 H         1 GG4         0.2916
    107 H55        79.0289   78.5581   54.8649 H         1 GG4         0.1534
@<TRIPOS>BOND
     1    2    1 1  
     2   24    1 1  
     3    1   34 1  
     4    2   36 1  
     5   40    2 1  
     6    5    3 1  
     7    3   20 1  
     8    4    8 1  
     9   18    4 1  
    10    4   37 1  
    11   22    5 1  
    12    6   13 1  
    13   22    6 1  
    14   52    7 2  
    15   37    8 2  
    16    9   14 1  
    17    9   22 1  
    18   38    9 1  
    19   10   17 1  
    20   10   23 1  
    21   27   10 1  
    22   11   19 1  
    23   11   24 1  
    24   40   11 1  
    25   12   25 1  
    26   12   35 1  
    27   41   12 1  
    28   13   20 1  
    29   14   21 2  
    30   14   27 am 
    31   35   15 1  
    32   52   16 2  
    33   17   28 2  
    34   17   40 am 
    35   42   18 am 
    36   19   29 2  
    37   19   41 am 
    38   23   26 1  
    39   23   31 1  
    40   23   32 1  
    41   25   33 1  
    42   48   30 1  
    43   49   30 1  
    44   33   43 1  
    45   34   47 1  
    46   35   42 1  
    47   36   46 1  
    48   45   38 am 
    49   42   39 2  
    50   45   44 2  
    51   49   45 1  
    52   46   47 1  
    53   51   48 2  
    54   50   49 2  
    55   51   50 1  
    56   51   52 1  
    57    1   53 1  
    58    2   54 1  
    59    3   55 1  
    60    3   56 1  
    61    4   57 1  
    62    5   58 1  
    63    5   59 1  
    64    6   60 1  
    65    6   61 1  
    66    8   62 1  
    67    9   63 1  
    68   10   64 1  
    69   11   65 1  
    70   12   66 1  
    71   13   67 1  
    72   13   68 1  
    73   15   69 1  
    74   18   70 1  
    75   20   71 1  
    76   20   72 1  
    77   22   73 1  
    78   24   74 1  
    79   24   75 1  
    80   25   76 1  
    81   25   77 1  
    82   26   78 1  
    83   26   79 1  
    84   26   80 1  
    85   27   81 1  
    86   30   82 1  
    87   31   83 1  
    88   31   84 1  
    89   31   85 1  
    90   32   86 1  
    91   32   87 1  
    92   32   88 1  
    93   33   89 1  
    94   33   90 1  
    95   34   91 1  
    96   34   92 1  
    97   35   93 1  
    98   36   94 1  
    99   36   95 1  
   100   37   96 1  
   101   38   97 1  
   102   41   98 1  
   103   43   99 1  
   104   43  100 1  
   105   43  101 1  
   106   46  102 1  
   107   46  103 1  
   108   47  104 1  
   109   47  105 1  
   110   48  106 1  
   111   50  107 1  
@<TRIPOS>SUBSTRUCTURE
     1 GG4         1

