### 
### Created by X-TOOL on Mon Sep 10 21:12:58 2018
### 

@<TRIPOS>MOLECULE
2p7a_ligand
   16    16     1     0     0
SMALL
GAST_HUCK


@<TRIPOS>ATOM
      1 C1         49.2170  -26.6050  -94.6520 C.ar      1 43M        -0.0632
      2 C2         48.5980  -27.3830  -95.6670 C.ar      1 43M         0.0291
      3 C3         47.4150  -26.9030  -96.3410 C.ar      1 43M        -0.0409
      4 C7         46.7120  -27.6820  -97.4270 C.3       1 43M        -0.0330
      5 C4         46.8900  -25.6310  -95.9630 C.ar      1 43M        -0.0319
      6 C5         47.5210  -24.8620  -94.9470 C.ar      1 43M         0.0814
      7 C6         48.6810  -25.3420  -94.2880 C.ar      1 43M        -0.0395
      8 CL1        49.3230  -28.9030  -96.0450 Cl        1 43M        -0.0873
      9 O1         46.9740  -23.6490  -94.6330 O.3       1 43M        -0.3346
     10 H1         50.1038  -26.9781  -94.1526 H         1 43M         0.0578
     11 H2         45.8416  -27.1112  -97.7828 H         1 43M         0.0391
     12 H3         46.3767  -28.6497  -97.0257 H         1 43M         0.0391
     13 H4         47.4055  -27.8524  -98.2636 H         1 43M         0.0391
     14 H5         46.0030  -25.2479  -96.4544 H         1 43M         0.0479
     15 H6         49.1543  -24.7498  -93.5132 H         1 43M         0.0487
     16 H7         46.7222  -23.6440  -93.7170 H         1 43M         0.2482
@<TRIPOS>BOND
     1    1    2 ar 
     2    1    7 ar 
     3    2    3 ar 
     4    2    8 1  
     5    3    4 1  
     6    3    5 ar 
     7    5    6 ar 
     8    6    7 ar 
     9    6    9 1  
    10    1   10 1  
    11    4   11 1  
    12    4   12 1  
    13    4   13 1  
    14    5   14 1  
    15    7   15 1  
    16    9   16 1  
@<TRIPOS>SUBSTRUCTURE
     1 43M         1

