### 
### Created by X-TOOL on Mon Sep 10 21:12:58 2018
### 

@<TRIPOS>MOLECULE
2p7g_ligand
   33    34     1     0     0
SMALL
GAST_HUCK


@<TRIPOS>ATOM
      1 O2         48.5790  -29.6480 -101.2110 O.3       1 2OH        -0.3144
      2 C13        48.5640  -29.4780  -99.8580 C.ar      1 2OH         0.1160
      3 C12        47.5250  -30.0870  -99.1290 C.ar      1 2OH        -0.0082
      4 C11        47.4680  -29.9360  -97.7110 C.ar      1 2OH        -0.0588
      5 C14        49.5590  -28.7140  -99.1980 C.ar      1 2OH        -0.0082
      6 C15        49.5080  -28.5580  -97.7840 C.ar      1 2OH        -0.0588
      7 C4         48.4580  -29.1650  -96.9920 C.ar      1 2OH        -0.0886
      8 C2         48.4200  -28.9690  -95.4200 C.3       1 2OH        -0.0588
      9 C3         49.7240  -29.6120  -94.8290 C.3       1 2OH        -0.1042
     10 C5         47.2320  -29.7120  -94.7540 C.3       1 2OH        -0.1042
     11 C1         48.2150  -27.4370  -95.0660 C.ar      1 2OH        -0.0886
     12 C10        49.1120  -26.6650  -94.2480 C.ar      1 2OH        -0.0588
     13 C9         48.8460  -25.2860  -93.9710 C.ar      1 2OH        -0.0082
     14 C6         47.0510  -26.7480  -95.5860 C.ar      1 2OH        -0.0588
     15 C7         46.7960  -25.3860  -95.3140 C.ar      1 2OH        -0.0082
     16 C8         47.6860  -24.6620  -94.5100 C.ar      1 2OH         0.1160
     17 O1         47.4540  -23.3420  -94.2300 O.3       1 2OH        -0.3144
     18 H1         49.3256  -29.1896 -101.5784 H         1 2OH         0.2593
     19 H2         46.7696  -30.6696  -99.6438 H         1 2OH         0.0623
     20 H3         46.6639  -30.4103  -97.1600 H         1 2OH         0.0758
     21 H4         50.3559  -28.2502  -99.7680 H         1 2OH         0.0623
     22 H5         50.2729  -27.9712  -97.2883 H         1 2OH         0.0758
     23 H6         49.7785  -30.6697  -95.1263 H         1 2OH         0.0064
     24 H7         49.7034  -29.5402  -93.7316 H         1 2OH         0.0064
     25 H8         50.6041  -29.0769  -95.2150 H         1 2OH         0.0064
     26 H9         46.2843  -29.3012  -95.1323 H         1 2OH         0.0064
     27 H10        47.2805  -29.5776  -93.6633 H         1 2OH         0.0064
     28 H11        47.2888  -30.7839  -94.9943 H         1 2OH         0.0064
     29 H12        49.9992  -27.1328  -93.8368 H         1 2OH         0.0758
     30 H13        49.5285  -24.7167  -93.3504 H         1 2OH         0.0623
     31 H14        46.3515  -27.2974  -96.2055 H         1 2OH         0.0758
     32 H15        45.9166  -24.9034  -95.7250 H         1 2OH         0.0623
     33 H16        48.1509  -23.0096  -93.6765 H         1 2OH         0.2593
@<TRIPOS>BOND
     1    1    2 1  
     2    2    3 ar 
     3    2    5 ar 
     4    3    4 ar 
     5    4    7 ar 
     6    5    6 ar 
     7    6    7 ar 
     8    7    8 1  
     9    8    9 1  
    10    8   10 1  
    11    8   11 1  
    12   11   12 ar 
    13   11   14 ar 
    14   12   13 ar 
    15   13   16 ar 
    16   14   15 ar 
    17   15   16 ar 
    18   16   17 1  
    19    1   18 1  
    20    3   19 1  
    21    4   20 1  
    22    5   21 1  
    23    6   22 1  
    24    9   23 1  
    25    9   24 1  
    26    9   25 1  
    27   10   26 1  
    28   10   27 1  
    29   10   28 1  
    30   12   29 1  
    31   13   30 1  
    32   14   31 1  
    33   15   32 1  
    34   17   33 1  
@<TRIPOS>SUBSTRUCTURE
     1 2OH         1

