### 
### Created by X-TOOL on Mon Sep 10 21:12:58 2018
### 

@<TRIPOS>MOLECULE
2p7z_ligand
   59    61     1     0     0
SMALL
GAST_HUCK


@<TRIPOS>ATOM
      1 C10        48.2330  -29.3590  -99.9140 C.3       1 OHT        -0.0549
      2 C9         49.2520  -29.0890  -98.7940 C.3       1 OHT        -0.0213
      3 C8         49.0700  -29.9170  -97.4700 C.2       1 OHT        -0.0310
      4 C11        49.3450  -31.3290  -97.7080 C.ar      1 OHT        -0.0193
      5 C16        48.3500  -32.2940  -97.4170 C.ar      1 OHT        -0.0549
      6 C15        48.6170  -33.6620  -97.6420 C.ar      1 OHT        -0.0622
      7 C14        49.8820  -34.0730  -98.1570 C.ar      1 OHT        -0.0627
      8 C13        50.8800  -33.1210  -98.4480 C.ar      1 OHT        -0.0622
      9 C12        50.6150  -31.7490  -98.2250 C.ar      1 OHT        -0.0549
     10 C7         48.7180  -29.4030  -96.2040 C.2       1 OHT        -0.0248
     11 C1         48.2640  -27.9550  -95.9440 C.ar      1 OHT        -0.0376
     12 C2         49.0150  -27.0930  -95.0740 C.ar      1 OHT        -0.0657
     13 C3         48.5780  -25.7570  -94.8150 C.ar      1 OHT        -0.0340
     14 C4         47.3880  -25.2720  -95.4250 C.ar      1 OHT         0.0872
     15 O4         46.9940  -23.9930  -95.1540 O.3       1 OHT        -0.3333
     16 C5         46.6330  -26.0950  -96.2870 C.ar      1 OHT        -0.0340
     17 C6         47.0660  -27.4280  -96.5420 C.ar      1 OHT        -0.0657
     18 C17        48.7560  -30.2940  -95.0090 C.ar      1 OHT        -0.0376
     19 C18        49.9430  -30.9790  -94.5770 C.ar      1 OHT        -0.0657
     20 C19        49.9380  -31.7390  -93.3700 C.ar      1 OHT        -0.0338
     21 C20        48.7470  -31.8250  -92.5830 C.ar      1 OHT         0.0909
     22 O20        48.7750  -32.5580  -91.4860 O.3       1 OHT        -0.3129
     23 C23        48.5020  -32.0500  -90.1680 C.3       1 OHT         0.1102
     24 C24        48.6480  -33.2450  -89.2000 C.3       1 OHT        -0.0039
     25 N24        49.9920  -33.4070  -88.5720 N.4       1 OHT         0.2328
     26 C25        50.9960  -32.6270  -89.3330 C.3       1 OHT        -0.0433
     27 C26        50.0270  -32.9800  -87.1480 C.3       1 OHT        -0.0433
     28 C21        47.5780  -31.1490  -93.0330 C.ar      1 OHT        -0.0338
     29 C22        47.5760  -30.3890  -94.2270 C.ar      1 OHT        -0.0657
     30 H1         48.4647  -28.7235 -100.7815 H         1 OHT         0.0254
     31 H2         47.2202  -29.1295  -99.5514 H         1 OHT         0.0254
     32 H3         48.2854  -30.4171 -100.2102 H         1 OHT         0.0254
     33 H4         49.1881  -28.0223  -98.5332 H         1 OHT         0.0435
     34 H5         50.2534  -29.3099  -99.1920 H         1 OHT         0.0435
     35 H6         47.3886  -31.9839  -97.0236 H         1 OHT         0.0617
     36 H7         47.8572  -34.4033  -97.4224 H         1 OHT         0.0615
     37 H8         50.0775  -35.1258  -98.3260 H         1 OHT         0.0609
     38 H9         51.8406  -33.4367  -98.8386 H         1 OHT         0.0615
     39 H10        51.3770  -31.0105  -98.4464 H         1 OHT         0.0617
     40 H11        49.9229  -27.4598  -94.6090 H         1 OHT         0.0575
     41 H12        49.1516  -25.1154  -94.1558 H         1 OHT         0.0543
     42 H13        46.8451  -23.8998  -94.2205 H         1 OHT         0.2484
     43 H14        45.7301  -25.7158  -96.7518 H         1 OHT         0.0543
     44 H15        46.4803  -28.0589  -97.2008 H         1 OHT         0.0575
     45 H16        50.8472  -30.9178  -95.1717 H         1 OHT         0.0575
     46 H17        50.8375  -32.2517  -93.0490 H         1 OHT         0.0543
     47 H18        47.4804  -31.6449  -90.1206 H         1 OHT         0.0668
     48 H19        49.2221  -31.2601  -89.9082 H         1 OHT         0.0668
     49 H20        48.4239  -34.1642  -89.7612 H         1 OHT         0.0841
     50 H21        47.9108  -33.1189  -88.3934 H         1 OHT         0.0841
     51 H22        50.2392  -34.3833  -88.6130 H         1 OHT         0.2029
     52 H23        51.9850  -32.7490  -88.8671 H         1 OHT         0.0777
     53 H24        50.7161  -31.5632  -89.3260 H         1 OHT         0.0777
     54 H25        51.0324  -32.9898  -90.3708 H         1 OHT         0.0777
     55 H26        49.2843  -33.5542  -86.5747 H         1 OHT         0.0777
     56 H27        49.7925  -31.9074  -87.0809 H         1 OHT         0.0777
     57 H28        51.0300  -33.1626  -86.7349 H         1 OHT         0.0777
     58 H29        46.6682  -31.2178  -92.4477 H         1 OHT         0.0543
     59 H30        46.6731  -29.8796  -94.5439 H         1 OHT         0.0575
@<TRIPOS>BOND
     1    1    2 1  
     2    2    3 1  
     3    3    4 1  
     4    3   10 2  
     5    4    5 ar 
     6    4    9 ar 
     7    5    6 ar 
     8    6    7 ar 
     9    7    8 ar 
    10    8    9 ar 
    11   10   11 1  
    12   10   18 1  
    13   11   12 ar 
    14   11   17 ar 
    15   12   13 ar 
    16   13   14 ar 
    17   14   15 1  
    18   14   16 ar 
    19   16   17 ar 
    20   18   19 ar 
    21   18   29 ar 
    22   19   20 ar 
    23   20   21 ar 
    24   21   22 1  
    25   21   28 ar 
    26   22   23 1  
    27   23   24 1  
    28   24   25 1  
    29   25   26 1  
    30   25   27 1  
    31   28   29 ar 
    32    1   30 1  
    33    1   31 1  
    34    1   32 1  
    35    2   33 1  
    36    2   34 1  
    37    5   35 1  
    38    6   36 1  
    39    7   37 1  
    40    8   38 1  
    41    9   39 1  
    42   12   40 1  
    43   13   41 1  
    44   15   42 1  
    45   16   43 1  
    46   17   44 1  
    47   19   45 1  
    48   20   46 1  
    49   23   47 1  
    50   23   48 1  
    51   24   49 1  
    52   24   50 1  
    53   25   51 1  
    54   26   52 1  
    55   26   53 1  
    56   26   54 1  
    57   27   55 1  
    58   27   56 1  
    59   27   57 1  
    60   28   58 1  
    61   29   59 1  
@<TRIPOS>SUBSTRUCTURE
     1 OHT         1

