### 
### Created by X-TOOL on Mon Sep 10 21:12:56 2018
### 

@<TRIPOS>MOLECULE
2p83_ligand
   85    87     1     0     0
SMALL
GAST_HUCK


@<TRIPOS>ATOM
      1 N1        -23.1910   56.9660   64.0390 N.am      1 MR0        -0.2783
      2 C4        -25.6080   57.0410   64.4350 C.ar      1 MR0         0.0609
      3 C5        -25.4090   57.5420   65.7700 C.ar      1 MR0        -0.0179
      4 C6        -26.3000   58.1290   68.1220 C.2       1 MR0         0.2095
      5 C7        -29.2860   56.1760   64.4740 C.2       1 MR0         0.2046
      6 C8        -24.4760   56.9980   63.4910 C.2       1 MR0         0.2075
      7 C10       -25.3990   60.6170   67.7380 C.3       1 MR0         0.0331
      8 C13       -26.6470   61.2590   67.0870 C.3       1 MR0        -0.0354
      9 C15       -21.8950   56.9600   63.2570 C.3       1 MR0         0.0817
     10 C17       -20.9590   57.9280   64.0340 C.3       1 MR0         0.0048
     11 C20       -22.4840   53.3060   59.6490 C.ar      1 MR0        -0.0075
     12 C21       -23.7590   53.5870   59.0400 C.ar      1 MR0        -0.0664
     13 C22       -23.8240   54.3330   57.7990 C.ar      1 MR0        -0.0770
     14 C24       -21.3010   54.5330   57.7590 C.ar      1 MR0         0.0842
     15 C26       -22.9390   61.2620   63.4260 C.ar      1 MR0         0.1242
     16 C28       -21.6530   59.3000   64.3070 C.ar      1 MR0        -0.0445
     17 C         -26.5170   57.6040   66.7220 C.ar      1 MR0         0.0611
     18 C1        -27.8120   57.1570   66.3130 C.ar      1 MR0        -0.0179
     19 C2        -27.9810   56.6560   64.9600 C.ar      1 MR0         0.0607
     20 C3        -26.8830   56.6020   64.0360 C.ar      1 MR0        -0.0179
     21 O         -26.8860   57.5070   69.0410 O.2       1 MR0        -0.3843
     22 N         -25.4990   59.2770   68.4870 N.am      1 MR0        -0.2723
     23 C9        -24.7090   59.1130   69.7700 C.3       1 MR0         0.0331
     24 C11       -23.2720   59.7260   69.7060 C.3       1 MR0        -0.0354
     25 C12       -22.2190   58.6630   69.2690 C.3       1 MR0        -0.0634
     26 C14       -27.7990   61.2990   68.1000 C.3       1 MR0        -0.0634
     27 O1        -24.6430   57.0100   62.2660 O.2       1 MR0        -0.3845
     28 C16       -21.2460   55.6060   62.9840 C.3       1 MR0         0.1192
     29 C18       -22.1630   54.7100   62.1750 C.3       1 MR0        -0.0033
     30 N2        -21.5070   53.3930   61.8670 N.4       1 MR0         0.2408
     31 C19       -22.3780   52.5320   60.9960 C.3       1 MR0        -0.0023
     32 C23       -22.6000   54.7960   57.1770 C.ar      1 MR0        -0.0401
     33 C25       -21.2660   53.7940   58.9810 C.ar      1 MR0        -0.0272
     34 O3        -20.2220   55.0470   57.0450 O.3       1 MR0        -0.3230
     35 C27       -22.2810   60.0060   63.2270 C.ar      1 MR0        -0.0310
     36 C29       -21.6930   59.8860   65.6460 C.ar      1 MR0        -0.0310
     37 C30       -22.3580   61.1590   65.8560 C.ar      1 MR0         0.1242
     38 C31       -22.9810   61.8370   64.7340 C.ar      1 MR0        -0.0019
     39 O2        -20.0390   55.8500   62.2320 O.3       1 MR0        -0.3841
     40 CO        -18.8620   54.8920   57.4650 C.3       1 MR0         0.0592
     41 N7A       -30.4530   56.7200   65.0170 N.am      1 MR0        -0.2999
     42 O7B       -29.3280   55.2790   63.5670 O.2       1 MR0        -0.3847
     43 F30       -22.3990   61.6920   67.0530 F         1 MR0        -0.1863
     44 F26       -23.5100   61.8900   62.4130 F         1 MR0        -0.1863
     45 H1        -23.1214   56.9452   65.0364 H         1 MR0         0.1851
     46 H2        -24.4241   57.8779   66.0736 H         1 MR0         0.0756
     47 H3        -25.0098   61.3506   68.4594 H         1 MR0         0.0522
     48 H4        -24.6653   60.4709   66.9316 H         1 MR0         0.0522
     49 H5        -26.9499   60.6639   66.2129 H         1 MR0         0.0282
     50 H6        -26.4060   62.2836   66.7674 H         1 MR0         0.0282
     51 H7        -22.1044   57.3981   62.2700 H         1 MR0         0.0606
     52 H8        -20.0495   58.0997   63.4395 H         1 MR0         0.0448
     53 H9        -20.6873   57.4675   64.9953 H         1 MR0         0.0448
     54 H10       -24.6716   53.2398   59.5108 H         1 MR0         0.0466
     55 H11       -24.7827   54.5433   57.3389 H         1 MR0         0.0572
     56 H12       -28.6508   57.1913   66.9987 H         1 MR0         0.0756
     57 H13       -27.0368   56.2232   63.0320 H         1 MR0         0.0756
     58 H14       -24.6188   58.0385   69.9874 H         1 MR0         0.0522
     59 H15       -25.2611   59.6066   70.5833 H         1 MR0         0.0522
     60 H16       -23.0018   60.1093   70.7010 H         1 MR0         0.0282
     61 H17       -23.2677   60.5531   68.9808 H         1 MR0         0.0282
     62 H18       -21.2222   59.1269   69.2346 H         1 MR0         0.0230
     63 H19       -22.4788   58.2779   68.2719 H         1 MR0         0.0230
     64 H20       -22.2128   57.8341   69.9921 H         1 MR0         0.0230
     65 H21       -28.6832   61.7562   67.6318 H         1 MR0         0.0230
     66 H22       -27.4979   61.8946   68.9744 H         1 MR0         0.0230
     67 H23       -28.0418   60.2749   68.4198 H         1 MR0         0.0230
     68 H24       -21.0039   55.1130   63.9370 H         1 MR0         0.0672
     69 H25       -22.4150   55.2143   61.2305 H         1 MR0         0.0840
     70 H26       -23.0829   54.5264   62.7495 H         1 MR0         0.0840
     71 H27       -21.3267   52.9071   62.7316 H         1 MR0         0.2029
     72 H28       -20.6357   53.5650   61.3902 H         1 MR0         0.2029
     73 H29       -21.9162   51.5458   60.8408 H         1 MR0         0.0978
     74 H30       -23.3724   52.4041   61.4486 H         1 MR0         0.0978
     75 H31       -22.6587   55.3549   56.2500 H         1 MR0         0.0486
     76 H32       -20.3041   53.5841   59.4347 H         1 MR0         0.0480
     77 H33       -22.2565   59.5762   62.2322 H         1 MR0         0.0508
     78 H34       -21.2276   59.3715   66.4790 H         1 MR0         0.0508
     79 H35       -23.4816   62.7859   64.8890 H         1 MR0         0.0532
     80 H36       -19.4614   56.4114   62.7357 H         1 MR0         0.2101
     81 H37       -18.1961   55.3824   56.7397 H         1 MR0         0.0577
     82 H38       -18.6159   53.8215   57.5232 H         1 MR0         0.0577
     83 H39       -18.7291   55.3531   58.4548 H         1 MR0         0.0577
     84 H40       -31.3469   56.4051   64.6980 H         1 MR0         0.1808
     85 H41       -30.3942   57.4242   65.7246 H         1 MR0         0.1808
@<TRIPOS>BOND
     1    1    6 am 
     2    9    1 1  
     3    2    3 ar 
     4    6    2 1  
     5    2   20 ar 
     6    3   17 ar 
     7   17    4 1  
     8    4   21 2  
     9    4   22 am 
    10   19    5 1  
    11    5   41 am 
    12    5   42 2  
    13    6   27 2  
    14    7    8 1  
    15   22    7 1  
    16    8   26 1  
    17    9   10 1  
    18   28    9 1  
    19   10   16 1  
    20   11   12 ar 
    21   31   11 1  
    22   11   33 ar 
    23   12   13 ar 
    24   13   32 ar 
    25   14   32 ar 
    26   33   14 ar 
    27   14   34 1  
    28   35   15 ar 
    29   15   38 ar 
    30   15   44 1  
    31   16   35 ar 
    32   16   36 ar 
    33   17   18 ar 
    34   19   18 ar 
    35   20   19 ar 
    36   22   23 1  
    37   23   24 1  
    38   24   25 1  
    39   29   28 1  
    40   28   39 1  
    41   30   29 1  
    42   30   31 1  
    43   34   40 1  
    44   36   37 ar 
    45   37   38 ar 
    46   37   43 1  
    47    1   45 1  
    48    3   46 1  
    49    7   47 1  
    50    7   48 1  
    51    8   49 1  
    52    8   50 1  
    53    9   51 1  
    54   10   52 1  
    55   10   53 1  
    56   12   54 1  
    57   13   55 1  
    58   18   56 1  
    59   20   57 1  
    60   23   58 1  
    61   23   59 1  
    62   24   60 1  
    63   24   61 1  
    64   25   62 1  
    65   25   63 1  
    66   25   64 1  
    67   26   65 1  
    68   26   66 1  
    69   26   67 1  
    70   28   68 1  
    71   29   69 1  
    72   29   70 1  
    73   30   71 1  
    74   30   72 1  
    75   31   73 1  
    76   31   74 1  
    77   32   75 1  
    78   33   76 1  
    79   35   77 1  
    80   36   78 1  
    81   38   79 1  
    82   39   80 1  
    83   40   81 1  
    84   40   82 1  
    85   40   83 1  
    86   41   84 1  
    87   41   85 1  
@<TRIPOS>SUBSTRUCTURE
     1 MR0         1

