### 
### Created by X-TOOL on Mon Sep 10 21:12:56 2018
### 

@<TRIPOS>MOLECULE
2p8h_ligand
   87    90     1     0     0
SMALL
GAST_HUCK


@<TRIPOS>ATOM
      1 C1         32.1850   44.2740    6.0810 C.ar      1 MY9        -0.0598
      2 C2         32.6060   45.3040    5.1170 C.ar      1 MY9        -0.0221
      3 C3         32.5730   46.7340    5.3770 C.ar      1 MY9        -0.0598
      4 C4         32.1190   47.1660    6.6770 C.ar      1 MY9        -0.0348
      5 C5         31.7640   46.1370    7.6220 C.ar      1 MY9         0.1248
      6 C6         31.7730   44.7050    7.3840 C.ar      1 MY9        -0.0348
      7 C7         33.1310   44.9540    3.7740 C.3       1 MY9         0.0705
      8 N1         32.2070   44.1910    2.9440 N.am      1 MY9        -0.2728
      9 C8         31.4220   44.6770    1.9210 C.2       1 MY9         0.2040
     10 C9         30.4450   43.7270    1.3410 C.ar      1 MY9         0.0398
     11 C10        30.7740   42.3320    1.2320 C.ar      1 MY9        -0.0393
     12 C11        29.8000   41.3750    0.8380 C.ar      1 MY9         0.0397
     13 C12        28.4720   41.8070    0.4710 C.ar      1 MY9        -0.0214
     14 C13        28.1050   43.2000    0.4850 C.ar      1 MY9         0.0754
     15 C14        29.1160   44.1440    0.9340 C.ar      1 MY9        -0.0214
     16 N2         26.8040   43.5560    0.0790 N.am      1 MY9        -0.1796
     17 S1         25.9420   44.7830    0.7850 S.o2      1 MY9         0.0593
     18 C15        26.2710   46.3560    0.0070 C.3       1 MY9         0.0790
     19 C16        26.2440   43.0030   -1.1970 C.3       1 MY9         0.0445
     20 C17        30.1350   39.9540    0.7600 C.2       1 MY9         0.2025
     21 O1         31.5470   45.8410    1.5330 O.2       1 MY9        -0.3845
     22 O2         26.4540   44.9280    2.1180 O.2       1 MY9        -0.1500
     23 O3         24.5390   44.4870    0.6790 O.2       1 MY9        -0.1500
     24 O4         29.9030   39.2940   -0.2560 O.2       1 MY9        -0.3847
     25 C18        34.4420   44.1630    3.9240 C.3       1 MY9        -0.0325
     26 N3         30.7160   39.4100    1.8720 N.am      1 MY9        -0.2784
     27 C19        31.4290   38.1100    1.8020 C.3       1 MY9         0.0844
     28 C20        32.8820   38.3470    2.2210 C.3       1 MY9         0.0067
     29 C21        33.6450   39.4470    1.4640 C.ar      1 MY9        -0.0407
     30 C22        33.5320   39.6790    0.0090 C.ar      1 MY9        -0.0603
     31 C23        34.3120   40.7450   -0.5790 C.ar      1 MY9        -0.0686
     32 C24        35.1670   41.5550    0.2780 C.ar      1 MY9        -0.0687
     33 C25        35.3140   41.3190    1.7080 C.ar      1 MY9        -0.0686
     34 C26        34.5170   40.2560    2.3030 C.ar      1 MY9        -0.0603
     35 C27        30.7540   37.0830    2.7550 C.3       1 MY9         0.1393
     36 O5         31.4260   35.9300    2.8070 O.3       1 MY9        -0.3812
     37 F1         31.3920   46.5360    8.8460 F         1 MY9        -0.1893
     38 C28        27.5610   35.3400    2.2870 C.3       1 MY9         0.0745
     39 N4         28.6070   35.8620    3.1670 N.4       1 MY9         0.2690
     40 C29        29.2840   36.8200    2.2840 C.3       1 MY9         0.0982
     41 C30        29.2600   36.1190    0.9280 C.2       1 MY9         0.2338
     42 N5         28.2100   35.2960    0.9620 N.am      1 MY9        -0.2282
     43 O6         29.9930   36.2280   -0.0510 O.2       1 MY9        -0.3904
     44 C31        27.7380   34.4090   -0.1020 C.3       1 MY9         0.0281
     45 C32        26.3340   36.2840    2.2470 C.3       1 MY9         0.0041
     46 C33        27.1540   33.9620    2.7910 C.3       1 MY9         0.0041
     47 H1         32.1866   43.2235    5.8137 H         1 MY9         0.0548
     48 H2         32.8782   47.4495    4.6221 H         1 MY9         0.0548
     49 H3         32.0481   48.2173    6.9315 H         1 MY9         0.0587
     50 H4         31.4829   43.9979    8.1527 H         1 MY9         0.0587
     51 H5         33.3487   45.8957    3.2489 H         1 MY9         0.0708
     52 H6         32.1353   43.2125    3.1372 H         1 MY9         0.1874
     53 H7         31.7830   42.0041    1.4543 H         1 MY9         0.0576
     54 H8         27.7354   41.0673    0.1787 H         1 MY9         0.0566
     55 H9         28.8675   45.1987    0.9658 H         1 MY9         0.0566
     56 H10        25.6815   47.1409    0.5033 H         1 MY9         0.0487
     57 H11        25.9922   46.3049   -1.0558 H         1 MY9         0.0487
     58 H12        27.3420   46.5914    0.0942 H         1 MY9         0.0487
     59 H13        26.8987   42.2003   -1.5672 H         1 MY9         0.0517
     60 H14        26.1847   43.8038   -1.9488 H         1 MY9         0.0517
     61 H15        25.2378   42.5991   -1.0112 H         1 MY9         0.0517
     62 H16        35.1446   44.7331    4.5496 H         1 MY9         0.0273
     63 H17        34.8861   43.9976    2.9313 H         1 MY9         0.0273
     64 H18        34.2327   43.1929    4.3984 H         1 MY9         0.0273
     65 H19        30.6597   39.8949    2.7448 H         1 MY9         0.1851
     66 H20        31.3986   37.7243    0.7723 H         1 MY9         0.0608
     67 H21        33.4288   37.4031    2.0789 H         1 MY9         0.0449
     68 H22        32.8826   38.6141    3.2881 H         1 MY9         0.0449
     69 H23        32.8805   39.0652   -0.6024 H         1 MY9         0.0557
     70 H24        34.2611   40.9390   -1.6443 H         1 MY9         0.0599
     71 H25        35.7204   42.3725   -0.1697 H         1 MY9         0.0559
     72 H26        35.9930   41.9140    2.3079 H         1 MY9         0.0599
     73 H27        34.5728   40.0673    3.3690 H         1 MY9         0.0557
     74 H28        30.7298   37.5139    3.7668 H         1 MY9         0.0702
     75 H29        32.3073   36.0924    3.1221 H         1 MY9         0.2104
     76 H30        29.2338   35.1318    3.4670 H         1 MY9         0.2064
     77 H31        28.2139   36.3201    3.9743 H         1 MY9         0.2064
     78 H32        28.7368   37.7734    2.2445 H         1 MY9         0.1127
     79 H33        28.3655   34.5421   -0.9956 H         1 MY9         0.0488
     80 H34        26.6940   34.6538   -0.3473 H         1 MY9         0.0488
     81 H35        27.7997   33.3644    0.2371 H         1 MY9         0.0488
     82 H36        25.5690   35.8627    1.5782 H         1 MY9         0.0310
     83 H37        26.6432   37.2716    1.8742 H         1 MY9         0.0310
     84 H38        25.9182   36.3881    3.2601 H         1 MY9         0.0310
     85 H39        26.3668   33.5517    2.1413 H         1 MY9         0.0310
     86 H40        26.7738   34.0454    3.8198 H         1 MY9         0.0310
     87 H41        28.0273   33.2933    2.7759 H         1 MY9         0.0310
@<TRIPOS>BOND
     1    2    1 ar 
     2    1    6 ar 
     3    2    3 ar 
     4    7    2 1  
     5    3    4 ar 
     6    4    5 ar 
     7    6    5 ar 
     8    5   37 1  
     9    8    7 1  
    10    7   25 1  
    11    9    8 am 
    12   10    9 1  
    13    9   21 2  
    14   11   10 ar 
    15   10   15 ar 
    16   12   11 ar 
    17   12   13 ar 
    18   20   12 1  
    19   13   14 ar 
    20   14   15 ar 
    21   14   16 1  
    22   16   17 am 
    23   16   19 1  
    24   17   18 1  
    25   17   22 2  
    26   17   23 2  
    27   20   24 2  
    28   26   20 am 
    29   27   26 1  
    30   27   28 1  
    31   35   27 1  
    32   28   29 1  
    33   29   30 ar 
    34   29   34 ar 
    35   30   31 ar 
    36   31   32 ar 
    37   33   32 ar 
    38   34   33 ar 
    39   35   36 1  
    40   40   35 1  
    41   39   38 1  
    42   38   42 1  
    43   38   45 1  
    44   38   46 1  
    45   39   40 1  
    46   40   41 1  
    47   41   42 am 
    48   41   43 2  
    49   42   44 1  
    50    1   47 1  
    51    3   48 1  
    52    4   49 1  
    53    6   50 1  
    54    7   51 1  
    55    8   52 1  
    56   11   53 1  
    57   13   54 1  
    58   15   55 1  
    59   18   56 1  
    60   18   57 1  
    61   18   58 1  
    62   19   59 1  
    63   19   60 1  
    64   19   61 1  
    65   25   62 1  
    66   25   63 1  
    67   25   64 1  
    68   26   65 1  
    69   27   66 1  
    70   28   67 1  
    71   28   68 1  
    72   30   69 1  
    73   31   70 1  
    74   32   71 1  
    75   33   72 1  
    76   34   73 1  
    77   35   74 1  
    78   36   75 1  
    79   39   76 1  
    80   39   77 1  
    81   40   78 1  
    82   44   79 1  
    83   44   80 1  
    84   44   81 1  
    85   45   82 1  
    86   45   83 1  
    87   45   84 1  
    88   46   85 1  
    89   46   86 1  
    90   46   87 1  
@<TRIPOS>SUBSTRUCTURE
     1 MY9         1

