### 
### Created by X-TOOL on Mon Sep 10 21:12:56 2018
### 

@<TRIPOS>MOLECULE
2p8n_ligand
   15    16     1     0     0
SMALL
GAST_HUCK


@<TRIPOS>ATOM
      1 N9        -23.2210   11.9740   -8.6430 N.pl3     1 ADE        -0.2857
      2 C8        -23.9430   12.3660   -7.5400 C.2       1 ADE         0.1112
      3 N7        -24.2420   11.3970   -6.7270 N.2       1 ADE        -0.2409
      4 C5        -23.6880   10.2970   -7.3000 C.ar      1 ADE         0.1543
      5 C6        -23.6690    8.9490   -6.9250 C.ar      1 ADE         0.1524
      6 N6        -24.2520    8.5300   -5.7940 N.pl3     1 ADE        -0.3151
      7 N1        -23.0060    8.1060   -7.7700 N.ar      1 ADE        -0.2692
      8 C2        -22.4380    8.5840   -8.8910 C.ar      1 ADE         0.0501
      9 N3        -22.3920    9.8150   -9.3550 N.ar      1 ADE        -0.2948
     10 C4        -23.0610   10.6250   -8.4930 C.ar      1 ADE         0.1017
     11 H1        -24.2386   13.3991   -7.3631 H         1 ADE         0.1402
     12 H2        -22.8769   12.5663   -9.4122 H         1 ADE         0.0000
     13 H3        -24.2246    7.5323   -5.5395 H         1 ADE         0.1804
     14 H4        -24.7277    9.2055   -5.1789 H         1 ADE         0.1804
     15 H5        -21.9422    7.8423   -9.5068 H         1 ADE         0.0974
@<TRIPOS>BOND
     1    1    2 1  
     2    1   10 1  
     3    2    3 2  
     4    3    4 1  
     5    4    5 ar 
     6    4   10 ar 
     7    5    6 1  
     8    5    7 ar 
     9    7    8 ar 
    10    8    9 ar 
    11    9   10 ar 
    12    2   11 1  
    13    1   12 1  
    14    6   13 1  
    15    6   14 1  
    16    8   15 1  
@<TRIPOS>SUBSTRUCTURE
     1 ADE         1

