### 
### Created by X-TOOL on Mon Sep 10 21:12:55 2018
### 

@<TRIPOS>MOLECULE
2p8s_ligand
   50    53     1     0     0
SMALL
GAST_HUCK


@<TRIPOS>ATOM
      1 C1         34.7310   50.4710   36.3910 C.ar      1 417        -0.0030
      2 C2         35.9770   51.0680   36.5800 C.ar      1 417         0.1277
      3 C3         37.2100   50.3820   36.3930 C.ar      1 417        -0.0065
      4 C4         37.1530   49.0100   35.9870 C.ar      1 417        -0.0295
      5 C5         35.8900   48.3970   35.7950 C.ar      1 417         0.1544
      6 C6         34.6950   49.1280   35.9960 C.ar      1 417         0.1560
      7 C9         38.5190   51.1180   36.6180 C.3       1 417         0.0340
      8 C10        39.4530   50.3730   37.6060 C.3       1 417        -0.0313
      9 C11        40.7550   51.1730   37.8190 C.3       1 417        -0.0073
     10 C12        41.5200   51.4310   36.4790 C.3       1 417        -0.0127
     11 C13        40.5800   52.1470   35.4690 C.3       1 417         0.0353
     12 C14        39.2640   51.3620   35.2580 C.3       1 417        -0.0079
     13 N21        42.7790   52.2300   36.6550 N.4       1 417         0.2618
     14 C22        43.9240   51.4030   37.1440 C.3       1 417         0.0002
     15 C23        45.2800   52.1690   37.1080 C.3       1 417         0.1073
     16 N24        45.1260   53.5950   37.5070 N.pl3     1 417        -0.1858
     17 C25        43.9470   54.2130   37.7040 C.2       1 417         0.2216
     18 C26        42.6280   53.4650   37.5260 C.3       1 417         0.0647
     19 C33        46.0350   54.5570   37.7680 C.2       1 417         0.2313
     20 N34        45.3680   55.6890   38.0910 N.2       1 417        -0.1833
     21 N35        44.1360   55.4830   38.0550 N.2       1 417        -0.1845
     22 F36        35.8440   47.1120   35.4190 F         1 417        -0.1895
     23 F37        35.9780   52.3450   36.9570 F         1 417        -0.1934
     24 N38        38.3910   52.0670   34.3150 N.4       1 417         0.2224
     25 C39        47.5570   54.4190   37.7080 C.3       1 417         0.4147
     26 F40        48.1170   55.5870   38.0250 F         1 417        -0.2246
     27 F41        47.8820   54.0480   36.4740 F         1 417        -0.2246
     28 F42        47.9070   53.4850   38.5850 F         1 417        -0.2246
     29 F43        33.5100   48.5560   35.8190 F         1 417        -0.1911
     30 H1         33.8158   51.0310   36.5455 H         1 417         0.0562
     31 H2         38.0655   48.4468   35.8284 H         1 417         0.0523
     32 H3         38.2788   52.0978   37.0565 H         1 417         0.0501
     33 H4         39.6989   49.3824   37.1960 H         1 417         0.0292
     34 H5         38.9389   50.2531   38.5710 H         1 417         0.0292
     35 H6         41.4107   50.6073   38.4972 H         1 417         0.0321
     36 H7         40.5041   52.1420   38.2751 H         1 417         0.0321
     37 H8         41.8005   50.4533   36.0603 H         1 417         0.0854
     38 H9         41.0985   52.2399   34.5034 H         1 417         0.0377
     39 H10        40.3397   53.1490   35.8541 H         1 417         0.0377
     40 H11        39.5167   50.3822   34.8267 H         1 417         0.0877
     41 H12        43.0281   52.5583   35.7351 H         1 417         0.2064
     42 H13        44.0084   50.5089   36.5088 H         1 417         0.0843
     43 H14        43.7199   51.0982   38.1810 H         1 417         0.0843
     44 H15        45.6840   52.1280   36.0857 H         1 417         0.0681
     45 H16        45.9822   51.6806   37.7997 H         1 417         0.0681
     46 H17        42.2596   53.1571   38.5157 H         1 417         0.1139
     47 H18        41.8982   54.1415   37.0572 H         1 417         0.1139
     48 H19        37.5394   51.5426   34.1892 H         1 417         0.1998
     49 H20        38.8612   52.1620   33.4284 H         1 417         0.1998
     50 H21        38.1720   52.9812   34.6789 H         1 417         0.1998
@<TRIPOS>BOND
     1    1    2 ar 
     2    1    6 ar 
     3    2    3 ar 
     4    2   23 1  
     5    3    4 ar 
     6    3    7 1  
     7    4    5 ar 
     8    5    6 ar 
     9    5   22 1  
    10    6   29 1  
    11    7    8 1  
    12    7   12 1  
    13    8    9 1  
    14    9   10 1  
    15   10   11 1  
    16   10   13 1  
    17   11   12 1  
    18   12   24 1  
    19   13   14 1  
    20   13   18 1  
    21   14   15 1  
    22   15   16 1  
    23   16   17 1  
    24   16   19 1  
    25   17   18 1  
    26   17   21 2  
    27   19   20 2  
    28   19   25 1  
    29   20   21 1  
    30   25   26 1  
    31   25   27 1  
    32   25   28 1  
    33    1   30 1  
    34    4   31 1  
    35    7   32 1  
    36    8   33 1  
    37    8   34 1  
    38    9   35 1  
    39    9   36 1  
    40   10   37 1  
    41   11   38 1  
    42   11   39 1  
    43   12   40 1  
    44   13   41 1  
    45   14   42 1  
    46   14   43 1  
    47   15   44 1  
    48   15   45 1  
    49   18   46 1  
    50   18   47 1  
    51   24   48 1  
    52   24   49 1  
    53   24   50 1  
@<TRIPOS>SUBSTRUCTURE
     1 417         1

