### 
### Created by X-TOOL on Mon Sep 10 21:12:56 2018
### 

@<TRIPOS>MOLECULE
2p93_ligand
   43    45     1     0     0
SMALL
GAST_HUCK


@<TRIPOS>ATOM
      1 C1         12.1880   44.0860   65.6920 C.2       1 ME1         0.1023
      2 C2         12.2030   44.8360   64.5730 C.2       1 ME1        -0.0524
      3 C3         10.9840   45.1580   64.1010 C.2       1 ME1        -0.0542
      4 C9          6.4100   45.0930   63.9840 C.3       1 ME1         0.0499
      5 C10         5.6210   43.9450   63.3580 C.3       1 ME1         0.0501
      6 C12         6.4980   43.2330   61.2100 C.2       1 ME1         0.1971
      7 C14         6.9290   42.1070   60.3620 C.ar      1 ME1         0.0390
      8 C15         7.7020   42.4420   59.1650 C.ar      1 ME1        -0.0494
      9 C16         8.1980   41.3650   58.3210 C.ar      1 ME1        -0.0218
     10 C19         6.6130   40.7140   60.7110 C.ar      1 ME1        -0.0494
     11 C21         9.5950   38.3380   58.0100 C.2       1 ME1         0.0846
     12 C22        10.1040   37.4970   56.9640 C.2       1 ME1        -0.0375
     13 C24         8.1610   37.9370   55.4650 C.2       1 ME1        -0.0083
     14 C4          9.9540   44.6390   64.8580 C.2       1 ME1         0.0995
     15 S5         10.5520   43.7480   66.2200 S.3       1 ME1        -0.0137
     16 C6          8.7100   44.9440   64.2580 C.2       1 ME1         0.2075
     17 O7          8.7280   45.4950   63.1450 O.2       1 ME1        -0.3910
     18 N8          7.5270   44.6590   64.8450 N.am      1 ME1        -0.2858
     19 N11         6.3340   42.9630   62.5290 N.am      1 ME1        -0.2858
     20 O13         6.3020   44.3550   60.7460 O.2       1 ME1        -0.3898
     21 C17         7.9240   39.9590   58.6740 C.ar      1 ME1         0.1155
     22 C18         7.1140   39.6290   59.8680 C.ar      1 ME1        -0.0218
     23 N20         8.3700   38.9770   57.7730 N.am      1 ME1        -0.1601
     24 C23         9.4330   37.3130   55.7070 C.2       1 ME1        -0.0753
     25 C25         7.5930   38.7850   56.5540 C.2       1 ME1         0.2209
     26 O26         6.4810   39.2980   56.4060 O.2       1 ME1        -0.4116
     27 CL27       13.8500   43.6750   66.1630 Cl        1 ME1        -0.0499
     28 H1         13.1253   45.1555   64.0900 H         1 ME1         0.0447
     29 H2         10.8269   45.7665   63.2117 H         1 ME1         0.0517
     30 H3          5.7192   45.6953   64.5923 H         1 ME1         0.0538
     31 H4          6.8200   45.7127   63.1729 H         1 ME1         0.0538
     32 H5          4.8415   44.3957   62.7262 H         1 ME1         0.0539
     33 H6          5.1494   43.3900   64.1823 H         1 ME1         0.0539
     34 H7          7.9020   43.4767   58.9110 H         1 ME1         0.0642
     35 H8          8.7706   41.5967   57.4302 H         1 ME1         0.0572
     36 H9          6.0132   40.4929   61.5865 H         1 ME1         0.0642
     37 H10        10.1360   38.4735   58.9454 H         1 ME1         0.1242
     38 H11        11.0440   36.9732   57.1313 H         1 ME1         0.0386
     39 H12         7.6321   37.7965   54.5235 H         1 ME1         0.0415
     40 H13         7.4232   44.2169   65.7360 H         1 ME1         0.1837
     41 H14         6.6892   42.1173   62.9273 H         1 ME1         0.1842
     42 H15         6.8949   38.5964   60.1145 H         1 ME1         0.0572
     43 H16         9.8904   36.6977   54.9337 H         1 ME1         0.0646
@<TRIPOS>BOND
     1    1    2 2  
     2   15    1 1  
     3    1   27 1  
     4    3    2 1  
     5   14    3 2  
     6    5    4 1  
     7    4   18 1  
     8   19    5 1  
     9    7    6 1  
    10    6   19 am 
    11    6   20 2  
    12    8    7 ar 
    13   10    7 ar 
    14    9    8 ar 
    15   21    9 ar 
    16   22   10 ar 
    17   11   12 2  
    18   23   11 1  
    19   12   24 1  
    20   24   13 2  
    21   13   25 1  
    22   14   15 1  
    23   16   14 1  
    24   16   17 2  
    25   18   16 am 
    26   21   22 ar 
    27   21   23 1  
    28   23   25 am 
    29   25   26 2  
    30    2   28 1  
    31    3   29 1  
    32    4   30 1  
    33    4   31 1  
    34    5   32 1  
    35    5   33 1  
    36    8   34 1  
    37    9   35 1  
    38   10   36 1  
    39   11   37 1  
    40   12   38 1  
    41   13   39 1  
    42   18   40 1  
    43   19   41 1  
    44   22   42 1  
    45   24   43 1  
@<TRIPOS>SUBSTRUCTURE
     1 ME1         1

