### 
### Created by X-TOOL on Mon Sep 10 21:12:56 2018
### 

@<TRIPOS>MOLECULE
2p94_ligand
   60    64     1     0     0
SMALL
GAST_HUCK


@<TRIPOS>ATOM
      1 C1          5.0040   44.3070   61.2040 C.3       1 ME4         0.0641
      2 C2          3.5610   44.4010   60.6550 C.3       1 ME4        -0.0278
      3 C3          2.6880   43.3340   61.3240 C.3       1 ME4        -0.0508
      4 C8          7.2990   45.3360   63.1160 C.2       1 ME4         0.1972
      5 C10         8.5780   44.9900   63.7740 C.ar      1 ME4         0.0349
      6 C11         8.5550   44.3200   65.0860 C.ar      1 ME4        -0.0227
      7 C12         9.8160   43.9460   65.7130 C.ar      1 ME4         0.0706
      8 C13        11.0950   44.2480   65.0120 C.ar      1 ME4        -0.0100
      9 C14        12.1640   43.7570   65.8800 C.2       1 ME4         0.0389
     10 C15        11.4770   43.2260   66.9840 C.2       1 ME4         0.0389
     11 C19         9.8490   45.2890   63.0830 C.ar      1 ME4        -0.0602
     12 C21         6.8450   42.8410   60.4850 C.2       1 ME4         0.1973
     13 C24         7.0580   40.3190   60.1750 C.ar      1 ME4        -0.0494
     14 C27         8.3940   40.8680   57.6030 C.ar      1 ME4        -0.0218
     15 N29         8.6060   38.4370   57.1860 N.am      1 ME4        -0.1601
     16 C30         9.7660   37.7170   57.4690 C.2       1 ME4         0.0846
     17 C31        10.2540   36.8490   56.4230 C.2       1 ME4        -0.0375
     18 C32         9.5820   36.6670   55.1570 C.2       1 ME4        -0.0753
     19 C33         8.3750   37.3750   54.8640 C.2       1 ME4        -0.0083
     20 C34         7.8890   38.3300   55.9120 C.2       1 ME4         0.2209
     21 C4          2.6890   43.4780   62.8460 C.3       1 ME4        -0.0508
     22 C5          4.1060   43.4140   63.4150 C.3       1 ME4        -0.0278
     23 C6          4.9920   44.4970   62.7440 C.3       1 ME4         0.0641
     24 N7          6.3130   44.4410   63.3590 N.am      1 ME4        -0.2822
     25 O9          7.1390   46.3310   62.4020 O.2       1 ME4        -0.3885
     26 N16        10.1210   43.3340   66.8970 N.pl3     1 ME4        -0.2759
     27 CL17       13.9110   43.7010   65.7040 Cl        1 ME4        -0.1054
     28 C18        11.1100   44.9090   63.7160 C.ar      1 ME4        -0.0704
     29 N20         5.5280   43.0020   60.7570 N.am      1 ME4        -0.2825
     30 O22         7.7040   43.6260   60.8810 O.2       1 ME4        -0.3898
     31 C23         7.2460   41.6840   59.6790 C.ar      1 ME4         0.0390
     32 C25         7.5430   39.1990   59.3710 C.ar      1 ME4        -0.0218
     33 C26         8.2100   39.4760   58.0710 C.ar      1 ME4         0.1155
     34 C28         7.9090   41.9780   58.4080 C.ar      1 ME4        -0.0494
     35 O35         6.9110   39.0360   55.6500 O.2       1 ME4        -0.4116
     36 H1          5.6209   45.1055   60.7659 H         1 ME4         0.0578
     37 H2          3.5713   44.2368   59.5674 H         1 ME4         0.0288
     38 H3          3.1508   45.3984   60.8714 H         1 ME4         0.0288
     39 H4          3.0752   42.3389   61.0595 H         1 ME4         0.0266
     40 H5          1.6561   43.4355   60.9567 H         1 ME4         0.0266
     41 H6          7.6127   44.1082   65.5782 H         1 ME4         0.0605
     42 H7         11.9824   42.7689   67.8334 H         1 ME4         0.0972
     43 H8          9.8462   45.7840   62.1186 H         1 ME4         0.0557
     44 H9          6.5663   40.1419   61.1247 H         1 ME4         0.0642
     45 H10         8.8909   41.0605   56.6590 H         1 ME4         0.0572
     46 H11        10.2764   37.8044   58.4270 H         1 ME4         0.1242
     47 H12        11.1791   36.3017   56.5981 H         1 ME4         0.0386
     48 H13         9.9990   35.9837   54.4186 H         1 ME4         0.0646
     49 H14         7.8370   37.2282   53.9286 H         1 ME4         0.0415
     50 H15         2.0918   42.6637   63.2823 H         1 ME4         0.0266
     51 H16         2.2401   44.4459   63.1135 H         1 ME4         0.0266
     52 H17         4.5336   42.4197   63.2189 H         1 ME4         0.0288
     53 H18         4.0720   43.5911   64.5001 H         1 ME4         0.0288
     54 H19         4.5605   45.4870   62.9532 H         1 ME4         0.0578
     55 H20         6.5019   43.6963   63.9991 H         1 ME4         0.1846
     56 H21         9.4430   43.0104   67.6017 H         1 ME4         0.2284
     57 H22        12.0521   45.1186   63.2224 H         1 ME4         0.0543
     58 H23         4.9036   42.2277   60.6537 H         1 ME4         0.1845
     59 H24         7.4182   38.1796   59.7178 H         1 ME4         0.0572
     60 H25         8.0359   43.0013   58.0736 H         1 ME4         0.0642
@<TRIPOS>BOND
     1    1    2 1  
     2    1   23 1  
     3   29    1 1  
     4    2    3 1  
     5    3   21 1  
     6    4    5 1  
     7   24    4 am 
     8    4   25 2  
     9    5    6 ar 
    10    5   11 ar 
    11    6    7 ar 
    12    7    8 ar 
    13    7   26 1  
    14    8    9 1  
    15   28    8 ar 
    16    9   10 2  
    17    9   27 1  
    18   26   10 1  
    19   11   28 ar 
    20   12   29 am 
    21   12   30 2  
    22   31   12 1  
    23   31   13 ar 
    24   13   32 ar 
    25   14   33 ar 
    26   34   14 ar 
    27   15   16 1  
    28   15   20 am 
    29   33   15 1  
    30   16   17 2  
    31   17   18 1  
    32   19   18 2  
    33   20   19 1  
    34   20   35 2  
    35   22   21 1  
    36   23   22 1  
    37   23   24 1  
    38   31   34 ar 
    39   32   33 ar 
    40    1   36 1  
    41    2   37 1  
    42    2   38 1  
    43    3   39 1  
    44    3   40 1  
    45    6   41 1  
    46   10   42 1  
    47   11   43 1  
    48   13   44 1  
    49   14   45 1  
    50   16   46 1  
    51   17   47 1  
    52   18   48 1  
    53   19   49 1  
    54   21   50 1  
    55   21   51 1  
    56   22   52 1  
    57   22   53 1  
    58   23   54 1  
    59   24   55 1  
    60   26   56 1  
    61   28   57 1  
    62   29   58 1  
    63   32   59 1  
    64   34   60 1  
@<TRIPOS>SUBSTRUCTURE
     1 ME4         1

