### 
### Created by X-TOOL on Mon Sep 10 21:12:56 2018
### 

@<TRIPOS>MOLECULE
2p95_ligand
   50    53     1     0     0
SMALL
GAST_HUCK


@<TRIPOS>ATOM
      1 C1          8.5460   44.9450   63.3800 C.2       1 ME5         0.2078
      2 C2          9.2960   43.8860   65.5000 C.2       1 ME5        -0.0542
      3 C3          9.5640   44.5380   64.2590 C.2       1 ME5         0.0995
      4 C7          7.1490   42.1470   59.3580 C.ar      1 ME5         0.0390
      5 C8          5.0430   45.6160   63.4870 C.3       1 ME5        -0.0278
      6 C10         4.3840   44.5050   64.2690 C.3       1 ME5        -0.0488
      7 C12         4.9380   43.4190   63.3770 C.3       1 ME5        -0.0277
      8 C13         5.3910   43.9790   62.0470 C.3       1 ME5         0.0640
      9 C14         8.2100   41.1690   57.3330 C.ar      1 ME5        -0.0218
     10 C15         9.8560   38.1880   57.5390 C.2       1 ME5         0.0846
     11 C16         8.0650   39.8260   57.9090 C.ar      1 ME5         0.1155
     12 C19         6.2320   45.1160   62.6690 C.3       1 ME5         0.0638
     13 C21         7.9520   38.3560   55.9760 C.2       1 ME5         0.2209
     14 C22         6.9270   40.8070   59.9310 C.ar      1 ME5        -0.0494
     15 C24         8.5610   37.3230   55.0740 C.2       1 ME5        -0.0083
     16 C17         6.5160   43.2810   60.0360 C.2       1 ME5         0.1973
     17 C44         7.7670   42.3340   58.0690 C.ar      1 ME5        -0.0494
     18 N2          8.6440   38.7530   57.1830 N.am      1 ME5        -0.1601
     19 C18         7.3760   39.6420   59.1940 C.ar      1 ME5        -0.0218
     20 C23        10.4500   37.1960   56.6830 C.2       1 ME5        -0.0375
     21 C26         9.8230   36.7760   55.4800 C.2       1 ME5        -0.0753
     22 O1          6.8730   38.8870   55.7130 O.2       1 ME5        -0.4116
     23 N4          6.1040   42.9900   61.2850 N.am      1 ME5        -0.2825
     24 O2          6.3440   44.3830   59.5350 O.2       1 ME5        -0.3898
     25 N1          7.2460   44.5470   63.6360 N.am      1 ME5        -0.2825
     26 O3          8.8650   45.6540   62.4180 O.2       1 ME5        -0.3910
     27 C4         10.5370   43.6020   66.1500 C.2       1 ME5        -0.0524
     28 S1         11.2170   44.7820   63.9130 S.3       1 ME5        -0.0137
     29 C5         11.6830   44.0440   65.3680 C.2       1 ME5         0.1023
     30 CL1        13.4130   43.8570   65.7830 Cl        1 ME5        -0.0499
     31 H1          8.3077   43.6444   65.8882 H         1 ME5         0.0517
     32 H2          5.3949   46.3847   64.1907 H         1 ME5         0.0288
     33 H3          4.3022   46.0562   62.8033 H         1 ME5         0.0288
     34 H4          3.2854   44.5581   64.2580 H         1 ME5         0.0267
     35 H5          4.7374   44.4361   65.3084 H         1 ME5         0.0267
     36 H6          4.1558   42.6659   63.2011 H         1 ME5         0.0288
     37 H7          5.7959   42.9466   63.8779 H         1 ME5         0.0288
     38 H8          4.5628   44.3679   61.4365 H         1 ME5         0.0578
     39 H9          8.6516   41.2887   56.3503 H         1 ME5         0.0572
     40 H10        10.3552   38.4913   58.4581 H         1 ME5         0.1242
     41 H11         6.6744   45.8302   61.9589 H         1 ME5         0.0577
     42 H12         6.4348   40.6943   60.8902 H         1 ME5         0.0642
     43 H13         8.0689   37.0044   54.1563 H         1 ME5         0.0415
     44 H14         7.8975   43.3288   57.6585 H         1 ME5         0.0642
     45 H15         7.2054   38.6461   59.5865 H         1 ME5         0.0572
     46 H16        11.4053   36.7557   56.9649 H         1 ME5         0.0386
     47 H17        10.3081   36.0268   54.8560 H         1 ME5         0.0646
     48 H18         6.2930   42.0910   61.6801 H         1 ME5         0.1845
     49 H19         6.9996   43.9391   64.3908 H         1 ME5         0.1840
     50 H20        10.6163   43.1113   67.1190 H         1 ME5         0.0447
@<TRIPOS>BOND
     1    1    3 1  
     2   25    1 am 
     3    1   26 2  
     4    3    2 2  
     5    2   27 1  
     6    3   28 1  
     7    4   14 ar 
     8   16    4 1  
     9    4   17 ar 
    10    5    6 1  
    11   12    5 1  
    12    7    6 1  
    13    8    7 1  
    14    8   12 1  
    15   23    8 1  
    16    9   11 ar 
    17   17    9 ar 
    18   18   10 1  
    19   10   20 2  
    20   11   18 1  
    21   19   11 ar 
    22   12   25 1  
    23   13   15 1  
    24   18   13 am 
    25   13   22 2  
    26   14   19 ar 
    27   15   21 2  
    28   16   23 am 
    29   16   24 2  
    30   20   21 1  
    31   27   29 2  
    32   28   29 1  
    33   29   30 1  
    34    2   31 1  
    35    5   32 1  
    36    5   33 1  
    37    6   34 1  
    38    6   35 1  
    39    7   36 1  
    40    7   37 1  
    41    8   38 1  
    42    9   39 1  
    43   10   40 1  
    44   12   41 1  
    45   14   42 1  
    46   15   43 1  
    47   17   44 1  
    48   19   45 1  
    49   20   46 1  
    50   21   47 1  
    51   23   48 1  
    52   25   49 1  
    53   27   50 1  
@<TRIPOS>SUBSTRUCTURE
     1 ME5         1

