### 
### Created by X-TOOL on Mon Sep 10 21:12:56 2018
### 

@<TRIPOS>MOLECULE
2p98_ligand
   28    30     1     0     0
SMALL
GAST_HUCK


@<TRIPOS>ATOM
      1 CAK        -1.4350    0.7620   10.3750 C.2       1 YE7         0.0790
      2 NAM        -2.7440    0.5730   10.2310 N.pl3     1 YE7        -0.1980
      3 CAH        -3.8490    0.9390   11.0090 C.2       1 YE7         0.0783
      4 CAI        -5.1300    0.6010   10.5880 C.2       1 YE7        -0.0243
      5 CAE        -5.3150   -0.0980    9.3990 C.ar      1 YE7        -0.0192
      6 CAF        -6.5990   -0.4280    8.9820 C.ar      1 YE7        -0.0577
      7 CAA        -6.7920   -1.1240    7.7940 C.ar      1 YE7        -0.0641
      8 CAB        -5.6960   -1.4910    7.0190 C.ar      1 YE7        -0.0633
      9 CAC        -4.4110   -1.1620    7.4340 C.ar      1 YE7        -0.0513
     10 CAD        -4.2190   -0.4650    8.6230 C.ar      1 YE7         0.0322
     11 CAG        -2.9350   -0.1310    9.0360 C.2       1 YE7         0.1556
     12 NAN        -1.7340   -0.3400    8.5050 N.2       1 YE7        -0.3139
     13 CAJ        -0.8390    0.2080    9.3240 C.2       1 YE7         0.0915
     14 CAL         0.6680    0.1970    9.0700 C.2       1 YE7         0.2316
     15 OAQ         1.0990    0.0330    7.9310 O.2       1 YE7        -0.3898
     16 NAO         1.4400    0.3330   10.1450 N.am      1 YE7        -0.2604
     17 NAP         2.2740    1.3960   10.3100 N.4       1 YE7         0.3580
     18 H1         -0.9434    1.2750   11.2002 H         1 YE7         0.0949
     19 H2         -3.7056    1.4860   11.9397 H         1 YE7         0.1167
     20 H3         -5.9917    0.8842   11.1907 H         1 YE7         0.0517
     21 H4         -7.4530   -0.1417    9.5851 H         1 YE7         0.0592
     22 H5         -7.7948   -1.3804    7.4719 H         1 YE7         0.0616
     23 H6         -5.8444   -2.0332    6.0921 H         1 YE7         0.0592
     24 H7         -3.5573   -1.4487    6.8307 H         1 YE7         0.0625
     25 H8          1.4064   -0.3695   10.8559 H         1 YE7         0.2366
     26 H9          2.7646    1.3053   11.1858 H         1 YE7         0.2245
     27 H10         1.7356    2.2482   10.3132 H         1 YE7         0.2245
     28 H11         2.9394    1.4217    9.5533 H         1 YE7         0.2245
@<TRIPOS>BOND
     1    1    2 1  
     2    1   13 2  
     3    2    3 1  
     4    2   11 1  
     5    3    4 2  
     6    4    5 1  
     7    5    6 ar 
     8    5   10 ar 
     9    6    7 ar 
    10    7    8 ar 
    11    8    9 ar 
    12    9   10 ar 
    13   10   11 1  
    14   11   12 2  
    15   12   13 1  
    16   13   14 1  
    17   14   15 2  
    18   14   16 am 
    19   16   17 1  
    20    1   18 1  
    21    3   19 1  
    22    4   20 1  
    23    6   21 1  
    24    7   22 1  
    25    8   23 1  
    26    9   24 1  
    27   16   25 1  
    28   17   26 1  
    29   17   27 1  
    30   17   28 1  
@<TRIPOS>SUBSTRUCTURE
     1 YE7         1

