### 
### Created by X-TOOL on Mon Sep 10 21:12:46 2018
### 

@<TRIPOS>MOLECULE
2pax_ligand
   24    26     1     0     0
SMALL
GAST_HUCK


@<TRIPOS>ATOM
      1 C1A        41.4240   23.8800   19.3220 C.2       1 4AN         0.2173
      2 O1A        41.0650   24.2260   18.2080 O.2       1 4AN        -0.3863
      3 C1         40.4280   23.1820   20.2560 C.ar      1 4AN         0.0456
      4 C2         39.0960   22.9300   19.8540 C.ar      1 4AN        -0.0552
      5 C3         38.2050   22.2880   20.7320 C.ar      1 4AN        -0.0359
      6 C4         38.6180   21.8880   22.0130 C.ar      1 4AN         0.0590
      7 N4         37.6600   21.2420   22.8470 N.pl3     1 4AN        -0.3273
      8 C5         40.4240   21.7850   23.7120 C.ar      1 4AN        -0.0465
      9 C6         41.7510   22.0510   24.0930 C.ar      1 4AN        -0.0548
     10 C7         42.6340   22.6750   23.2100 C.ar      1 4AN        -0.0423
     11 C8         42.1910   23.0510   21.9350 C.ar      1 4AN         0.0577
     12 C8A        43.1410   23.7250   20.9560 C.2       1 4AN         0.2278
     13 O8A        44.3100   23.9230   21.2860 O.2       1 4AN        -0.3792
     14 N9         42.6940   24.0920   19.7380 N.am      1 4AN        -0.2029
     15 C9         40.8520   22.7910   21.5500 C.ar      1 4AN         0.0072
     16 C10        39.9540   22.1470   22.4400 C.ar      1 4AN         0.0196
     17 H1         38.7615   23.2320   18.8681 H         1 4AN         0.0659
     18 H2         37.1855   22.0993   20.4157 H         1 4AN         0.0489
     19 H3         36.7050   21.0738   22.4997 H         1 4AN         0.1790
     20 H4         37.9225   20.9432   23.7971 H         1 4AN         0.1790
     21 H5         39.7553   21.2940   24.4097 H         1 4AN         0.0694
     22 H6         42.0919   21.7687   25.0825 H         1 4AN         0.0604
     23 H7         43.6578   22.8678   23.5094 H         1 4AN         0.0696
     24 H8         43.3312   24.5422   19.1125 H         1 4AN         0.2240
@<TRIPOS>BOND
     1    1    2 2  
     2    3    1 1  
     3    1   14 am 
     4    4    3 ar 
     5    3   15 ar 
     6    5    4 ar 
     7    6    5 ar 
     8    6    7 1  
     9   16    6 ar 
    10    8    9 ar 
    11   16    8 ar 
    12    9   10 ar 
    13   10   11 ar 
    14   11   12 1  
    15   11   15 ar 
    16   12   13 2  
    17   12   14 am 
    18   15   16 ar 
    19    4   17 1  
    20    5   18 1  
    21    7   19 1  
    22    7   20 1  
    23    8   21 1  
    24    9   22 1  
    25   10   23 1  
    26   14   24 1  
@<TRIPOS>SUBSTRUCTURE
     1 4AN         1

