### 
### Created by X-TOOL on Mon Sep 10 21:12:56 2018
### 

@<TRIPOS>MOLECULE
2pbw_ligand
   41    41     1     0     0
SMALL
GAST_HUCK


@<TRIPOS>ATOM
      1 OAD        -6.1740  -31.0290   81.8850 O.co2     1 DOQ        -0.5661
      2 CAQ        -5.6640  -32.0940   82.2960 C.2       1 DOQ         0.0468
      3 OAG        -5.0050  -32.2330   83.3500 O.co2     1 DOQ        -0.5661
      4 CAS        -5.8400  -33.3360   81.4200 C.3       1 DOQ         0.0264
      5 CAB        -6.9150  -34.2480   82.0140 C.3       1 DOQ        -0.0434
      6 CAK        -4.5030  -34.0760   81.3500 C.2       1 DOQ        -0.0859
      7 CAI        -3.8360  -34.1580   80.1350 C.2       1 DOQ        -0.1044
      8 CAJ        -2.6110  -34.8100   80.0470 C.2       1 DOQ        -0.0930
      9 CAP        -1.9500  -34.8900   78.8260 C.2       1 DOQ        -0.0562
     10 CAA        -0.5810  -35.5670   78.7530 C.3       1 DOQ        -0.0280
     11 CAT        -2.5670  -34.2740   77.5680 C.3       1 DOQ         0.0461
     12 CAL        -1.5600  -34.1610   76.4250 C.3       1 DOQ        -0.0166
     13 N          -2.4070  -34.0110   75.2300 N.4       1 DOQ         0.2434
     14 CA         -3.7380  -34.5460   75.5630 C.3       1 DOQ         0.0374
     15 C          -4.7620  -33.4080   75.5990 C.2       1 DOQ         0.0851
     16 OXT        -4.4040  -32.3070   75.1300 O.co2     1 DOQ        -0.5642
     17 O          -5.8850  -33.6650   76.0810 O.co2     1 DOQ        -0.5642
     18 CB         -3.6030  -35.2050   76.9370 C.3       1 DOQ         0.0452
     19 CG         -3.0160  -36.6140   76.8170 C.3       1 DOQ         0.0125
     20 CD         -4.0540  -37.6130   76.3010 C.2       1 DOQ         0.0356
     21 OE2        -5.2580  -37.3140   76.4550 O.co2     1 DOQ        -0.5690
     22 OE1        -3.6200  -38.6610   75.7740 O.co2     1 DOQ        -0.5690
     23 H1         -6.1437  -33.0311   80.4077 H         1 DOQ         0.0598
     24 H2         -7.0340  -35.1373   81.3776 H         1 DOQ         0.0271
     25 H3         -7.8696  -33.7040   82.0660 H         1 DOQ         0.0271
     26 H4         -6.6144  -34.5586   83.0255 H         1 DOQ         0.0271
     27 H5         -4.0792  -34.5332   82.2429 H         1 DOQ         0.0485
     28 H6         -4.2750  -33.7089   79.2454 H         1 DOQ         0.0377
     29 H7         -2.1686  -35.2586   80.9353 H         1 DOQ         0.0250
     30 H8         -0.3060  -35.9462   79.7483 H         1 DOQ         0.0433
     31 H9          0.1713  -34.8378   78.4178 H         1 DOQ         0.0433
     32 H10        -0.6234  -36.4040   78.0406 H         1 DOQ         0.0433
     33 H11        -3.0020  -33.2953   77.8187 H         1 DOQ         0.0562
     34 H12        -0.9409  -35.0676   76.3561 H         1 DOQ         0.0847
     35 H13        -0.9110  -33.2830   76.5589 H         1 DOQ         0.0847
     36 H14        -2.0110  -34.5273   74.4601 H         1 DOQ         0.2032
     37 H15        -2.4800  -33.0374   74.9795 H         1 DOQ         0.2032
     38 H16        -4.0475  -35.2914   74.8157 H         1 DOQ         0.1031
     39 H17        -4.5534  -35.2265   77.4903 H         1 DOQ         0.0425
     40 H18        -2.6669  -36.9412   77.8075 H         1 DOQ         0.0438
     41 H19        -2.1665  -36.5888   76.1187 H         1 DOQ         0.0438
@<TRIPOS>BOND
     1    1    2 ar 
     2    2    3 ar 
     3    2    4 1  
     4    4    5 1  
     5    4    6 1  
     6    6    7 2  
     7    7    8 1  
     8    8    9 2  
     9    9   10 1  
    10    9   11 1  
    11   11   12 1  
    12   11   18 1  
    13   12   13 1  
    14   13   14 1  
    15   14   15 1  
    16   14   18 1  
    17   15   16 ar 
    18   15   17 ar 
    19   18   19 1  
    20   19   20 1  
    21   20   21 ar 
    22   20   22 ar 
    23    4   23 1  
    24    5   24 1  
    25    5   25 1  
    26    5   26 1  
    27    6   27 1  
    28    7   28 1  
    29    8   29 1  
    30   10   30 1  
    31   10   31 1  
    32   10   32 1  
    33   11   33 1  
    34   12   34 1  
    35   12   35 1  
    36   13   36 1  
    37   13   37 1  
    38   14   38 1  
    39   18   39 1  
    40   19   40 1  
    41   19   41 1  
@<TRIPOS>SUBSTRUCTURE
     1 DOQ         1

