### 
### Created by X-TOOL on Mon Sep 10 21:12:47 2018
### 

@<TRIPOS>MOLECULE
2pcp_ligand
   44    46     1     0     0
SMALL
GAST_HUCK


@<TRIPOS>ATOM
      1 CP         -7.3300  -31.7920  -15.3690 C.3       1 1PC        -0.0434
      2 CA         -9.1620  -27.2400  -14.5290 C.ar      1 1PC        -0.0018
      3 CB         -9.4430  -27.0060  -15.9010 C.ar      1 1PC        -0.0343
      4 CC        -10.7910  -26.7340  -16.3260 C.ar      1 1PC        -0.0322
      5 CD        -11.8960  -26.6870  -15.3840 C.ar      1 1PC        -0.0340
      6 CE        -11.6170  -26.9260  -14.0510 C.ar      1 1PC        -0.0322
      7 CF        -10.2900  -27.1930  -13.6110 C.ar      1 1PC        -0.0343
      8 CG         -7.6760  -27.5180  -13.9960 C.3       1 1PC        -0.0135
      9 CH         -6.5630  -26.5590  -14.6380 C.3       1 1PC        -0.0293
     10 CI         -6.9940  -25.1210  -14.3940 C.3       1 1PC        -0.0551
     11 CJ         -6.9050  -24.7740  -12.8920 C.3       1 1PC        -0.0541
     12 CK         -7.7300  -25.7770  -12.0620 C.3       1 1PC        -0.0551
     13 CL         -7.4210  -27.2270  -12.4630 C.3       1 1PC        -0.0293
     14 NM         -7.2300  -29.0100  -14.1940 N.4       1 1PC         0.1961
     15 CN         -8.2710  -30.0700  -13.7270 C.3       1 1PC        -0.0361
     16 CO         -7.7730  -31.5110  -13.9330 C.3       1 1PC        -0.0123
     17 CQ         -6.2590  -30.7550  -15.7650 C.3       1 1PC        -0.0123
     18 CR         -6.7380  -29.3290  -15.6150 C.3       1 1PC        -0.0361
     19 H1         -6.9071  -32.8053  -15.4348 H         1 1PC         0.0269
     20 H2         -8.1932  -31.7103  -16.0458 H         1 1PC         0.0269
     21 H3         -8.6409  -27.0323  -16.6297 H         1 1PC         0.0852
     22 H4        -10.9871  -26.5594  -17.3777 H         1 1PC         0.0698
     23 H5        -12.9055  -26.4718  -15.7151 H         1 1PC         0.0856
     24 H6        -12.4241  -26.9097  -13.3275 H         1 1PC         0.0698
     25 H7        -10.1136  -27.3673  -12.5557 H         1 1PC         0.0852
     26 H8         -6.4841  -26.7480  -15.7188 H         1 1PC         0.0227
     27 H9         -5.5891  -26.7440  -14.1613 H         1 1PC         0.0227
     28 H10        -8.0322  -24.9922  -14.7338 H         1 1PC         0.0260
     29 H11        -6.3363  -24.4454  -14.9606 H         1 1PC         0.0260
     30 H12        -7.2976  -23.7593  -12.7300 H         1 1PC         0.0265
     31 H13        -5.8536  -24.8159  -12.5715 H         1 1PC         0.0265
     32 H14        -8.8001  -25.5813  -12.2251 H         1 1PC         0.0260
     33 H15        -7.4907  -25.6419  -10.9969 H         1 1PC         0.0260
     34 H16        -6.3641  -27.4338  -12.2391 H         1 1PC         0.0227
     35 H17        -8.0596  -27.8974  -11.8691 H         1 1PC         0.0227
     36 H18        -6.4306  -29.1273  -13.5914 H         1 1PC         0.1993
     37 H19        -8.4759  -29.9165  -12.6572 H         1 1PC         0.0815
     38 H20        -9.1986  -29.9312  -14.3016 H         1 1PC         0.0815
     39 H21        -6.9187  -31.6855  -13.2624 H         1 1PC         0.0317
     40 H22        -8.5883  -32.2033  -13.6761 H         1 1PC         0.0317
     41 H23        -5.9793  -30.9227  -16.8155 H         1 1PC         0.0317
     42 H24        -5.3771  -30.8985  -15.1233 H         1 1PC         0.0317
     43 H25        -5.9062  -28.6518  -15.8588 H         1 1PC         0.0815
     44 H26        -7.5661  -29.1610  -16.3192 H         1 1PC         0.0815
@<TRIPOS>BOND
     1    1   17 1  
     2    1   16 1  
     3   16   15 1  
     4   15   14 1  
     5   14   18 1  
     6   14    8 1  
     7    8   13 1  
     8    8    9 1  
     9    8    2 1  
    10    2    7 ar 
    11    2    3 ar 
    12    3    4 ar 
    13    4    5 ar 
    14    5    6 ar 
    15    6    7 ar 
    16    9   10 1  
    17   10   11 1  
    18   11   12 1  
    19   12   13 1  
    20   18   17 1  
    21    1   19 1  
    22    1   20 1  
    23    3   21 1  
    24    4   22 1  
    25    5   23 1  
    26    6   24 1  
    27    7   25 1  
    28    9   26 1  
    29    9   27 1  
    30   10   28 1  
    31   10   29 1  
    32   11   30 1  
    33   11   31 1  
    34   12   32 1  
    35   12   33 1  
    36   13   34 1  
    37   13   35 1  
    38   14   36 1  
    39   15   37 1  
    40   15   38 1  
    41   16   39 1  
    42   16   40 1  
    43   17   41 1  
    44   17   42 1  
    45   18   43 1  
    46   18   44 1  
@<TRIPOS>SUBSTRUCTURE
     1 1PC         1

