### 
### Created by X-TOOL on Mon Sep 10 21:12:55 2018
### 

@<TRIPOS>MOLECULE
2pcu_ligand
   91    92     1     0     0
SMALL
GAST_HUCK


@<TRIPOS>ATOM
      1 N           5.4480   48.4730   24.2180 N.4       1 PHE         0.2394
      2 CA          4.3940   48.7120   23.1890 C.3       1 PHE         0.0744
      3 C           3.0940   49.1270   23.8710 C.2       1 PHE         0.2289
      4 O           2.9430   48.9280   25.0600 O.2       1 PHE        -0.3905
      5 CB          4.1880   47.4530   22.3370 C.3       1 PHE         0.0416
      6 CG          4.0990   46.1790   23.1460 C.ar      1 PHE        -0.0353
      7 CD1         5.2080   45.3500   23.2720 C.ar      1 PHE        -0.0600
      8 CD2         2.9360   45.8500   23.8050 C.ar      1 PHE        -0.0600
      9 CE1         5.1470   44.1880   24.0290 C.ar      1 PHE        -0.0686
     10 CE2         2.8590   44.6900   24.5690 C.ar      1 PHE        -0.0686
     11 CZ          3.9730   43.8710   24.7020 C.ar      1 PHE        -0.0687
     12 N           2.1560   49.6740   23.0910 N.am      1 ASN        -0.2587
     13 CA          0.9010   50.1580   23.6450 C.3       1 ASN         0.1477
     14 C          -0.3100   49.4230   23.1620 C.2       1 ASN         0.2063
     15 O          -1.4200   49.6300   23.6930 O.2       1 ASN        -0.3942
     16 CB          0.7760   51.6560   23.3140 C.3       1 ASN         0.0773
     17 CG          1.8680   52.4640   24.0310 C.2       1 ASN         0.1780
     18 OD1         1.9660   52.4210   25.2570 O.2       1 ASN        -0.3970
     19 ND2         2.7120   53.1310   23.2900 N.am      1 ASN        -0.3007
     20 N          -0.1330   48.5930   22.1380 N.am      1 ARG        -0.2636
     21 CA         -1.2110   47.7250   21.6660 C.3       1 ARG         0.1313
     22 C          -0.6970   46.3000   21.5240 C.2       1 ARG         0.2064
     23 O           0.5110   46.0710   21.4110 O.2       1 ARG        -0.3942
     24 CB         -1.7240   48.1830   20.3150 C.3       1 ARG        -0.0092
     25 CG         -2.0970   49.6760   20.2570 C.3       1 ARG        -0.0156
     26 CD         -3.0080   49.8930   19.0910 C.3       1 ARG         0.0627
     27 NE         -3.1700   51.3200   18.7450 N.pl3     1 ARG        -0.2723
     28 CZ         -4.1020   51.7330   17.8840 C.cat     1 ARG         0.2882
     29 NH1        -5.0080   50.8580   17.4320 N.pl3     1 ARG        -0.2849
     30 NH2        -4.1890   53.0140   17.5080 N.pl3     1 ARG        -0.2849
     31 N          -1.6130   45.3210   21.6270 N.am      1 PRO        -0.2498
     32 CA         -1.1390   43.9470   21.5560 C.3       1 PRO         0.1337
     33 C          -0.5580   43.5540   20.1810 C.2       1 PRO         0.2036
     34 O          -0.8370   44.1680   19.1010 O.2       1 PRO        -0.3944
     35 CB         -2.3770   43.1100   21.9240 C.3       1 PRO        -0.0104
     36 CG         -3.5580   43.9910   21.5440 C.3       1 PRO        -0.0281
     37 CD         -3.0660   45.3890   21.9240 C.3       1 PRO         0.0369
     38 N           0.2690   42.5350   20.2570 N.am      1 VAL        -0.2692
     39 CA          1.1120   42.1370   19.0900 C.3       1 VAL         0.0967
     40 C           0.7400   40.7300   18.5120 C.2       1 VAL         0.0603
     41 O           1.5190   39.9760   17.8900 O.co2     1 VAL        -0.5666
     42 CB          2.6050   42.2590   19.4680 C.3       1 VAL        -0.0118
     43 CG1         3.0020   43.7390   19.5760 C.3       1 VAL        -0.0590
     44 CG2         2.9660   41.4700   20.7540 C.3       1 VAL        -0.0590
     45 OXT        -0.4280   40.3160   18.5520 O.co2     1 VAL        -0.5666
     46 H1          6.3051   48.1991   23.7637 H         1 PHE         0.2017
     47 H2          5.1489   47.7395   24.8413 H         1 PHE         0.2017
     48 H3          5.6020   49.3189   24.7440 H         1 PHE         0.2017
     49 H4          4.7217   49.5297   22.5303 H         1 PHE         0.1122
     50 H5          5.0342   47.3632   21.6400 H         1 PHE         0.0507
     51 H6          3.2542   47.5683   21.7672 H         1 PHE         0.0507
     52 H7          6.1329   45.6146   22.7723 H         1 PHE         0.0557
     53 H8          2.0724   46.5007   23.7279 H         1 PHE         0.0557
     54 H9          6.0082   43.5330   24.0947 H         1 PHE         0.0599
     55 H10         1.9298   44.4253   25.0605 H         1 PHE         0.0599
     56 H11         3.9269   42.9876   25.3286 H         1 PHE         0.0559
     57 H12         2.3203   49.7519   22.1077 H         1 ASN         0.1886
     58 H13         0.9462   50.0400   24.7377 H         1 ASN         0.0826
     59 H14        -0.2114   52.0163   23.6385 H         1 ASN         0.0551
     60 H15         0.8784   51.7955   22.2277 H         1 ASN         0.0551
     61 H16         3.4373   53.6692   23.7192 H         1 ASN         0.1814
     62 H17         2.6328   53.1034   22.2935 H         1 ASN         0.1814
     63 H18         0.7560   48.5619   21.6812 H         1 ARG         0.1883
     64 H19        -2.0349   47.7482   22.3944 H         1 ARG         0.0800
     65 H20        -2.6191   47.5935   20.0675 H         1 ARG         0.0313
     66 H21        -0.9412   47.9932   19.5658 H         1 ARG         0.0313
     67 H22        -1.1868   50.2813   20.1342 H         1 ARG         0.0301
     68 H23        -2.6083   49.9670   21.1864 H         1 ARG         0.0301
     69 H24        -3.9964   49.4770   19.3358 H         1 ARG         0.0689
     70 H25        -2.5938   49.3655   18.2192 H         1 ARG         0.0689
     71 H26        -2.5467   52.0150   19.1801 H         1 ARG         0.2642
     72 H27        -5.7326   51.1641   16.7671 H         1 ARG         0.2615
     73 H28        -4.9807   49.8784   17.7490 H         1 ARG         0.2615
     74 H29        -3.4986   53.6986   17.8481 H         1 ARG         0.2615
     75 H30        -4.9463   53.3156   16.8784 H         1 ARG         0.2615
     76 H31        -0.3512   43.7943   22.3084 H         1 PRO         0.0802
     77 H32        -2.3893   42.8864   23.0009 H         1 PRO         0.0313
     78 H33        -2.3941   42.1694   21.3539 H         1 PRO         0.0313
     79 H34        -4.4575   43.7176   22.1150 H         1 PRO         0.0287
     80 H35        -3.7729   43.9246   20.4673 H         1 PRO         0.0287
     81 H36        -3.5588   46.1611   21.3149 H         1 PRO         0.0524
     82 H37        -3.2429   45.5946   22.9900 H         1 PRO         0.0524
     83 H38         0.3348   42.0177   21.1103 H         1 VAL         0.1875
     84 H39         0.9194   42.8644   18.2876 H         1 VAL         0.0729
     85 H40         3.1884   41.8184   18.6461 H         1 VAL         0.0336
     86 H41         4.0659   43.8145   19.8453 H         1 VAL         0.0234
     87 H42         2.3922   44.2266   20.3508 H         1 VAL         0.0234
     88 H43         2.8324   44.2356   18.6093 H         1 VAL         0.0234
     89 H44         2.6660   40.4184   20.6353 H         1 VAL         0.0234
     90 H45         2.4367   41.9075   21.6133 H         1 VAL         0.0234
     91 H46         4.0512   41.5246   20.9252 H         1 VAL         0.0234
@<TRIPOS>BOND
     1    1    2 1  
     2    2    3 1  
     3    2    5 1  
     4    3    4 2  
     5    3   12 am 
     6    5    6 1  
     7    6    7 ar 
     8    6    8 ar 
     9    7    9 ar 
    10    8   10 ar 
    11    9   11 ar 
    12   10   11 ar 
    13   12   13 1  
    14   13   14 1  
    15   13   16 1  
    16   14   15 2  
    17   14   20 am 
    18   16   17 1  
    19   17   18 2  
    20   17   19 am 
    21   20   21 1  
    22   21   22 1  
    23   21   24 1  
    24   22   23 2  
    25   22   31 am 
    26   24   25 1  
    27   25   26 1  
    28   26   27 1  
    29   27   28 ar 
    30   28   29 ar 
    31   28   30 ar 
    32   31   32 1  
    33   31   37 1  
    34   32   33 1  
    35   32   35 1  
    36   33   34 2  
    37   33   38 am 
    38   35   36 1  
    39   36   37 1  
    40   38   39 1  
    41   39   40 1  
    42   39   42 1  
    43   40   41 ar 
    44   40   45 ar 
    45   42   43 1  
    46   42   44 1  
    47    1   46 1  
    48    1   47 1  
    49    1   48 1  
    50    2   49 1  
    51    5   50 1  
    52    5   51 1  
    53    7   52 1  
    54    8   53 1  
    55    9   54 1  
    56   10   55 1  
    57   11   56 1  
    58   12   57 1  
    59   13   58 1  
    60   16   59 1  
    61   16   60 1  
    62   19   61 1  
    63   19   62 1  
    64   20   63 1  
    65   21   64 1  
    66   24   65 1  
    67   24   66 1  
    68   25   67 1  
    69   25   68 1  
    70   26   69 1  
    71   26   70 1  
    72   27   71 1  
    73   29   72 1  
    74   29   73 1  
    75   30   74 1  
    76   30   75 1  
    77   32   76 1  
    78   35   77 1  
    79   35   78 1  
    80   36   79 1  
    81   36   80 1  
    82   37   81 1  
    83   37   82 1  
    84   38   83 1  
    85   39   84 1  
    86   42   85 1  
    87   43   86 1  
    88   43   87 1  
    89   43   88 1  
    90   44   89 1  
    91   44   90 1  
    92   44   91 1  
@<TRIPOS>SUBSTRUCTURE
     1 PHE         1

