### 
### Created by X-TOOL on Mon Sep 10 21:12:56 2018
### 

@<TRIPOS>MOLECULE
2pe0_ligand
   30    32     1     0     0
SMALL
GAST_HUCK


@<TRIPOS>ATOM
      1 C3         -8.1570   41.3290   44.3300 C.2       1 39Z         0.2009
      2 C5         -7.0000   42.1150   44.4040 C.2       1 39Z         0.0369
      3 C6         -8.7520   43.2870   43.5880 C.ar      1 39Z         0.0538
      4 C7         -7.3780   43.3830   43.9220 C.ar      1 39Z        -0.0188
      5 C8         -6.7040   44.6130   43.7320 C.ar      1 39Z        -0.0492
      6 C9         -7.3910   45.7240   43.2210 C.ar      1 39Z         0.0655
      7 C10        -8.7540   45.6240   42.8960 C.ar      1 39Z        -0.0520
      8 C11        -9.4330   44.4080   43.0790 C.ar      1 39Z        -0.0546
      9 C19        -5.6870   41.7280   44.8960 C.2       1 39Z        -0.0025
     10 C20        -4.5610   42.7820   45.0010 C.3       1 39Z        -0.0223
     11 C21        -5.3620   40.4090   45.3170 C.2       1 39Z         0.0727
     12 O4         -8.2660   40.1560   44.6670 O.2       1 39Z        -0.3947
     13 N1         -9.1720   42.0430   43.8450 N.am      1 39Z        -0.2484
     14 O12        -6.7310   46.8910   43.0200 O.3       1 39Z        -0.3445
     15 C26        -4.1840   40.0240   45.8230 C.2       1 39Z        -0.0606
     16 C25        -4.2480   38.7250   46.1130 C.2       1 39Z        -0.0665
     17 C24        -5.4630   38.2960   45.7900 C.2       1 39Z         0.0276
     18 N22        -6.1460   39.3290   45.3010 N.pl3     1 39Z        -0.2789
     19 H1         -5.6526   44.6968   43.9824 H         1 39Z         0.0436
     20 H2         -9.2820   46.4856   42.5038 H         1 39Z         0.0460
     21 H3        -10.4847   44.3331   42.8273 H         1 39Z         0.0463
     22 H4         -4.9349   43.7544   44.6479 H         1 39Z         0.0437
     23 H5         -3.7078   42.4701   44.3808 H         1 39Z         0.0437
     24 H6         -4.2392   42.8716   46.0490 H         1 39Z         0.0437
     25 H7        -10.1006   41.7029   43.6966 H         1 39Z         0.2201
     26 H8         -6.7656   47.1184   42.0982 H         1 39Z         0.2430
     27 H9         -3.3172   40.6659   45.9728 H         1 39Z         0.0421
     28 H10        -3.4470   38.1225   46.5389 H         1 39Z         0.0348
     29 H11        -5.8348   37.2789   45.9049 H         1 39Z         0.0941
     30 H12        -7.1194   39.2995   44.9655 H         1 39Z         0.2343
@<TRIPOS>BOND
     1    1    2 1  
     2    1   12 2  
     3    1   13 am 
     4    2    4 1  
     5    2    9 2  
     6    4    3 ar 
     7    3    8 ar 
     8    3   13 1  
     9    4    5 ar 
    10    5    6 ar 
    11    6    7 ar 
    12    6   14 1  
    13    7    8 ar 
    14    9   10 1  
    15    9   11 1  
    16   11   15 2  
    17   11   18 1  
    18   15   16 1  
    19   16   17 2  
    20   17   18 1  
    21    5   19 1  
    22    7   20 1  
    23    8   21 1  
    24   10   22 1  
    25   10   23 1  
    26   10   24 1  
    27   13   25 1  
    28   14   26 1  
    29   15   27 1  
    30   16   28 1  
    31   17   29 1  
    32   18   30 1  
@<TRIPOS>SUBSTRUCTURE
     1 39Z         1

