### 
### Created by X-TOOL on Mon Sep 10 21:12:56 2018
### 

@<TRIPOS>MOLECULE
2pe1_ligand
   37    39     1     0     0
SMALL
GAST_HUCK


@<TRIPOS>ATOM
      1 N22        -6.2660   39.9610   45.5570 N.pl3     1 517        -0.2931
      2 C24        -5.6210   38.8900   46.0160 C.2       1 517         0.0024
      3 C25        -4.3960   39.2650   46.3560 C.2       1 517        -0.0987
      4 C26        -4.2810   40.5660   46.1090 C.2       1 517        -0.0882
      5 C21        -5.4440   41.0110   45.6130 C.2       1 517         0.0387
      6 C19        -5.7280   42.3580   45.2500 C.3       1 517         0.0353
      7 C20        -4.5770   43.3720   45.4190 C.3       1 517        -0.0474
      8 C5         -7.0250   42.8040   44.7640 C.3       1 517         0.0928
      9 C7         -7.3500   44.0880   44.2770 C.ar      1 517        -0.0083
     10 C8         -6.6320   45.2930   44.0860 C.ar      1 517        -0.0489
     11 C3         -8.2100   42.0570   44.6680 C.2       1 517         0.2102
     12 O4         -8.3810   40.8940   45.0330 O.2       1 517        -0.3902
     13 N1         -9.1860   42.8070   44.1620 N.am      1 517        -0.2431
     14 C6         -8.7150   44.0350   43.9110 C.ar      1 517         0.0584
     15 C11        -9.3400   45.1670   43.3640 C.ar      1 517        -0.0584
     16 C10        -8.6180   46.3540   43.1740 C.ar      1 517        -0.0598
     17 C9         -7.2540   46.4280   43.5320 C.ar      1 517         0.0462
     18 N12        -6.5180   47.5590   43.3850 N.am      1 517        -0.2293
     19 C14        -6.9310   48.7370   42.8500 C.2       1 517         0.2807
     20 O15        -8.0480   48.9110   42.3490 O.2       1 517        -0.3922
     21 N16        -6.0270   49.7080   42.8300 N.am      1 517        -0.2824
     22 H1         -7.2376   39.9764   45.2156 H         1 517         0.2312
     23 H2         -6.0284   37.8834   46.0976 H         1 517         0.0707
     24 H3         -3.6199   38.6203   46.7658 H         1 517         0.0244
     25 H4         -3.3909   41.1694   46.2809 H         1 517         0.0174
     26 H5         -5.4201   42.1503   44.2146 H         1 517         0.0517
     27 H6         -3.6827   42.8524   45.7936 H         1 517         0.0257
     28 H7         -4.8763   44.1502   46.1364 H         1 517         0.0257
     29 H8         -4.3515   43.8360   44.4475 H         1 517         0.0257
     30 H9         -7.2569   43.0985   45.7981 H         1 517         0.0704
     31 H10        -5.5872   45.3426   44.3707 H         1 517         0.0409
     32 H11       -10.1235   42.5015   43.9955 H         1 517         0.2207
     33 H12       -10.3871   45.1231   43.0869 H         1 517         0.0453
     34 H13        -9.1105   47.2212   42.7492 H         1 517         0.0417
     35 H14        -5.5712   47.5208   43.7045 H         1 517         0.2207
     36 H15        -6.2624   50.6026   42.4502 H         1 517         0.1814
     37 H16        -5.1102   49.5452   43.1948 H         1 517         0.1814
@<TRIPOS>BOND
     1    1    2 1  
     2    1    5 1  
     3    2    3 2  
     4    3    4 1  
     5    4    5 2  
     6    5    6 1  
     7    6    7 1  
     8    6    8 1  
     9    8    9 1  
    10    8   11 1  
    11    9   10 ar 
    12    9   14 ar 
    13   10   17 ar 
    14   11   12 2  
    15   11   13 am 
    16   13   14 1  
    17   14   15 ar 
    18   15   16 ar 
    19   16   17 ar 
    20   17   18 1  
    21   18   19 am 
    22   19   20 2  
    23   19   21 am 
    24    1   22 1  
    25    2   23 1  
    26    3   24 1  
    27    4   25 1  
    28    6   26 1  
    29    7   27 1  
    30    7   28 1  
    31    7   29 1  
    32    8   30 1  
    33   10   31 1  
    34   13   32 1  
    35   15   33 1  
    36   16   34 1  
    37   18   35 1  
    38   21   36 1  
    39   21   37 1  
@<TRIPOS>SUBSTRUCTURE
     1 517         1

