### 
### Created by X-TOOL on Mon Sep 10 21:12:55 2018
### 

@<TRIPOS>MOLECULE
2pe2_ligand
   68    72     1     0     0
SMALL
GAST_HUCK


@<TRIPOS>ATOM
      1 C38         1.1440   31.2170   44.3120 C.3       1 464        -0.0318
      2 C39         2.6280   31.2050   43.9080 C.3       1 464        -0.0123
      3 C40         3.2450   32.5930   44.1170 C.3       1 464        -0.0434
      4 C41         2.4450   33.6550   43.3510 C.3       1 464        -0.0123
      5 C42         0.9620   33.6150   43.7690 C.3       1 464        -0.0318
      6 N37         0.4190   32.2540   43.5250 N.4       1 464         0.2367
      7 C36        -1.0520   32.1800   43.7810 C.3       1 464        -0.0113
      8 C35        -1.4390   32.3450   45.2690 C.3       1 464         0.0703
      9 N33        -1.5920   33.7690   45.6290 N.am      1 464        -0.2811
     10 C31        -0.9780   34.3160   46.6830 C.2       1 464         0.2041
     11 O32        -0.2190   33.6930   47.4300 O.2       1 464        -0.3847
     12 C29        -1.2600   35.8190   46.9210 C.ar      1 464         0.0454
     13 C30        -2.3910   36.4540   46.3500 C.ar      1 464        -0.0416
     14 C28        -0.3830   36.5580   47.7320 C.ar      1 464        -0.0465
     15 C27        -0.6180   37.9190   47.9730 C.ar      1 464        -0.0609
     16 C26        -1.7360   38.5530   47.4060 C.ar      1 464        -0.0574
     17 C25        -2.6340   37.8320   46.5930 C.ar      1 464        -0.0303
     18 C23        -3.7900   38.4780   46.0910 C.2       1 464        -0.0165
     19 C24        -3.9020   39.7800   45.7790 C.2       1 464        -0.0518
     20 C22        -4.9780   37.9120   45.8550 C.2       1 464         0.0424
     21 N20        -5.8110   38.8550   45.4150 N.pl3     1 464        -0.2747
     22 C19        -5.1510   40.0140   45.3690 C.2       1 464         0.0655
     23 C18        -5.5220   41.3200   44.9860 C.2       1 464        -0.0215
     24 C4         -6.8170   41.7080   44.5450 C.2       1 464         0.0401
     25 C6         -7.1580   42.9910   44.1410 C.ar      1 464        -0.0126
     26 C7         -6.4210   44.1840   43.9780 C.ar      1 464        -0.0519
     27 C2         -7.9630   40.9250   44.4060 C.2       1 464         0.2143
     28 O3         -8.0640   39.7220   44.6650 O.2       1 464        -0.3825
     29 N1         -8.9680   41.6810   43.9450 N.am      1 464        -0.2454
     30 C5         -8.5210   42.9410   43.7690 C.ar      1 464         0.0556
     31 C10        -9.1400   44.0890   43.2470 C.ar      1 464        -0.0546
     32 C9         -8.3990   45.2780   43.0750 C.ar      1 464        -0.0556
     33 C8         -7.0290   45.3320   43.4310 C.ar      1 464         0.0488
     34 N11        -6.2530   46.4360   43.2340 N.am      1 464        -0.2289
     35 C13        -6.6340   47.6230   42.6920 C.2       1 464         0.2805
     36 O17        -7.7610   47.8370   42.2280 O.2       1 464        -0.3923
     37 N14        -5.6870   48.5530   42.6200 N.am      1 464        -0.2824
     38 H1          1.0586   31.4456   45.3846 H         1 464         0.0814
     39 H2          0.7021   30.2299   44.1111 H         1 464         0.0814
     40 H3          2.7137   30.9253   42.8476 H         1 464         0.0317
     41 H4          3.1668   30.4712   44.5255 H         1 464         0.0317
     42 H5          4.2825   32.5873   43.7514 H         1 464         0.0269
     43 H6          3.2355   32.8361   45.1898 H         1 464         0.0269
     44 H7          2.5227   33.4588   42.2715 H         1 464         0.0317
     45 H8          2.8576   34.6501   43.5735 H         1 464         0.0317
     46 H9          0.3939   34.3485   43.1781 H         1 464         0.0814
     47 H10         0.8750   33.8589   44.8381 H         1 464         0.0814
     48 H11         0.5645   32.0476   42.5492 H         1 464         0.2034
     49 H12        -1.4147   31.2007   43.4356 H         1 464         0.0834
     50 H13        -1.5442   32.9774   43.2049 H         1 464         0.0834
     51 H14        -0.6521   31.8997   45.8954 H         1 464         0.0573
     52 H15        -2.3910   31.8251   45.4514 H         1 464         0.0573
     53 H16        -2.1783   34.3472   45.0617 H         1 464         0.1847
     54 H17        -3.0722   35.8866   45.7263 H         1 464         0.0632
     55 H18         0.4801   36.0734   48.1739 H         1 464         0.0630
     56 H19         0.0645   38.4833   48.5982 H         1 464         0.0616
     57 H20        -1.9097   39.6061   47.5953 H         1 464         0.0614
     58 H21        -3.1069   40.5208   45.8488 H         1 464         0.0415
     59 H22        -5.2232   36.8606   45.9978 H         1 464         0.1002
     60 H23        -6.7974   38.7131   45.1545 H         1 464         0.2365
     61 H24        -4.7557   42.0925   45.0317 H         1 464         0.0714
     62 H25        -5.3793   44.2174   44.2759 H         1 464         0.0425
     63 H26        -9.8981   41.3629   43.7613 H         1 464         0.2202
     64 H27       -10.1891   44.0616   42.9757 H         1 464         0.0466
     65 H28        -8.8828   46.1579   42.6667 H         1 464         0.0454
     66 H29        -5.2975   46.3644   43.5201 H         1 464         0.2204
     67 H30        -5.8963   49.4508   42.2324 H         1 464         0.1814
     68 H31        -4.7653   48.3549   42.9534 H         1 464         0.1814
@<TRIPOS>BOND
     1    1    2 1  
     2    1    6 1  
     3    2    3 1  
     4    3    4 1  
     5    4    5 1  
     6    5    6 1  
     7    6    7 1  
     8    7    8 1  
     9    8    9 1  
    10    9   10 am 
    11   10   11 2  
    12   10   12 1  
    13   12   13 ar 
    14   12   14 ar 
    15   13   17 ar 
    16   14   15 ar 
    17   15   16 ar 
    18   16   17 ar 
    19   17   18 1  
    20   18   19 1  
    21   18   20 2  
    22   19   22 2  
    23   20   21 1  
    24   21   22 1  
    25   22   23 1  
    26   23   24 2  
    27   24   25 1  
    28   24   27 1  
    29   25   26 ar 
    30   25   30 ar 
    31   26   33 ar 
    32   27   28 2  
    33   27   29 am 
    34   29   30 1  
    35   30   31 ar 
    36   31   32 ar 
    37   32   33 ar 
    38   33   34 1  
    39   34   35 am 
    40   35   36 2  
    41   35   37 am 
    42    1   38 1  
    43    1   39 1  
    44    2   40 1  
    45    2   41 1  
    46    3   42 1  
    47    3   43 1  
    48    4   44 1  
    49    4   45 1  
    50    5   46 1  
    51    5   47 1  
    52    6   48 1  
    53    7   49 1  
    54    7   50 1  
    55    8   51 1  
    56    8   52 1  
    57    9   53 1  
    58   13   54 1  
    59   14   55 1  
    60   15   56 1  
    61   16   57 1  
    62   19   58 1  
    63   20   59 1  
    64   21   60 1  
    65   23   61 1  
    66   26   62 1  
    67   29   63 1  
    68   31   64 1  
    69   32   65 1  
    70   34   66 1  
    71   37   67 1  
    72   37   68 1  
@<TRIPOS>SUBSTRUCTURE
     1 464         1

