### 
### Created by X-TOOL on Fri Sep 26 17:34:35 2014
### 

@<TRIPOS>MOLECULE
2pfy_ligand
   15    15     1     0     0
SMALL
GAST_HUCK


@<TRIPOS>ATOM
      1 N          55.4050   92.9630    6.0260 N.am      1 PCA        -0.2712
      2 CA         54.7250   93.9080    6.9430 C.3       1 PCA         0.0964
      3 CB         53.6390   93.1840    7.7000 C.3       1 PCA        -0.0010
      4 CG         53.7230   91.7470    7.2800 C.3       1 PCA         0.0410
      5 CD         54.7950   91.6980    6.2430 C.2       1 PCA         0.1778
      6 OE         55.0890   90.6930    5.6040 O.2       1 PCA        -0.3970
      7 C          55.7240   94.5110    7.9110 C.2       1 PCA         0.0602
      8 O          55.4820   95.4960    8.6190 O.co2     1 PCA        -0.5666
      9 OXT        56.8240   93.9960    7.9930 O.co2     1 PCA        -0.5666
     10 H1         56.1431   93.1729    5.3848 H         1 PCA         0.1875
     11 H2         54.2710   94.7165    6.3513 H         1 PCA         0.0727
     12 H3         52.6533   93.5993    7.4432 H         1 PCA         0.0330
     13 H4         53.8041   93.2747    8.7837 H         1 PCA         0.0330
     14 H5         52.7638   91.4130    6.8577 H         1 PCA         0.0504
     15 H6         53.9877   91.1105    8.1372 H         1 PCA         0.0504
@<TRIPOS>BOND
     1    1    2 1  
     2    1    5 am 
     3    2    3 1  
     4    2    7 1  
     5    3    4 1  
     6    4    5 1  
     7    5    6 2  
     8    7    8 ar 
     9    7    9 ar 
    10    1   10 1  
    11    2   11 1  
    12    3   12 1  
    13    3   13 1  
    14    4   14 1  
    15    4   15 1  
@<TRIPOS>SUBSTRUCTURE
     1 PCA         1

