### 
### Created by X-TOOL on Mon Sep 10 21:12:56 2018
### 

@<TRIPOS>MOLECULE
2pg2_ligand
   46    48     1     0     0
SMALL
GAST_HUCK


@<TRIPOS>ATOM
      1 O21        30.7710   14.1460   13.4240 O.2       1 K01        -0.3767
      2 C15        30.3480   13.5460   14.3590 C.2       1 K01         0.2421
      3 C16        31.0580   12.8710   15.4850 C.2       1 K01         0.1074
      4 S17        32.7830   12.9520   15.3570 S.3       1 K01        -0.0253
      5 C18        33.0400   12.0200   16.7840 C.2       1 K01         0.0009
      6 C19        31.7890   11.6950   17.3150 C.2       1 K01        -0.0665
      7 C20        30.6510   12.1390   16.6230 C.2       1 K01        -0.0545
      8 N14        29.0820   13.6140   14.4480 N.am      1 K01        -0.2156
      9 C13        28.1390   14.0770   13.5770 C.2       1 K01         0.1423
     10 S12        27.8830   13.4590   12.0100 S.3       1 K01        -0.0188
     11 C7         26.5550   14.5530   11.7220 C.2       1 K01        -0.0092
     12 C6         26.3240   15.3400   12.8480 C.2       1 K01        -0.0712
     13 C11        25.2260   16.3690   12.8850 C.3       1 K01        -0.0418
     14 C10        24.7240   16.6640   11.4420 C.3       1 K01        -0.0475
     15 C9         25.3540   15.9960   10.2040 C.3       1 K01        -0.0460
     16 C8         25.7720   14.5160   10.4290 C.3       1 K01        -0.0259
     17 C5         27.2460   15.0980   13.8800 C.2       1 K01         0.0409
     18 C4         26.9620   15.8310   15.1570 C.2       1 K01         0.1662
     19 O22        26.0490   16.5220   15.1490 O.2       1 K01        -0.4121
     20 N3         27.6240   16.2330   16.1880 N.am      1 K01        -0.2816
     21 C2         28.7520   15.6290   15.8900 C.3       1 K01         0.0292
     22 C1         29.3760   17.1010   15.1840 C.3       1 K01        -0.0449
     23 C23        27.7060   16.7560   17.5290 C.3       1 K01         0.0292
     24 C24        28.3940   15.6740   18.3140 C.3       1 K01        -0.0449
     25 H1         34.0060   11.7350   17.1983 H         1 K01         0.0800
     26 H2         31.6999   11.1173   18.2338 H         1 K01         0.0437
     27 H3         29.6195   11.9495   16.9164 H         1 K01         0.0514
     28 H4         28.7110   13.2665   15.3092 H         1 K01         0.2358
     29 H5         25.6111   17.2967   13.3334 H         1 K01         0.0349
     30 H6         24.3903   15.9884   13.4906 H         1 K01         0.0349
     31 H7         24.8318   17.7487   11.2945 H         1 K01         0.0281
     32 H8         23.6572   16.3961   11.4266 H         1 K01         0.0281
     33 H9         26.2489   16.5688    9.9195 H         1 K01         0.0283
     34 H10        24.6221   16.0279    9.3835 H         1 K01         0.0283
     35 H11        24.8872   13.8696   10.5254 H         1 K01         0.0373
     36 H12        26.4004   14.1564    9.6009 H         1 K01         0.0373
     37 H13        28.6401   14.8023   15.1730 H         1 K01         0.0517
     38 H14        29.3169   15.2799   16.7669 H         1 K01         0.0517
     39 H15        30.3933   16.9234   14.8052 H         1 K01         0.0249
     40 H16        29.4022   17.8918   15.9481 H         1 K01         0.0249
     41 H17        28.7253   17.4142   14.3542 H         1 K01         0.0249
     42 H18        26.7013   16.9501   17.9327 H         1 K01         0.0517
     43 H19        28.2949   17.6849   17.5487 H         1 K01         0.0517
     44 H20        28.4998   15.9920   19.3617 H         1 K01         0.0249
     45 H21        29.3896   15.4866   17.8854 H         1 K01         0.0249
     46 H22        27.7960   14.7518   18.2694 H         1 K01         0.0249
@<TRIPOS>BOND
     1    1    2 2  
     2    2    3 1  
     3    2    8 am 
     4    3    4 1  
     5    3    7 2  
     6    4    5 1  
     7    5    6 2  
     8    6    7 1  
     9    8    9 1  
    10    9   10 1  
    11    9   17 2  
    12   10   11 1  
    13   11   12 2  
    14   11   16 1  
    15   12   13 1  
    16   12   17 1  
    17   13   14 1  
    18   14   15 1  
    19   15   16 1  
    20   17   18 1  
    21   18   19 2  
    22   18   20 am 
    23   20   21 1  
    24   20   23 1  
    25   21   22 1  
    26   23   24 1  
    27    5   25 1  
    28    6   26 1  
    29    7   27 1  
    30    8   28 1  
    31   13   29 1  
    32   13   30 1  
    33   14   31 1  
    34   14   32 1  
    35   15   33 1  
    36   15   34 1  
    37   16   35 1  
    38   16   36 1  
    39   21   37 1  
    40   21   38 1  
    41   22   39 1  
    42   22   40 1  
    43   22   41 1  
    44   23   42 1  
    45   23   43 1  
    46   24   44 1  
    47   24   45 1  
    48   24   46 1  
@<TRIPOS>SUBSTRUCTURE
     1 K01         1

