### 
### Created by X-TOOL on Mon Sep 10 21:12:55 2018
### 

@<TRIPOS>MOLECULE
2pgz_ligand
   44    46     1     0     0
SMALL
GAST_HUCK


@<TRIPOS>ATOM
      1 C1        -10.1970   19.6950   59.8270 C.3       1 COC         0.0658
      2 O5        -10.0460   19.6920   61.2510 O.3       1 COC        -0.2797
      3 C6        -11.1460   20.0610   62.0940 C.2       1 COC         0.2449
      4 O7        -12.1900   20.4570   61.5530 O.2       1 COC        -0.3698
      5 C8        -10.9530   19.9740   63.5840 C.3       1 COC         0.1329
      6 C10       -11.8090   18.8400   64.1840 C.3       1 COC         0.0033
      7 N12       -13.1920   19.2620   64.2010 N.4       1 COC         0.2395
      8 C14       -14.2670   18.3950   63.7470 C.3       1 COC        -0.0424
      9 C18       -11.7340   18.8160   65.7220 C.3       1 COC        -0.0019
     10 C21       -12.7430   19.8540   66.2540 C.3       1 COC        -0.0043
     11 C24       -13.4590   20.4290   65.0160 C.3       1 COC        -0.0176
     12 C26       -12.7230   21.6400   64.4100 C.3       1 COC         0.0237
     13 C29       -11.2220   21.3460   64.2150 C.3       1 COC         0.1176
     14 O1        -10.6710   22.2890   63.3320 O.3       1 COC        -0.2709
     15 C2         -9.9120   23.3200   63.9810 C.2       1 COC         0.2636
     16 O3         -9.7320   23.2940   65.1880 O.2       1 COC        -0.3568
     17 C4         -9.4450   24.4380   63.1070 C.ar      1 COC         0.0620
     18 C5         -8.5990   25.4320   63.5990 C.ar      1 COC        -0.0406
     19 C7         -8.2190   26.4610   62.7490 C.ar      1 COC        -0.0559
     20 C9         -8.6730   26.5090   61.4290 C.ar      1 COC        -0.0573
     21 C11        -9.5300   25.5310   60.9420 C.ar      1 COC        -0.0559
     22 C13        -9.9130   24.4880   61.7880 C.ar      1 COC        -0.0406
     23 H1         -9.2516   19.3857   59.3574 H         1 COC         0.0577
     24 H2        -10.4605   20.7078   59.4883 H         1 COC         0.0577
     25 H3        -10.9948   18.9937   59.5414 H         1 COC         0.0577
     26 H4         -9.8995   19.7229   63.7765 H         1 COC         0.0640
     27 H5        -11.6102   17.8754   63.6941 H         1 COC         0.0882
     28 H6        -13.1418   19.7678   63.3305 H         1 COC         0.2038
     29 H7        -15.2287   18.9192   63.8490 H         1 COC         0.0778
     30 H8        -14.2820   17.4795   64.3566 H         1 COC         0.0778
     31 H9        -14.1038   18.1304   62.6919 H         1 COC         0.0778
     32 H10       -10.7178   19.0773   66.0522 H         1 COC         0.0323
     33 H11       -11.9945   17.8144   66.0947 H         1 COC         0.0323
     34 H12       -12.2176   20.6537   66.7966 H         1 COC         0.0322
     35 H13       -13.4690   19.3715   66.9248 H         1 COC         0.0322
     36 H14       -14.5245   20.6506   65.1756 H         1 COC         0.0852
     37 H15       -12.8342   22.5011   65.0854 H         1 COC         0.0350
     38 H16       -13.1706   21.8792   63.4341 H         1 COC         0.0350
     39 H17       -10.7211   21.4036   65.1926 H         1 COC         0.0681
     40 H18        -8.2459   25.4013   64.6234 H         1 COC         0.0672
     41 H19        -7.5596   27.2396   63.1152 H         1 COC         0.0630
     42 H20        -8.3538   27.3161   60.7796 H         1 COC         0.0654
     43 H21        -9.8955   25.5763   59.9225 H         1 COC         0.0630
     44 H22       -10.5762   23.7128   61.4217 H         1 COC         0.0672
@<TRIPOS>BOND
     1    1    2 1  
     2    2    3 1  
     3    3    4 2  
     4    3    5 1  
     5    5    6 1  
     6    5   13 1  
     7    6    7 1  
     8    6    9 1  
     9    7    8 1  
    10    7   11 1  
    11    9   10 1  
    12   10   11 1  
    13   11   12 1  
    14   12   13 1  
    15   13   14 1  
    16   14   15 1  
    17   15   16 2  
    18   15   17 1  
    19   17   18 ar 
    20   17   22 ar 
    21   18   19 ar 
    22   19   20 ar 
    23   20   21 ar 
    24   21   22 ar 
    25    1   23 1  
    26    1   24 1  
    27    1   25 1  
    28    5   26 1  
    29    6   27 1  
    30    7   28 1  
    31    8   29 1  
    32    8   30 1  
    33    8   31 1  
    34    9   32 1  
    35    9   33 1  
    36   10   34 1  
    37   10   35 1  
    38   11   36 1  
    39   12   37 1  
    40   12   38 1  
    41   13   39 1  
    42   18   40 1  
    43   19   41 1  
    44   20   42 1  
    45   21   43 1  
    46   22   44 1  
@<TRIPOS>SUBSTRUCTURE
     1 COC         1

