### 
### Created by X-TOOL on Mon Sep 10 21:12:55 2018
### 

@<TRIPOS>MOLECULE
2ph6_ligand
   71    73     1     0     0
SMALL
GAST_HUCK


@<TRIPOS>ATOM
      1 C          31.0490   37.5600    2.4680 C.3       1 712         0.0856
      2 N          30.9790   38.3830    3.7150 N.4       1 712         0.2241
      3 C1         30.0370   38.0530    1.4510 C.2       1 712         0.3116
      4 O          29.7700   39.3470    1.6340 O.3       1 712        -0.2600
      5 O2         29.6890   37.4030    0.4750 O.2       1 712        -0.3055
      6 C3         30.6300   36.1510    2.9050 C.3       1 712        -0.0085
      7 C4         32.4580   37.6230    1.8490 C.3       1 712         0.0350
      8 C5         32.9990   38.9670    1.3980 C.ar      1 712        -0.0384
      9 C6         33.7240   39.7720    2.2770 C.ar      1 712        -0.0603
     10 C7         33.9920   41.4690    0.5720 C.ar      1 712        -0.0687
     11 C8         33.2620   40.6680   -0.3130 C.ar      1 712        -0.0686
     12 C9         34.2200   41.0170    1.8740 C.ar      1 712        -0.0686
     13 C10        32.7730   39.4250    0.0980 C.ar      1 712        -0.0603
     14 C11        28.4770   44.2060    0.9870 C.ar      1 712        -0.0324
     15 C12        29.6870   43.6240    1.4080 C.ar      1 712         0.0280
     16 C13        29.8630   42.2310    1.3270 C.ar      1 712        -0.0553
     17 C14        28.8240   41.4310    0.8380 C.ar      1 712        -0.0236
     18 C15        27.6390   42.0270    0.4340 C.ar      1 712        -0.0378
     19 C16        27.4410   43.3970    0.4940 C.ar      1 712         0.0636
     20 N17        26.2370   43.8610    0.0710 N.am      1 712        -0.1822
     21 C18        30.7580   44.5390    1.9230 C.2       1 712         0.2015
     22 N19        31.4770   44.0530    2.9480 N.am      1 712        -0.2730
     23 O20        30.9440   45.6330    1.3780 O.2       1 712        -0.3846
     24 S          25.3650   44.9530    1.0160 S.o2      1 712         0.0592
     25 C21        25.7200   46.4950    0.3630 C.3       1 712         0.0790
     26 O22        25.9870   44.8720    2.5750 O.2       1 712        -0.1500
     27 O23        23.7320   44.6620    0.7530 O.2       1 712        -0.1500
     28 C24        25.6280   43.3780   -1.1780 C.3       1 712         0.0443
     29 C25        32.5530   44.7780    3.5960 C.3       1 712         0.0705
     30 C26        32.1110   45.3510    4.9220 C.ar      1 712        -0.0221
     31 C27        31.7390   44.4960    5.9720 C.ar      1 712        -0.0598
     32 C28        31.3290   46.3860    7.3800 C.ar      1 712         0.1248
     33 C29        31.6810   47.2490    6.3470 C.ar      1 712        -0.0348
     34 C30        31.3460   45.0050    7.2110 C.ar      1 712        -0.0348
     35 C31        32.0790   46.7320    5.1210 C.ar      1 712        -0.0598
     36 C32        33.8360   43.9330    3.7060 C.3       1 712        -0.0325
     37 F          30.9570   46.9100    8.5590 F         1 712        -0.1893
     38 C33        28.8840   39.9350    0.6670 C.3       1 712         0.1072
     39 H1         31.6563   38.0437    4.3800 H         1 712         0.1999
     40 H2         30.0549   38.3140    4.1117 H         1 712         0.1999
     41 H3         31.1787   39.3459    3.4937 H         1 712         0.1999
     42 H4         30.6548   35.4754    2.0372 H         1 712         0.0276
     43 H5         29.6102   36.1826    3.3160 H         1 712         0.0276
     44 H6         31.3245   35.7842    3.6751 H         1 712         0.0276
     45 H7         32.4539   36.9642    0.9681 H         1 712         0.0471
     46 H8         33.1587   37.2278    2.5992 H         1 712         0.0471
     47 H9         33.9061   39.4275    3.2886 H         1 712         0.0557
     48 H10        34.3766   42.4302    0.2507 H         1 712         0.0559
     49 H11        33.0747   41.0136   -1.3232 H         1 712         0.0599
     50 H12        34.7802   41.6297    2.5710 H         1 712         0.0599
     51 H13        32.2134   38.8109   -0.5983 H         1 712         0.0557
     52 H14        28.3447   45.2804    1.0434 H         1 712         0.0478
     53 H15        30.7973   41.7799    1.6413 H         1 712         0.0466
     54 H16        26.8394   41.3990    0.0580 H         1 712         0.0452
     55 H17        31.2575   43.1372    3.2842 H         1 712         0.1874
     56 H18        25.1821   47.2671    0.9327 H         1 712         0.0487
     57 H19        25.4035   46.5290   -0.6899 H         1 712         0.0487
     58 H20        26.8025   46.6798    0.4267 H         1 712         0.0487
     59 H21        26.3163   42.6785   -1.6749 H         1 712         0.0518
     60 H22        25.4292   44.2314   -1.8430 H         1 712         0.0518
     61 H23        24.6832   42.8629   -0.9500 H         1 712         0.0518
     62 H24        32.7961   45.6331    2.9482 H         1 712         0.0708
     63 H25        31.7573   43.4232    5.8179 H         1 712         0.0548
     64 H26        31.6447   48.3217    6.4986 H         1 712         0.0587
     65 H27        31.0616   44.3419    8.0200 H         1 712         0.0587
     66 H28        32.3650   47.4016    4.3180 H         1 712         0.0548
     67 H29        34.6215   44.5219    4.2022 H         1 712         0.0273
     68 H30        34.1736   43.6462    2.6992 H         1 712         0.0273
     69 H31        33.6293   43.0275    4.2953 H         1 712         0.0273
     70 H32        27.8757   39.5160    0.7997 H         1 712         0.0774
     71 H33        29.2478   39.7018   -0.3445 H         1 712         0.0774
@<TRIPOS>BOND
     1    1    2 1  
     2    3    1 1  
     3    1    6 1  
     4    1    7 1  
     5    4    3 1  
     6    3    5 2  
     7   38    4 1  
     8    7    8 1  
     9    8    9 ar 
    10    8   13 ar 
    11    9   12 ar 
    12   11   10 ar 
    13   12   10 ar 
    14   13   11 ar 
    15   15   14 ar 
    16   14   19 ar 
    17   15   16 ar 
    18   21   15 1  
    19   16   17 ar 
    20   17   18 ar 
    21   17   38 1  
    22   19   18 ar 
    23   19   20 1  
    24   20   24 am 
    25   20   28 1  
    26   22   21 am 
    27   21   23 2  
    28   29   22 1  
    29   24   25 1  
    30   24   26 2  
    31   24   27 2  
    32   30   29 1  
    33   29   36 1  
    34   31   30 ar 
    35   30   35 ar 
    36   34   31 ar 
    37   32   33 ar 
    38   32   34 ar 
    39   32   37 1  
    40   33   35 ar 
    41    2   39 1  
    42    2   40 1  
    43    2   41 1  
    44    6   42 1  
    45    6   43 1  
    46    6   44 1  
    47    7   45 1  
    48    7   46 1  
    49    9   47 1  
    50   10   48 1  
    51   11   49 1  
    52   12   50 1  
    53   13   51 1  
    54   14   52 1  
    55   16   53 1  
    56   18   54 1  
    57   22   55 1  
    58   25   56 1  
    59   25   57 1  
    60   25   58 1  
    61   28   59 1  
    62   28   60 1  
    63   28   61 1  
    64   29   62 1  
    65   31   63 1  
    66   33   64 1  
    67   34   65 1  
    68   35   66 1  
    69   36   67 1  
    70   36   68 1  
    71   36   69 1  
    72   38   70 1  
    73   38   71 1  
@<TRIPOS>SUBSTRUCTURE
     1 712         1

