### 
### Created by X-TOOL on Mon Sep 10 21:12:57 2018
### 

@<TRIPOS>MOLECULE
2ph8_ligand
   66    68     1     0     0
SMALL
GAST_HUCK


@<TRIPOS>ATOM
      1 C          28.6480   41.9880    0.6210 C.ar      1 35A        -0.0174
      2 C1         29.8060   42.9190    0.7930 C.ar      1 35A        -0.0480
      3 C2         33.3860   41.3570   -0.4010 C.ar      1 35A        -0.0752
      4 C3         32.9880   39.9990    0.0830 C.ar      1 35A        -0.0672
      5 O          29.6800   39.8810    1.5750 O.3       1 35A        -0.2581
      6 C4         28.7290   40.4780    0.6530 C.3       1 35A         0.1111
      7 C5         32.9350   39.7370    1.3860 C.ar      1 35A        -0.0452
      8 C6         32.5530   38.3690    1.8910 C.3       1 35A         0.0334
      9 C7         31.1140   38.1670    2.3560 C.3       1 35A         0.0855
     10 C8         33.6880   42.3190    0.4660 C.ar      1 35A        -0.0673
     11 C9         33.6230   42.0430    1.9360 C.ar      1 35A        -0.0498
     12 C10        33.2740   40.8310    2.3430 C.ar      1 35A        -0.0591
     13 C11        31.0910   45.6780    2.2900 C.3       1 35A        -0.0389
     14 C12        31.8070   44.6160    3.1390 C.3       1 35A        -0.0401
     15 C13        33.2830   44.4680    2.7270 C.3       1 35A        -0.0406
     16 C14        33.9680   43.1170    2.9620 C.3       1 35A        -0.0205
     17 C15        29.6050   44.2420    0.7230 C.ar      1 35A        -0.0001
     18 C16        30.7470   45.2320    0.8780 C.3       1 35A        -0.0099
     19 N          28.3820   44.7920    0.4910 N.ar      1 35A        -0.3000
     20 C17        27.4610   42.5320    0.3930 C.ar      1 35A        -0.0229
     21 C18        27.3630   44.0120    0.3530 C.ar      1 35A         0.1190
     22 N19        26.1320   44.5290    0.0920 N.am      1 35A        -0.1677
     23 S          25.4760   45.6950    1.1270 S.o2      1 35A         0.0621
     24 C20        25.9950   47.2230    0.5280 C.3       1 35A         0.0796
     25 O21        23.8160   45.6250    0.9680 O.2       1 35A        -0.1493
     26 O22        26.1120   45.5140    2.6530 O.2       1 35A        -0.1493
     27 C23        25.6970   44.5070   -1.3130 C.3       1 35A         0.0480
     28 C24        31.6490   44.9280    4.6290 C.3       1 35A        -0.0621
     29 C25        30.1830   38.6610    1.2800 C.2       1 35A         0.3118
     30 O26        30.0050   38.0210    0.2570 O.2       1 35A        -0.3055
     31 C27        30.8590   36.6700    2.6030 C.3       1 35A        -0.0085
     32 N28        30.8490   38.8790    3.6430 N.4       1 35A         0.2241
     33 H1         30.8003   42.5264    0.9729 H         1 35A         0.0443
     34 H2         33.4286   41.5584   -1.4653 H         1 35A         0.0582
     35 H3         32.7411   39.2232   -0.6327 H         1 35A         0.0499
     36 H4         28.9938   40.1398   -0.3597 H         1 35A         0.0797
     37 H5         27.7306   40.0991    0.9169 H         1 35A         0.0797
     38 H6         33.2101   38.1364    2.7420 H         1 35A         0.0470
     39 H7         32.7399   37.6531    1.0770 H         1 35A         0.0470
     40 H8         33.9804   43.3001    0.1095 H         1 35A         0.0499
     41 H9         33.2334   40.6273    3.4069 H         1 35A         0.0494
     42 H10        31.7442   46.5604    2.2216 H         1 35A         0.0293
     43 H11        30.1561   45.9525    2.8005 H         1 35A         0.0293
     44 H12        31.3159   43.6501    2.9494 H         1 35A         0.0301
     45 H13        33.8547   45.2249    3.2840 H         1 35A         0.0290
     46 H14        33.3441   44.6817    1.6497 H         1 35A         0.0290
     47 H15        35.0562   43.2758    2.9397 H         1 35A         0.0425
     48 H16        33.6712   42.7502    3.9556 H         1 35A         0.0425
     49 H17        31.6474   44.7688    0.4483 H         1 35A         0.0450
     50 H18        30.4863   46.1314    0.3008 H         1 35A         0.0450
     51 H19        26.5850   41.9121    0.2398 H         1 35A         0.0448
     52 H20        25.5944   48.0230    1.1680 H         1 35A         0.0488
     53 H21        25.6281   47.3577   -0.5002 H         1 35A         0.0488
     54 H22        27.0942   47.2649    0.5335 H         1 35A         0.0488
     55 H23        26.2149   43.6950   -1.8445 H         1 35A         0.0527
     56 H24        25.9402   45.4692   -1.7873 H         1 35A         0.0527
     57 H25        24.6107   44.3402   -1.3580 H         1 35A         0.0527
     58 H26        30.5805   45.0239    4.8722 H         1 35A         0.0233
     59 H27        32.1643   45.8713    4.8628 H         1 35A         0.0233
     60 H28        32.0885   44.1131    5.2229 H         1 35A         0.0233
     61 H29        29.8214   36.5253    2.9382 H         1 35A         0.0276
     62 H30        31.5489   36.3034    3.3773 H         1 35A         0.0276
     63 H31        31.0243   36.1111    1.6701 H         1 35A         0.0276
     64 H32        31.0065   39.8669    3.5191 H         1 35A         0.1999
     65 H33        31.4687   38.5268    4.3557 H         1 35A         0.1999
     66 H34        29.8930   38.7237    3.9223 H         1 35A         0.1999
@<TRIPOS>BOND
     1    1    2 ar 
     2    6    1 1  
     3    1   20 ar 
     4    2   17 ar 
     5    3    4 ar 
     6   10    3 ar 
     7    7    4 ar 
     8    5    6 1  
     9   29    5 1  
    10    7    8 1  
    11   12    7 ar 
    12    8    9 1  
    13    9   29 1  
    14    9   31 1  
    15    9   32 1  
    16   11   10 ar 
    17   11   12 ar 
    18   16   11 1  
    19   14   13 1  
    20   13   18 1  
    21   15   14 1  
    22   14   28 1  
    23   15   16 1  
    24   17   18 1  
    25   17   19 ar 
    26   19   21 ar 
    27   20   21 ar 
    28   21   22 1  
    29   22   23 am 
    30   22   27 1  
    31   23   24 1  
    32   23   25 2  
    33   23   26 2  
    34   29   30 2  
    35    2   33 1  
    36    3   34 1  
    37    4   35 1  
    38    6   36 1  
    39    6   37 1  
    40    8   38 1  
    41    8   39 1  
    42   10   40 1  
    43   12   41 1  
    44   13   42 1  
    45   13   43 1  
    46   14   44 1  
    47   15   45 1  
    48   15   46 1  
    49   16   47 1  
    50   16   48 1  
    51   18   49 1  
    52   18   50 1  
    53   20   51 1  
    54   24   52 1  
    55   24   53 1  
    56   24   54 1  
    57   27   55 1  
    58   27   56 1  
    59   27   57 1  
    60   28   58 1  
    61   28   59 1  
    62   28   60 1  
    63   31   61 1  
    64   31   62 1  
    65   31   63 1  
    66   32   64 1  
    67   32   65 1  
    68   32   66 1  
@<TRIPOS>SUBSTRUCTURE
     1 35A         1

