### 
### Created by X-TOOL on Mon Sep 10 21:12:56 2018
### 

@<TRIPOS>MOLECULE
2ph9_ligand
   43    46     1     0     0
SMALL
GAST_HUCK


@<TRIPOS>ATOM
      1 C1          6.3140   37.9710   -8.0020 C.2       1 GNT        -0.1096
      2 C2          5.8590   39.1680   -8.3800 C.2       1 GNT        -0.0102
      3 C3          4.8680   39.3640   -9.5210 C.3       1 GNT         0.1204
      4 C4          4.8830   38.1940  -10.5010 C.3       1 GNT         0.0132
      5 C41         4.7920   36.8620   -9.7510 C.3       1 GNT         0.0474
      6 C42         5.8740   36.6420   -8.6330 C.3       1 GNT        -0.0342
      7 O5          3.4910   36.7070   -9.1420 O.3       1 GNT        -0.3207
      8 C6          2.6650   35.5210   -7.0120 C.ar      1 GNT         0.1316
      9 C7          3.0860   34.9210   -5.8240 C.ar      1 GNT        -0.0294
     10 C8          4.4410   34.8210   -5.4770 C.ar      1 GNT        -0.0558
     11 C9          6.9050   35.2140   -5.8770 C.3       1 GNT         0.0028
     12 N10         7.5300   34.5420   -7.0290 N.4       1 GNT         0.2457
     13 C11         8.1100   35.4970   -8.0000 C.3       1 GNT        -0.0448
     14 C12         7.0670   35.7650   -9.0970 C.3       1 GNT        -0.0567
     15 C13         3.6570   36.0870   -7.9330 C.ar      1 GNT         0.1256
     16 C14         5.0620   35.9800   -7.5710 C.ar      1 GNT        -0.0540
     17 C15         5.4580   35.3410   -6.2820 C.ar      1 GNT        -0.0085
     18 C16         0.6040   36.6660   -6.7040 C.3       1 GNT         0.0557
     19 O17         1.3580   35.6290   -7.3370 O.3       1 GNT        -0.3249
     20 O18         3.5390   39.5230   -9.0190 O.3       1 GNT        -0.3629
     21 C19         8.5600   33.6220   -6.5560 C.3       1 GNT        -0.0415
     22 H1          7.0438   37.9349   -7.1946 H         1 GNT         0.0348
     23 H2          6.2139   40.0484   -7.8462 H         1 GNT         0.1347
     24 H3          5.1512   40.2773  -10.0647 H         1 GNT         0.0969
     25 H4          5.8177   38.2196  -11.0804 H         1 GNT         0.0354
     26 H5          4.0255   38.2835  -11.1842 H         1 GNT         0.0354
     27 H6          4.9229   36.0652  -10.4979 H         1 GNT         0.0473
     28 H7          2.3407   34.5190   -5.1472 H         1 GNT         0.0642
     29 H8          4.7088   34.3230   -4.5522 H         1 GNT         0.0492
     30 H9          7.3540   36.2040   -5.7089 H         1 GNT         0.1005
     31 H10         7.0057   34.6062   -4.9658 H         1 GNT         0.1005
     32 H11         6.8180   34.0098   -7.5043 H         1 GNT         0.2047
     33 H12         9.0180   35.0667   -8.4476 H         1 GNT         0.0800
     34 H13         8.3632   36.4381   -7.4899 H         1 GNT         0.0800
     35 H14         7.5675   36.2760   -9.9327 H         1 GNT         0.0132
     36 H15         6.6719   34.7982   -9.4422 H         1 GNT         0.0132
     37 H16        -0.4357   36.6340   -7.0618 H         1 GNT         0.0570
     38 H17         1.0462   37.6429   -6.9493 H         1 GNT         0.0570
     39 H18         0.6213   36.5189   -5.6140 H         1 GNT         0.0570
     40 H19         3.2716   38.7263   -8.5759 H         1 GNT         0.2168
     41 H20         8.1192   32.9171   -5.8356 H         1 GNT         0.0778
     42 H21         9.3638   34.1916   -6.0667 H         1 GNT         0.0778
     43 H22         8.9730   33.0639   -7.4092 H         1 GNT         0.0778
@<TRIPOS>BOND
     1    1    2 2  
     2    6    1 1  
     3    3    2 1  
     4    4    3 1  
     5    3   20 1  
     6    5    4 1  
     7    5    6 1  
     8    7    5 1  
     9    6   14 1  
    10    6   16 1  
    11   15    7 1  
    12    9    8 ar 
    13    8   15 ar 
    14    8   19 1  
    15   10    9 ar 
    16   17   10 ar 
    17   11   12 1  
    18   11   17 1  
    19   12   13 1  
    20   12   21 1  
    21   13   14 1  
    22   15   16 ar 
    23   16   17 ar 
    24   19   18 1  
    25    1   22 1  
    26    2   23 1  
    27    3   24 1  
    28    4   25 1  
    29    4   26 1  
    30    5   27 1  
    31    9   28 1  
    32   10   29 1  
    33   11   30 1  
    34   11   31 1  
    35   12   32 1  
    36   13   33 1  
    37   13   34 1  
    38   14   35 1  
    39   14   36 1  
    40   18   37 1  
    41   18   38 1  
    42   18   39 1  
    43   20   40 1  
    44   21   41 1  
    45   21   42 1  
    46   21   43 1  
@<TRIPOS>SUBSTRUCTURE
     1 GNT         1

