### 
### Created by X-TOOL on Mon Sep 10 21:12:59 2018
### 

@<TRIPOS>MOLECULE
2phb_ligand
   56    59     1     0     0
SMALL
GAST_HUCK


@<TRIPOS>ATOM
      1 N1          6.5270    6.1360   21.5750 N.am      1 230        -0.2361
      2 N3          8.3000    2.0760   18.0270 N.am      1 230        -0.1717
      3 C4          6.9730    5.1760   20.6890 C.ar      1 230         0.0921
      4 C5          6.6390    3.7850   20.9350 C.ar      1 230         0.1465
      5 C6          7.0670    2.7360   20.0680 C.ar      1 230        -0.0056
      6 C7          5.6440    7.1310   21.3250 C.2       1 230         0.2265
      7 C8         12.1040    7.6850   26.2630 C.ar      1 230         0.0238
      8 C10        10.3780    8.5550   24.7690 C.ar      1 230        -0.0408
      9 C13        11.1180    6.9580   27.0330 C.ar      1 230        -0.0618
     10 C15         7.6030    1.7700   16.8190 C.2       1 230         0.2151
     11 C17         9.3290    0.0260   16.3210 C.2       1 230        -0.0778
     12 C20         3.8860    7.6070   22.8710 C.3       1 230         0.0163
     13 C21         5.3210    8.0630   22.5350 C.3       1 230         0.1423
     14 C22         5.2100    7.2410   24.8960 C.3       1 230         0.0640
     15 C24         3.0660    4.7630   24.0100 C.3       1 230         0.0369
     16 C1          7.8580    3.0660   18.9030 C.ar      1 230         0.0960
     17 C2          8.1970    4.4510   18.6440 C.ar      1 230        -0.0431
     18 C3          7.7650    5.4950   19.5180 C.ar      1 230        -0.0478
     19 F1          5.9080    3.4560   22.0070 F         1 230        -0.1956
     20 O1          5.1000    7.3310   20.2510 O.2       1 230        -0.3838
     21 C9         11.7420    8.4750   25.1490 C.ar      1 230        -0.0618
     22 C11         9.3380    7.8270   25.5160 C.ar      1 230         0.0670
     23 C12         9.7310    7.0390   26.6460 C.ar      1 230        -0.0408
     24 CL1        13.7600    7.5970   26.6860 Cl        1 230        -0.0850
     25 N2          7.9800    7.8340   25.2050 N.am      1 230        -0.2190
     26 C14         9.5730    1.3240   18.4090 C.2       1 230         0.0799
     27 C16         8.1680    0.6820   15.9360 C.2       1 230        -0.0111
     28 C18        10.0650    0.3390   17.5860 C.2       1 230        -0.0402
     29 O2          6.5680    2.3200   16.4220 O.2       1 230        -0.4155
     30 C19         3.8250    7.0970   24.3170 C.3       1 230         0.0828
     31 N4          6.0320    7.8010   23.8250 N.am      1 230        -0.2297
     32 O3          3.6140    5.7110   24.1050 O.3       1 230        -0.3776
     33 C23         7.3900    8.0910   23.9660 C.2       1 230         0.2924
     34 O4          8.0160    8.5670   23.0010 O.2       1 230        -0.3900
     35 H1          6.8967    6.0915   22.5031 H         1 230         0.2222
     36 H2          6.8031    1.7061   20.2794 H         1 230         0.0513
     37 H3         10.0965    9.1613   23.9156 H         1 230         0.0502
     38 H4         11.4171    6.3617   27.8874 H         1 230         0.0583
     39 H5          9.7234   -0.7540   15.6713 H         1 230         0.0636
     40 H6          3.5905    6.7983   22.1863 H         1 230         0.0338
     41 H7          3.1967    8.4563   22.7545 H         1 230         0.0338
     42 H8          5.4068    9.1220   22.2502 H         1 230         0.0805
     43 H9          5.6000    6.2601   25.2053 H         1 230         0.0547
     44 H10         5.1948    7.9192   25.7619 H         1 230         0.0547
     45 H11         3.7734    3.9518   23.7830 H         1 230         0.0524
     46 H12         2.3293    4.8452   23.1973 H         1 230         0.0524
     47 H13         2.5470    4.5432   24.9546 H         1 230         0.0524
     48 H14         8.7894    4.6993   17.7708 H         1 230         0.0496
     49 H15         8.0293    6.5246   19.3056 H         1 230         0.0473
     50 H16        12.4987    9.0142   24.5907 H         1 230         0.0583
     51 H17         8.9811    6.5002   27.2138 H         1 230         0.0502
     52 H18         7.3540    7.6310   25.9580 H         1 230         0.2258
     53 H19        10.0918    1.5684   19.3348 H         1 230         0.1228
     54 H20         7.6688    0.4149   15.0058 H         1 230         0.0399
     55 H21        10.9722   -0.2028   17.8492 H         1 230         0.0371
     56 H22         3.0516    7.5812   24.9314 H         1 230         0.0618
@<TRIPOS>BOND
     1    1    3 1  
     2    6    1 am 
     3    2   10 am 
     4   16    2 1  
     5    2   26 1  
     6    3    4 ar 
     7    3   18 ar 
     8    4    5 ar 
     9    4   19 1  
    10    5   16 ar 
    11   13    6 1  
    12    6   20 2  
    13    9    7 ar 
    14   21    7 ar 
    15    7   24 1  
    16    8   21 ar 
    17   22    8 ar 
    18   23    9 ar 
    19   10   27 1  
    20   10   29 2  
    21   27   11 2  
    22   28   11 1  
    23   13   12 1  
    24   30   12 1  
    25   31   13 1  
    26   14   30 1  
    27   31   14 1  
    28   32   15 1  
    29   17   16 ar 
    30   18   17 ar 
    31   22   23 ar 
    32   25   22 1  
    33   33   25 am 
    34   26   28 2  
    35   30   32 1  
    36   31   33 am 
    37   33   34 2  
    38    1   35 1  
    39    5   36 1  
    40    8   37 1  
    41    9   38 1  
    42   11   39 1  
    43   12   40 1  
    44   12   41 1  
    45   13   42 1  
    46   14   43 1  
    47   14   44 1  
    48   15   45 1  
    49   15   46 1  
    50   15   47 1  
    51   17   48 1  
    52   18   49 1  
    53   21   50 1  
    54   23   51 1  
    55   25   52 1  
    56   26   53 1  
    57   27   54 1  
    58   28   55 1  
    59   30   56 1  
@<TRIPOS>SUBSTRUCTURE
     1 230         1

