### 
### Created by X-TOOL on Mon Sep 10 21:12:56 2018
### 

@<TRIPOS>MOLECULE
2pix_ligand
   29    30     1     0     0
SMALL
GAST_HUCK


@<TRIPOS>ATOM
      1 C1         20.0840   15.6620   31.3940 C.ar      1 FLF         0.0318
      2 O1         20.7420   17.9120   30.9340 O.co2     1 FLF        -0.5647
      3 C2         20.4610   14.5320   32.0990 C.ar      1 FLF        -0.0579
      4 C3         20.0280   13.2680   31.6900 C.ar      1 FLF        -0.0704
      5 O2         20.9050   17.1950   33.0240 O.co2     1 FLF        -0.5647
      6 C4         19.2190   13.1490   30.5710 C.ar      1 FLF        -0.0696
      7 C5         18.8420   14.2980   29.8580 C.ar      1 FLF        -0.0360
      8 C6         19.2770   15.5480   30.2630 C.ar      1 FLF         0.0733
      9 C7         20.6290   17.0320   31.8100 C.2       1 FLF         0.0568
     10 N          18.8600   16.6720   29.6640 N.pl3     1 FLF        -0.2670
     11 C1'        18.0940   16.7380   28.5810 C.ar      1 FLF         0.0885
     12 C2'        17.7060   17.9870   28.1380 C.ar      1 FLF        -0.0104
     13 C3'        16.8600   18.1200   27.0270 C.ar      1 FLF         0.0370
     14 C4'        16.4150   16.9870   26.3610 C.ar      1 FLF        -0.0423
     15 C5'        16.8050   15.7290   26.8100 C.ar      1 FLF        -0.0405
     16 C6'        17.6330   15.6030   27.9090 C.ar      1 FLF        -0.0099
     17 C7'        16.4090   19.5190   26.5820 C.3       1 FLF         0.3736
     18 F1         16.0240   20.2380   27.6370 F         1 FLF        -0.2207
     19 F2         15.3890   19.4190   25.7300 F         1 FLF        -0.2207
     20 F3         17.4240   20.1340   25.9760 F         1 FLF        -0.2207
     21 H1         21.0953   14.6281   32.9728 H         1 FLF         0.0619
     22 H2         20.3233   12.3850   32.2451 H         1 FLF         0.0521
     23 H3         18.8785   12.1720   30.2475 H         1 FLF         0.0607
     24 H4         18.2063   14.2057   28.9848 H         1 FLF         0.0537
     25 H5         19.1605   17.5647   30.0809 H         1 FLF         0.2099
     26 H6         18.0585   18.8730   28.6536 H         1 FLF         0.0744
     27 H7         15.7678   17.0812   25.4966 H         1 FLF         0.0764
     28 H8         16.4568   14.8416   26.2940 H         1 FLF         0.0671
     29 H9         17.9267   14.6175   28.2520 H         1 FLF         0.0783
@<TRIPOS>BOND
     1    1    3 ar 
     2    1    8 ar 
     3    1    9 1  
     4    9    2 ar 
     5    3    4 ar 
     6    4    6 ar 
     7    9    5 ar 
     8    6    7 ar 
     9    7    8 ar 
    10    8   10 1  
    11   10   11 1  
    12   11   12 ar 
    13   11   16 ar 
    14   12   13 ar 
    15   13   14 ar 
    16   13   17 1  
    17   14   15 ar 
    18   15   16 ar 
    19   17   18 1  
    20   17   19 1  
    21   17   20 1  
    22    3   21 1  
    23    4   22 1  
    24    6   23 1  
    25    7   24 1  
    26   10   25 1  
    27   12   26 1  
    28   14   27 1  
    29   15   28 1  
    30   16   29 1  
@<TRIPOS>SUBSTRUCTURE
     1 FLF         1

