### 
### Created by X-TOOL on Mon Sep 10 21:12:56 2018
### 

@<TRIPOS>MOLECULE
2pjl_ligand
   54    57     1     0     0
SMALL
GAST_HUCK


@<TRIPOS>ATOM
      1 N1        -10.7060   -8.1570    7.7670 N.pl3     1 047        -0.2354
      2 C2        -11.4770   -7.3940    8.5860 C.ar      1 047         0.0779
      3 C3        -12.7810   -7.8860    8.5740 C.ar      1 047        -0.0127
      4 C4        -12.6940   -9.0680    7.6420 C.2       1 047         0.0012
      5 C5        -11.4160   -9.1330    7.2320 C.2       1 047         0.0385
      6 C7        -13.8280   -9.9920    7.2580 C.3       1 047        -0.0155
      7 N10       -14.8930   -9.3050    6.4870 N.4       1 047         0.2343
      8 C12       -14.5360   -8.8910    5.1120 C.3       1 047        -0.0300
      9 C15       -15.3780   -7.6800    4.6040 C.3       1 047        -0.0008
     10 C17       -16.8840   -8.0390    4.3870 C.3       1 047        -0.0454
     11 C20       -17.6740   -6.8420    3.7910 C.3       1 047        -0.0526
     12 C23       -17.4510   -5.5250    4.5910 C.3       1 047        -0.0530
     13 C26       -15.9300   -5.2290    4.8000 C.3       1 047        -0.0526
     14 C29       -15.2500   -6.4300    5.5240 C.3       1 047        -0.0454
     15 C32       -13.8120   -7.3010    9.3180 C.ar      1 047        -0.0736
     16 C34       -13.4690   -6.1870   10.0890 C.ar      1 047        -0.0786
     17 C36       -12.1600   -5.6780   10.1020 C.ar      1 047        -0.0759
     18 C38       -11.1390   -6.2790    9.3600 C.ar      1 047        -0.0409
     19 C40        -9.3690   -8.0080    7.5380 C.ar      1 047         0.0802
     20 C41        -8.5690   -9.1470    7.6630 C.ar      1 047        -0.0368
     21 C43        -7.1920   -9.0840    7.4430 C.ar      1 047        -0.0662
     22 C45        -6.5890   -7.8740    7.0880 C.ar      1 047        -0.0542
     23 C46        -7.3820   -6.7210    6.9490 C.ar      1 047        -0.0662
     24 C48        -8.7680   -6.7900    7.1700 C.ar      1 047        -0.0368
     25 C50        -5.0710   -7.8710    6.8660 C.3       1 047        -0.0350
     26 H1        -11.0206   -9.8865    6.5524 H         1 047         0.0809
     27 H2        -14.2702  -10.4061    8.1761 H         1 047         0.0902
     28 H3        -13.4224  -10.8103    6.6449 H         1 047         0.0902
     29 H4        -15.1591   -8.4781    6.9984 H         1 047         0.2021
     30 H5        -15.6812   -9.9303    6.4256 H         1 047         0.2021
     31 H6        -14.7017   -9.7421    4.4351 H         1 047         0.0816
     32 H7        -13.4725   -8.6106    5.0950 H         1 047         0.0816
     33 H8        -14.9675   -7.4019    3.6221 H         1 047         0.0352
     34 H9        -17.3288   -8.3146    5.3545 H         1 047         0.0270
     35 H10       -16.9522   -8.8920    3.6958 H         1 047         0.0270
     36 H11       -18.7466   -7.0855    3.8037 H         1 047         0.0265
     37 H12       -17.3461   -6.6843    2.7529 H         1 047         0.0265
     38 H13       -17.9349   -5.6184    5.5744 H         1 047         0.0265
     39 H14       -17.9043   -4.6897    4.0371 H         1 047         0.0265
     40 H15       -15.8157   -4.3222    5.4120 H         1 047         0.0265
     41 H16       -15.4509   -5.0741    3.8220 H         1 047         0.0265
     42 H17       -14.1882   -6.2054    5.7033 H         1 047         0.0270
     43 H18       -15.7519   -6.6200    6.4842 H         1 047         0.0270
     44 H19       -14.8231   -7.6913    9.2973 H         1 047         0.0544
     45 H20       -14.2307   -5.7047   10.6908 H         1 047         0.0514
     46 H21       -11.9370   -4.8014   10.6995 H         1 047         0.0531
     47 H22       -10.1252   -5.8960    9.3835 H         1 047         0.0551
     48 H23        -9.0241  -10.0926    7.9346 H         1 047         0.0552
     49 H24        -6.5875   -9.9776    7.5480 H         1 047         0.0537
     50 H25        -6.9239   -5.7786    6.6713 H         1 047         0.0537
     51 H26        -9.3772   -5.9006    7.0564 H         1 047         0.0552
     52 H27        -4.6742   -8.8835    7.0317 H         1 047         0.0375
     53 H28        -4.5986   -7.1720    7.5718 H         1 047         0.0375
     54 H29        -4.8518   -7.5555    5.8353 H         1 047         0.0375
@<TRIPOS>BOND
     1    1    2 1  
     2    1    5 1  
     3    1   19 1  
     4    2    3 ar 
     5    2   18 ar 
     6    3    4 1  
     7    3   15 ar 
     8    4    5 2  
     9    4    6 1  
    10    6    7 1  
    11    7    8 1  
    12    8    9 1  
    13    9   10 1  
    14    9   14 1  
    15   10   11 1  
    16   11   12 1  
    17   12   13 1  
    18   13   14 1  
    19   15   16 ar 
    20   16   17 ar 
    21   17   18 ar 
    22   19   20 ar 
    23   19   24 ar 
    24   20   21 ar 
    25   21   22 ar 
    26   22   23 ar 
    27   22   25 1  
    28   23   24 ar 
    29    5   26 1  
    30    6   27 1  
    31    6   28 1  
    32    7   29 1  
    33    7   30 1  
    34    8   31 1  
    35    8   32 1  
    36    9   33 1  
    37   10   34 1  
    38   10   35 1  
    39   11   36 1  
    40   11   37 1  
    41   12   38 1  
    42   12   39 1  
    43   13   40 1  
    44   13   41 1  
    45   14   42 1  
    46   14   43 1  
    47   15   44 1  
    48   16   45 1  
    49   17   46 1  
    50   18   47 1  
    51   20   48 1  
    52   21   49 1  
    53   23   50 1  
    54   24   51 1  
    55   25   52 1  
    56   25   53 1  
    57   25   54 1  
@<TRIPOS>SUBSTRUCTURE
     1 047         1

