### 
### Created by X-TOOL on Mon Sep 10 21:12:58 2018
### 

@<TRIPOS>MOLECULE
2pjt_ligand
   63    64     1     0     0
SMALL
GAST_HUCK


@<TRIPOS>ATOM
      1 C1         -0.7000   23.1420  142.4390 C.3       1 347        -0.0025
      2 C2          0.4050   23.9370  141.9070 C.1       1 347        -0.1036
      3 C3          1.3020   24.5920  141.4500 C.1       1 347        -0.0789
      4 C4          2.3900   25.3920  140.8830 C.3       1 347         0.0854
      5 N1          3.6160   25.2210  141.6370 N.pl3     1 347        -0.3119
      6 C5          4.8950   25.5680  141.1760 C.ar      1 347         0.0385
      7 C6          5.1840   26.6780  140.3210 C.ar      1 347        -0.0427
      8 C7          6.5050   26.9700  139.8810 C.ar      1 347        -0.0489
      9 C8          7.5860   26.1490  140.3020 C.ar      1 347         0.0746
     10 C9          7.3580   25.0490  141.1630 C.ar      1 347        -0.0489
     11 C10         6.0060   24.7710  141.6010 C.ar      1 347        -0.0427
     12 S1          9.2450   26.5060  139.7250 S.o2      1 347        -0.0091
     13 O1          9.1490   27.8240  139.0970 O.2       1 347        -0.1711
     14 O2          9.6760   25.3840  138.8880 O.2       1 347        -0.1711
     15 C11        10.3310   26.5730  141.1660 C.3       1 347         0.0818
     16 C12        10.6240   27.9440  141.8120 C.3       1 347         0.0759
     17 C13        11.2660   28.9460  140.7420 C.3       1 347        -0.0186
     18 C14        11.8260   30.2290  141.3650 C.3       1 347         0.0355
     19 N2         12.8100   29.9030  142.3710 N.am      1 347        -0.2492
     20 C15        12.3240   29.0390  143.5040 C.3       1 347         0.0355
     21 C16        11.6870   27.7160  142.9650 C.3       1 347        -0.0186
     22 C17        14.1440   30.4000  142.3700 C.2       1 347         0.3226
     23 O3         14.5870   31.2360  141.5390 O.2       1 347        -0.3774
     24 O4         14.8810   29.8010  143.4070 O.3       1 347        -0.2580
     25 C18        16.3260   29.8210  143.7790 C.3       1 347         0.0905
     26 C19        16.7710   28.3700  143.6880 C.3       1 347        -0.0320
     27 C20        17.1630   30.6070  142.7450 C.3       1 347        -0.0320
     28 C21        16.5440   30.3750  145.1820 C.3       1 347        -0.0320
     29 C22         9.3050   28.5230  142.4020 C.2       1 347         0.2255
     30 O5          8.7170   27.9500  143.3330 O.2       1 347        -0.3463
     31 N3          8.8000   29.6390  141.7640 N.am      1 347        -0.1624
     32 O6          7.6260   30.2010  142.2610 O.3       1 347        -0.2707
     33 H1         -0.4810   22.8599  143.4794 H         1 347         0.0362
     34 H2         -0.8241   22.2336  141.8312 H         1 347         0.0362
     35 H3         -1.6265   23.7341  142.4069 H         1 347         0.0362
     36 H4          2.1023   26.4535  140.9024 H         1 347         0.0649
     37 H5          2.5619   25.0776  139.8430 H         1 347         0.0649
     38 H6          3.5430   24.8148  142.5807 H         1 347         0.1764
     39 H7          4.3702   27.3172  139.9980 H         1 347         0.0515
     40 H8          6.6863   27.8154  139.2272 H         1 347         0.0601
     41 H9          8.1820   24.4248  141.4892 H         1 347         0.0601
     42 H10         5.8301   23.9360  142.2695 H         1 347         0.0515
     43 H11        11.2979   26.1452  140.8626 H         1 347         0.0494
     44 H12         9.8774   25.9398  141.9427 H         1 347         0.0494
     45 H13        10.4890   29.2228  140.0143 H         1 347         0.0277
     46 H14        12.0844   28.4246  140.2241 H         1 347         0.0277
     47 H15        11.0057   30.7965  141.8287 H         1 347         0.0520
     48 H16        12.2964   30.8395  140.5801 H         1 347         0.0520
     49 H17        11.5689   29.5930  144.0809 H         1 347         0.0520
     50 H18        13.1737   28.7895  144.1565 H         1 347         0.0520
     51 H19        12.4924   27.0773  142.5734 H         1 347         0.0277
     52 H20        11.1878   27.2051  143.8015 H         1 347         0.0277
     53 H21        17.8368   28.2963  143.9499 H         1 347         0.0260
     54 H22        16.6194   28.0036  142.6620 H         1 347         0.0260
     55 H23        16.1788   27.7604  144.3863 H         1 347         0.0260
     56 H24        18.2202   30.6019  143.0490 H         1 347         0.0260
     57 H25        16.8015   31.6446  142.6931 H         1 347         0.0260
     58 H26        17.0634   30.1341  141.7569 H         1 347         0.0260
     59 H27        17.6191   30.3718  145.4145 H         1 347         0.0260
     60 H28        16.0094   29.7482  145.9109 H         1 347         0.0260
     61 H29        16.1609   31.4049  145.2332 H         1 347         0.0260
     62 H30         9.2630   30.0318  140.9694 H         1 347         0.2232
     63 H31         7.3903   30.9562  141.7350 H         1 347         0.2497
@<TRIPOS>BOND
     1    1    2 1  
     2    2    3 3  
     3    3    4 1  
     4    4    5 1  
     5    5    6 1  
     6    6    7 ar 
     7    6   11 ar 
     8    7    8 ar 
     9    8    9 ar 
    10    9   10 ar 
    11    9   12 1  
    12   10   11 ar 
    13   12   13 2  
    14   12   14 2  
    15   12   15 1  
    16   15   16 1  
    17   16   17 1  
    18   16   21 1  
    19   16   29 1  
    20   17   18 1  
    21   18   19 1  
    22   19   20 1  
    23   19   22 am 
    24   20   21 1  
    25   22   23 2  
    26   22   24 1  
    27   24   25 1  
    28   25   26 1  
    29   25   27 1  
    30   25   28 1  
    31   29   30 2  
    32   29   31 am 
    33   31   32 1  
    34    1   33 1  
    35    1   34 1  
    36    1   35 1  
    37    4   36 1  
    38    4   37 1  
    39    5   38 1  
    40    7   39 1  
    41    8   40 1  
    42   10   41 1  
    43   11   42 1  
    44   15   43 1  
    45   15   44 1  
    46   17   45 1  
    47   17   46 1  
    48   18   47 1  
    49   18   48 1  
    50   20   49 1  
    51   20   50 1  
    52   21   51 1  
    53   21   52 1  
    54   26   53 1  
    55   26   54 1  
    56   26   55 1  
    57   27   56 1  
    58   27   57 1  
    59   27   58 1  
    60   28   59 1  
    61   28   60 1  
    62   28   61 1  
    63   31   62 1  
    64   32   63 1  
@<TRIPOS>SUBSTRUCTURE
     1 347         1

