### 
### Created by X-TOOL on Mon Sep 10 21:12:55 2018
### 

@<TRIPOS>MOLECULE
2pk5_ligand
  101   106     1     0     0
SMALL
GAST_HUCK


@<TRIPOS>ATOM
      1 O4         10.0340  -19.7240  -17.1200 O.2       1 075        -0.3943
      2 C20        10.0270  -18.7220  -17.8540 C.2       1 075         0.2053
      3 N4          9.3720  -17.5850  -17.5960 N.am      1 075        -0.2691
      4 C31         8.5260  -17.4410  -16.4250 C.3       1 075         0.1007
      5 C32         9.1530  -16.8350  -15.2460 C.ar      1 075        -0.0133
      6 C33        10.4160  -17.1180  -14.7360 C.ar      1 075        -0.0646
      7 C34        10.8140  -16.4180  -13.5920 C.ar      1 075        -0.0754
      8 C38         9.9450  -15.4730  -13.0280 C.ar      1 075        -0.0755
      9 C37         8.6710  -15.2120  -13.5510 C.ar      1 075        -0.0667
     10 C36         8.2950  -15.9260  -14.6780 C.ar      1 075        -0.0361
     11 C39         6.9880  -15.8100  -15.4400 C.3       1 075         0.0085
     12 C35         7.4060  -16.4440  -16.7670 C.3       1 075         0.0951
     13 O7          7.8910  -15.3880  -17.6250 O.3       1 075        -0.3857
     14 C17        10.7880  -18.6900  -19.1530 C.3       1 075         0.1486
     15 C18         9.9260  -19.2400  -20.3010 C.3       1 075         0.0532
     16 C29        10.3100  -18.5520  -21.5920 C.3       1 075        -0.0463
     17 C30         8.4110  -19.1100  -20.1450 C.3       1 075        -0.0463
     18 S1         10.3640  -20.9290  -20.3420 S.3       1 075        -0.1252
     19 C19        12.0150  -20.7250  -19.7810 C.3       1 075         0.0831
     20 N3         12.0510  -19.4310  -19.0760 N.am      1 075        -0.2383
     21 C16        13.0950  -18.9080  -18.4150 C.2       1 075         0.2129
     22 O3         13.0460  -17.8590  -17.7830 O.2       1 075        -0.3938
     23 C14        14.3830  -19.6820  -18.4760 C.3       1 075         0.1683
     24 O1         15.4980  -18.7890  -18.5700 O.3       1 075        -0.3689
     25 C13        14.5160  -20.5850  -17.2560 C.3       1 075         0.0945
     26 C15        15.0670  -19.8190  -16.0530 C.3       1 075         0.0086
     27 C22        15.3330  -20.8100  -14.9630 C.ar      1 075        -0.0406
     28 C23        16.6580  -21.0600  -14.5970 C.ar      1 075        -0.0603
     29 C24        16.9310  -21.9870  -13.5940 C.ar      1 075        -0.0686
     30 C25        15.8770  -22.6420  -12.9570 C.ar      1 075        -0.0687
     31 C26        14.5530  -22.3880  -13.3250 C.ar      1 075        -0.0686
     32 C27        14.2670  -21.4720  -14.3370 C.ar      1 075        -0.0603
     33 N2         15.5010  -21.5970  -17.6440 N.am      1 075        -0.2752
     34 C12        15.1570  -22.8160  -18.0880 C.2       1 075         0.2039
     35 O5         13.9920  -23.1920  -18.1930 O.2       1 075        -0.3945
     36 C21        16.3240  -23.7100  -18.4450 C.3       1 075         0.1500
     37 C11        15.9440  -24.9760  -19.2370 C.3       1 075         0.1055
     38 S          17.1910  -25.6790  -20.1170 S.o2      1 075        -0.0295
     39 O8         17.9750  -24.6800  -20.7930 O.2       1 075        -0.1744
     40 C28        18.1460  -26.5960  -19.0980 C.3       1 075         0.0547
     41 O6         16.6470  -26.5340  -21.1190 O.2       1 075        -0.1744
     42 N1         16.9770  -24.1510  -17.2210 N.am      1 075        -0.2618
     43 C10        18.2540  -23.8690  -16.9850 C.2       1 075         0.2097
     44 O2         18.9520  -23.2530  -17.7650 O.2       1 075        -0.3939
     45 C9         18.8850  -24.3620  -15.6970 C.3       1 075         0.1614
     46 O          17.9290  -24.7770  -14.7250 O.3       1 075        -0.2905
     47 C5         18.3430  -25.1600  -13.4730 C.ar      1 075         0.1152
     48 C2         17.4720  -25.8340  -12.6250 C.ar      1 075         0.0336
     49 C1         16.1680  -26.1380  -13.0060 C.ar      1 075        -0.0303
     50 C3         17.8960  -26.2190  -11.3520 C.ar      1 075         0.0010
     51 C4         17.0110  -26.9070  -10.5150 C.ar      1 075         0.0152
     52 N          15.7640  -27.1940  -10.9230 N.ar      1 075        -0.3006
     53 C          15.3200  -26.8240  -12.1370 C.ar      1 075         0.0054
     54 C8         19.1930  -25.9250  -10.9270 C.ar      1 075        -0.0598
     55 C7         20.0700  -25.2340  -11.7630 C.ar      1 075        -0.0686
     56 C6         19.6400  -24.8560  -13.0410 C.ar      1 075        -0.0280
     57 H1          9.4674  -16.8142  -18.2258 H         1 075         0.1881
     58 H2          8.1177  -18.4278  -16.1614 H         1 075         0.0732
     59 H3         11.0640  -17.8496  -15.2050 H         1 075         0.0538
     60 H4         11.7843  -16.6042  -13.1461 H         1 075         0.0541
     61 H5         10.2714  -14.9226  -12.1530 H         1 075         0.0541
     62 H6          8.0095  -14.4845  -13.0946 H         1 075         0.0537
     63 H7          6.6793  -14.7618  -15.5663 H         1 075         0.0439
     64 H8          6.1789  -16.3745  -14.9535 H         1 075         0.0439
     65 H9          6.5612  -16.9623  -17.2442 H         1 075         0.0659
     66 H10         8.1580  -15.7565  -18.4589 H         1 075         0.2103
     67 H11        11.0263  -17.6395  -19.3756 H         1 075         0.0816
     68 H12         9.6938  -18.9448  -22.4142 H         1 075         0.0245
     69 H13        11.3720  -18.7417  -21.8068 H         1 075         0.0245
     70 H14        10.1434  -17.4691  -21.4940 H         1 075         0.0245
     71 H15         8.0949  -19.6011  -19.2129 H         1 075         0.0245
     72 H16         7.9118  -19.5899  -20.9997 H         1 075         0.0245
     73 H17         8.1360  -18.0455  -20.1101 H         1 075         0.0245
     74 H18        12.7094  -20.7142  -20.6341 H         1 075         0.0640
     75 H19        12.2887  -21.5407  -19.0956 H         1 075         0.0640
     76 H20        14.3677  -20.3141  -19.3761 H         1 075         0.0863
     77 H21        15.4153  -18.2626  -19.3564 H         1 075         0.2134
     78 H22        13.5485  -21.0426  -17.0021 H         1 075         0.0630
     79 H23        14.3301  -19.0768  -15.7123 H         1 075         0.0451
     80 H24        16.0008  -19.3080  -16.3303 H         1 075         0.0451
     81 H25        17.4684  -20.5358  -15.0905 H         1 075         0.0557
     82 H26        17.9557  -22.1981  -13.3103 H         1 075         0.0599
     83 H27        16.0871  -23.3554  -12.1684 H         1 075         0.0559
     84 H28        13.7444  -22.9054  -12.8215 H         1 075         0.0599
     85 H29        13.2429  -21.2760  -14.6333 H         1 075         0.0557
     86 H30        16.4724  -21.3698  -17.5751 H         1 075         0.1859
     87 H31        17.0314  -23.1220  -19.0482 H         1 075         0.0816
     88 H32        15.1419  -24.7079  -19.9404 H         1 075         0.0548
     89 H33        15.5701  -25.7237  -18.5221 H         1 075         0.0548
     90 H34        18.9619  -27.0556  -19.6751 H         1 075         0.0464
     91 H35        17.5354  -27.3847  -18.6343 H         1 075         0.0464
     92 H36        18.5696  -25.9514  -18.3137 H         1 075         0.0464
     93 H37        16.4562  -24.6747  -16.5468 H         1 075         0.1884
     94 H38        19.4873  -23.5472  -15.2688 H         1 075         0.0865
     95 H39        19.5374  -25.2159  -15.9321 H         1 075         0.0865
     96 H40        15.8094  -25.8396  -13.9845 H         1 075         0.0722
     97 H41        17.3352  -27.2117   -9.5265 H         1 075         0.0845
     98 H42        14.3057  -27.0583  -12.4394 H         1 075         0.0749
     99 H43        19.5204  -26.2356   -9.9414 H         1 075         0.0527
    100 H44        21.0721  -24.9925  -11.4276 H         1 075         0.0607
    101 H45        20.3160  -24.3242  -13.7007 H         1 075         0.0535
@<TRIPOS>BOND
     1    1    2 2  
     2    2    3 am 
     3    2   14 1  
     4    3    4 1  
     5    4    5 1  
     6    4   12 1  
     7    5    6 ar 
     8    5   10 ar 
     9    6    7 ar 
    10    7    8 ar 
    11    8    9 ar 
    12    9   10 ar 
    13   10   11 1  
    14   11   12 1  
    15   12   13 1  
    16   14   15 1  
    17   14   20 1  
    18   15   16 1  
    19   15   17 1  
    20   15   18 1  
    21   18   19 1  
    22   19   20 1  
    23   20   21 am 
    24   21   22 2  
    25   21   23 1  
    26   23   24 1  
    27   23   25 1  
    28   25   26 1  
    29   25   33 1  
    30   26   27 1  
    31   27   28 ar 
    32   27   32 ar 
    33   28   29 ar 
    34   29   30 ar 
    35   30   31 ar 
    36   31   32 ar 
    37   33   34 am 
    38   34   35 2  
    39   34   36 1  
    40   36   37 1  
    41   36   42 1  
    42   37   38 1  
    43   38   39 2  
    44   38   40 1  
    45   38   41 2  
    46   42   43 am 
    47   43   44 2  
    48   43   45 1  
    49   45   46 1  
    50   46   47 1  
    51   47   48 ar 
    52   47   56 ar 
    53   48   49 ar 
    54   48   50 ar 
    55   49   53 ar 
    56   50   51 ar 
    57   50   54 ar 
    58   51   52 ar 
    59   52   53 ar 
    60   54   55 ar 
    61   55   56 ar 
    62    3   57 1  
    63    4   58 1  
    64    6   59 1  
    65    7   60 1  
    66    8   61 1  
    67    9   62 1  
    68   11   63 1  
    69   11   64 1  
    70   12   65 1  
    71   13   66 1  
    72   14   67 1  
    73   16   68 1  
    74   16   69 1  
    75   16   70 1  
    76   17   71 1  
    77   17   72 1  
    78   17   73 1  
    79   19   74 1  
    80   19   75 1  
    81   23   76 1  
    82   24   77 1  
    83   25   78 1  
    84   26   79 1  
    85   26   80 1  
    86   28   81 1  
    87   29   82 1  
    88   30   83 1  
    89   31   84 1  
    90   32   85 1  
    91   33   86 1  
    92   36   87 1  
    93   37   88 1  
    94   37   89 1  
    95   40   90 1  
    96   40   91 1  
    97   40   92 1  
    98   42   93 1  
    99   45   94 1  
   100   45   95 1  
   101   49   96 1  
   102   51   97 1  
   103   53   98 1  
   104   54   99 1  
   105   55  100 1  
   106   56  101 1  
@<TRIPOS>SUBSTRUCTURE
     1 075         1

