### 
### Created by X-TOOL on Mon Sep 10 21:12:56 2018
### 

@<TRIPOS>MOLECULE
2pk6_ligand
   99   104     1     0     0
SMALL
GAST_HUCK


@<TRIPOS>ATOM
      1 C1         18.0340  -23.9650  -17.1730 C.2       1 O33         0.2097
      2 C2         15.9530  -23.8890  -18.3860 C.3       1 O33         0.1397
      3 C3         14.8850  -22.8850  -18.0680 C.2       1 O33         0.2031
      4 C4         14.3500  -20.6270  -17.4120 C.3       1 O33         0.0945
      5 C5         14.2200  -19.7600  -18.6590 C.3       1 O33         0.1683
      6 C6         12.9240  -19.0080  -18.5910 C.2       1 O33         0.2129
      7 C7         14.8850  -19.8750  -16.1840 C.3       1 O33         0.0086
      8 C8         15.1550  -20.8940  -15.0960 C.ar      1 O33        -0.0406
      9 C9         16.4800  -21.1440  -14.7330 C.ar      1 O33        -0.0603
     10 C11        15.6760  -22.7400  -13.1320 C.ar      1 O33        -0.0687
     11 C12        14.3480  -22.4880  -13.4600 C.ar      1 O33        -0.0686
     12 C14        11.8660  -20.7700  -19.9840 C.3       1 O33         0.0831
     13 C16        10.6470  -18.7390  -19.2290 C.3       1 O33         0.1486
     14 C18         8.2690  -19.0930  -20.2450 C.3       1 O33        -0.0463
     15 C19        10.2150  -18.6350  -21.6640 C.3       1 O33        -0.0463
     16 C20        15.3020  -25.1590  -18.9590 C.3       1 O33         0.0338
     17 C21        18.8150  -24.3370  -15.9260 C.3       1 O33         0.1614
     18 C22        16.4100  -25.1930  -21.4310 C.3       1 O33        -0.0179
     19 C27        18.1800  -26.0730  -11.4690 C.ar      1 O33         0.0010
     20 C28        17.6920  -25.8110  -12.7590 C.ar      1 O33         0.0336
     21 C29        17.3810  -26.7980  -10.5840 C.ar      1 O33         0.0152
     22 C30        15.6860  -26.9940  -12.1950 C.ar      1 O33         0.0054
     23 C31        16.4260  -26.2590  -13.1290 C.ar      1 O33        -0.0303
     24 C32         8.3460  -17.3970  -16.5450 C.3       1 O33         0.1007
     25 O4          9.8570  -19.7290  -17.1390 O.2       1 O33        -0.3943
     26 C17         9.8800  -18.7330  -17.9150 C.2       1 O33         0.2053
     27 N4          9.2240  -17.5840  -17.7020 N.am      1 O33        -0.2691
     28 C33         8.8980  -16.7880  -15.3180 C.ar      1 O33        -0.0133
     29 C37        10.1330  -17.0720  -14.7230 C.ar      1 O33        -0.0646
     30 C38        10.4680  -16.4100  -13.5350 C.ar      1 O33        -0.0754
     31 C39         9.5750  -15.4670  -13.0060 C.ar      1 O33        -0.0755
     32 C40         8.3320  -15.2140  -13.6010 C.ar      1 O33        -0.0667
     33 C34         8.0200  -15.9010  -14.7710 C.ar      1 O33        -0.0361
     34 C35         6.7650  -15.7780  -15.6070 C.3       1 O33         0.0085
     35 C36         7.2160  -16.4220  -16.9170 C.3       1 O33         0.0951
     36 O7          7.7350  -15.4080  -17.7910 O.3       1 O33        -0.3857
     37 C15         9.7800  -19.3170  -20.3610 C.3       1 O33         0.0532
     38 S1         10.1810  -21.0640  -20.3530 S.3       1 O33        -0.1252
     39 N3         11.8850  -19.5130  -19.2340 N.am      1 O33        -0.2383
     40 O2         12.8560  -17.9940  -17.9400 O.2       1 O33        -0.3938
     41 O1         15.3170  -18.8320  -18.7190 O.3       1 O33        -0.3689
     42 C10        16.7370  -22.0920  -13.7590 C.ar      1 O33        -0.0686
     43 C13        14.0840  -21.5410  -14.4570 C.ar      1 O33        -0.0603
     44 N2         15.3240  -21.6550  -17.7640 N.am      1 O33        -0.2752
     45 O3         13.6970  -23.2180  -18.0810 O.2       1 O33        -0.3945
     46 S2         14.8720  -24.8170  -20.6480 S.3       1 O33        -0.1594
     47 N1         16.7260  -24.2570  -17.2110 N.am      1 O33        -0.2626
     48 O5         18.6350  -23.3970  -18.0630 O.2       1 O33        -0.3939
     49 O6         17.9720  -24.8750  -14.9170 O.3       1 O33        -0.2905
     50 C23        18.4790  -25.1030  -13.6620 C.ar      1 O33         0.1152
     51 C24        19.7420  -24.6320  -13.2880 C.ar      1 O33        -0.0280
     52 C25        20.2290  -24.8940  -11.9930 C.ar      1 O33        -0.0686
     53 C26        19.4510  -25.6170  -11.0820 C.ar      1 O33        -0.0598
     54 N5         16.1700  -27.2340  -10.9730 N.ar      1 O33        -0.3006
     55 H1         16.6314  -23.4560  -19.1358 H         1 O33         0.0808
     56 H2         13.3754  -21.0743  -17.1669 H         1 O33         0.0630
     57 H3         14.2304  -20.3976  -19.5553 H         1 O33         0.0863
     58 H4         14.1375  -19.1465  -15.8367 H         1 O33         0.0451
     59 H5         15.8160  -19.3497  -16.4436 H         1 O33         0.0451
     60 H6         17.2927  -20.6048  -15.2061 H         1 O33         0.0557
     61 H7         15.8931  -23.4684  -12.3591 H         1 O33         0.0559
     62 H8         13.5409  -23.0096  -12.9584 H         1 O33         0.0599
     63 H9         12.4520  -20.6747  -20.9100 H         1 O33         0.0640
     64 H10        12.2751  -21.5887  -19.3737 H         1 O33         0.0640
     65 H11        10.8968  -17.6940  -19.4646 H         1 O33         0.0816
     66 H12         7.7633  -19.5499  -21.1084 H         1 O33         0.0245
     67 H13         8.0587  -18.0135  -20.2260 H         1 O33         0.0245
     68 H14         7.9000  -19.5549  -19.3174 H         1 O33         0.0245
     69 H15        11.2988  -18.7639  -21.8012 H         1 O33         0.0245
     70 H16         9.9769  -17.5623  -21.6136 H         1 O33         0.0245
     71 H17         9.6815  -19.0897  -22.5117 H         1 O33         0.0245
     72 H18        14.3985  -25.4109  -18.3843 H         1 O33         0.0424
     73 H19        16.0112  -25.9986  -18.9139 H         1 O33         0.0424
     74 H20        19.3098  -23.4363  -15.5337 H         1 O33         0.0865
     75 H21        19.5749  -25.0864  -16.1920 H         1 O33         0.0865
     76 H22        16.3189  -25.0304  -22.5151 H         1 O33         0.0341
     77 H23        16.6722  -26.2438  -21.2387 H         1 O33         0.0341
     78 H24        17.1967  -24.5389  -21.0270 H         1 O33         0.0341
     79 H25        17.7369  -27.0098   -9.5822 H         1 O33         0.0845
     80 H26        14.7076  -27.3733  -12.4668 H         1 O33         0.0749
     81 H27        16.0248  -26.0445  -14.1129 H         1 O33         0.0722
     82 H28         7.9336  -18.3839  -16.2882 H         1 O33         0.0732
     83 H29         9.3373  -16.8325  -18.3520 H         1 O33         0.1881
     84 H30        10.8136  -17.7870  -15.1709 H         1 O33         0.0538
     85 H31        11.4041  -16.6235  -13.0317 H         1 O33         0.0541
     86 H32         9.8538  -14.9193  -12.1131 H         1 O33         0.0541
     87 H33         7.6361  -14.5066  -13.1647 H         1 O33         0.0537
     88 H34         6.4793  -14.7258  -15.7527 H         1 O33         0.0439
     89 H35         5.9251  -16.3270  -15.1563 H         1 O33         0.0439
     90 H36         6.3827  -16.9524  -17.4010 H         1 O33         0.0659
     91 H37         7.0567  -14.7669  -17.9684 H         1 O33         0.2103
     92 H38        15.2276  -18.2873  -19.4922 H         1 O33         0.2134
     93 H39        17.7587  -22.3291  -13.4854 H         1 O33         0.0599
     94 H40        13.0619  -21.3090  -14.7335 H         1 O33         0.0557
     95 H41        16.3018  -21.4458  -17.7783 H         1 O33         0.1859
     96 H42        16.2880  -24.7217  -16.4414 H         1 O33         0.1884
     97 H43        20.3431  -24.0679  -13.9919 H         1 O33         0.0535
     98 H44        21.2092  -24.5347  -11.7011 H         1 O33         0.0607
     99 H45        19.8259  -25.8235  -10.0861 H         1 O33         0.0527
@<TRIPOS>BOND
     1   17    1 1  
     2    1   47 am 
     3    1   48 2  
     4    2    3 1  
     5    2   16 1  
     6   47    2 1  
     7    3   44 am 
     8    3   45 2  
     9    4    5 1  
    10    4    7 1  
    11   44    4 1  
    12    5    6 1  
    13    5   41 1  
    14    6   39 am 
    15    6   40 2  
    16    7    8 1  
    17    8    9 ar 
    18    8   43 ar 
    19    9   42 ar 
    20   11   10 ar 
    21   42   10 ar 
    22   43   11 ar 
    23   12   38 1  
    24   39   12 1  
    25   13   26 1  
    26   13   37 1  
    27   39   13 1  
    28   37   14 1  
    29   37   15 1  
    30   16   46 1  
    31   49   17 1  
    32   46   18 1  
    33   20   19 ar 
    34   19   21 ar 
    35   19   53 ar 
    36   20   23 ar 
    37   50   20 ar 
    38   21   54 ar 
    39   23   22 ar 
    40   22   54 ar 
    41   27   24 1  
    42   24   28 1  
    43   24   35 1  
    44   26   25 2  
    45   26   27 am 
    46   28   29 ar 
    47   28   33 ar 
    48   29   30 ar 
    49   30   31 ar 
    50   32   31 ar 
    51   33   32 ar 
    52   34   33 1  
    53   35   34 1  
    54   35   36 1  
    55   37   38 1  
    56   49   50 1  
    57   50   51 ar 
    58   51   52 ar 
    59   52   53 ar 
    60    2   55 1  
    61    4   56 1  
    62    5   57 1  
    63    7   58 1  
    64    7   59 1  
    65    9   60 1  
    66   10   61 1  
    67   11   62 1  
    68   12   63 1  
    69   12   64 1  
    70   13   65 1  
    71   14   66 1  
    72   14   67 1  
    73   14   68 1  
    74   15   69 1  
    75   15   70 1  
    76   15   71 1  
    77   16   72 1  
    78   16   73 1  
    79   17   74 1  
    80   17   75 1  
    81   18   76 1  
    82   18   77 1  
    83   18   78 1  
    84   21   79 1  
    85   22   80 1  
    86   23   81 1  
    87   24   82 1  
    88   27   83 1  
    89   29   84 1  
    90   30   85 1  
    91   31   86 1  
    92   32   87 1  
    93   34   88 1  
    94   34   89 1  
    95   35   90 1  
    96   36   91 1  
    97   41   92 1  
    98   42   93 1  
    99   43   94 1  
   100   44   95 1  
   101   47   96 1  
   102   51   97 1  
   103   52   98 1  
   104   53   99 1  
@<TRIPOS>SUBSTRUCTURE
     1 O33         1

