### 
### Created by X-TOOL on Mon Sep 10 21:12:57 2018
### 

@<TRIPOS>MOLECULE
2pks_ligand
   47    49     1     0     0
SMALL
GAST_HUCK


@<TRIPOS>ATOM
      1 C1         22.0150  -16.8170   25.3410 C.3       1 G44        -0.0301
      2 C2         20.9810  -15.7310   25.1810 C.ar      1 G44        -0.0405
      3 C3         21.2030  -14.5120   25.7950 C.ar      1 G44        -0.0561
      4 C4         20.2950  -13.4690   25.6770 C.ar      1 G44        -0.0627
      5 C5         19.1560  -13.6290   24.9310 C.ar      1 G44        -0.0501
      6 C6         18.9040  -14.8360   24.2890 C.ar      1 G44         0.0293
      7 C7         19.8460  -15.8960   24.4080 C.ar      1 G44        -0.0422
      8 C8         17.7730  -14.9360   23.3280 C.2       1 G44         0.1656
      9 O9         17.0110  -15.8760   23.2620 O.2       1 G44        -0.3615
     10 C10        17.7900  -13.9210   22.2090 C.ar      1 G44         0.0416
     11 C11        19.0200  -13.8330   21.5050 C.ar      1 G44        -0.0303
     12 C12        19.1680  -12.9380   20.4520 C.ar      1 G44         0.0011
     13 N13        18.1160  -12.1930   20.0650 N.ar      1 G44        -0.2807
     14 C14        16.8820  -12.2300   20.5930 C.ar      1 G44         0.1185
     15 N15        15.9380  -11.3030   20.0160 N.pl3     1 G44        -0.2961
     16 C16        14.4800  -11.3670   19.5900 C.3       1 G44         0.0604
     17 C17        13.5440  -11.0210   20.7270 C.ar      1 G44        -0.0213
     18 C18        13.0530  -12.1060   21.3700 C.ar      1 G44        -0.0584
     19 C19        12.2680  -11.9940   22.4790 C.ar      1 G44        -0.0633
     20 C20        11.9900  -10.7340   22.9680 C.ar      1 G44         0.0188
     21 C21        12.4470   -9.5790   22.3270 C.ar      1 G44        -0.0633
     22 C22        13.2390   -9.7420   21.1740 C.ar      1 G44        -0.0584
     23 C23        11.1130  -10.7450   24.1410 C.cat     1 G44         0.2318
     24 N24        10.6740  -11.8900   24.5390 N.pl3     1 G44        -0.2729
     25 N25        10.7470   -9.6140   24.8540 N.pl3     1 G44        -0.2729
     26 C26        16.7140  -13.0930   21.7440 C.ar      1 G44         0.0019
     27 H1         22.8230  -16.4602   25.9966 H         1 G44         0.0391
     28 H2         22.4298  -17.0764   24.3558 H         1 G44         0.0391
     29 H3         21.5465  -17.7065   25.7873 H         1 G44         0.0391
     30 H4         22.1041  -14.3682   26.3801 H         1 G44         0.0594
     31 H5         20.4868  -12.5259   26.1758 H         1 G44         0.0612
     32 H6         18.4496  -12.8117   24.8415 H         1 G44         0.0612
     33 H7         19.6738  -16.8338   23.8923 H         1 G44         0.0608
     34 H8         19.8500  -14.4688   21.7911 H         1 G44         0.0644
     35 H9         20.1222  -12.8408   19.9469 H         1 G44         0.0791
     36 H10        16.3521  -10.3740   19.8537 H         1 G44         0.1828
     37 H11        14.2555  -12.3862   19.2424 H         1 G44         0.0681
     38 H12        14.3184  -10.6550   18.7673 H         1 G44         0.0681
     39 H13        13.2910  -13.0936   20.9919 H         1 G44         0.0557
     40 H14        11.8704  -12.8767   22.9666 H         1 G44         0.0599
     41 H15        12.2006   -8.5930   22.7040 H         1 G44         0.0599
     42 H16        13.6082   -8.8746   20.6388 H         1 G44         0.0557
     43 H17        10.0543  -11.9470   25.3597 H         1 G44         0.3180
     44 H18        10.9430  -12.7478   24.0362 H         1 G44         0.3180
     45 H19        11.0838   -8.6869   24.5575 H         1 G44         0.3180
     46 H20        10.1382   -9.7007   25.6803 H         1 G44         0.3180
     47 H21        15.7618  -13.1138   22.2617 H         1 G44         0.0661
@<TRIPOS>BOND
     1    1    2 1  
     2    2    3 ar 
     3    2    7 ar 
     4    3    4 ar 
     5    4    5 ar 
     6    5    6 ar 
     7    6    7 ar 
     8    6    8 1  
     9    8    9 2  
    10    8   10 1  
    11   10   11 ar 
    12   10   26 ar 
    13   11   12 ar 
    14   12   13 ar 
    15   13   14 ar 
    16   14   15 1  
    17   14   26 ar 
    18   15   16 1  
    19   16   17 1  
    20   17   18 ar 
    21   17   22 ar 
    22   18   19 ar 
    23   19   20 ar 
    24   20   21 ar 
    25   20   23 1  
    26   21   22 ar 
    27   23   24 ar 
    28   23   25 ar 
    29    1   27 1  
    30    1   28 1  
    31    1   29 1  
    32    3   30 1  
    33    4   31 1  
    34    5   32 1  
    35    7   33 1  
    36   11   34 1  
    37   12   35 1  
    38   15   36 1  
    39   16   37 1  
    40   16   38 1  
    41   18   39 1  
    42   19   40 1  
    43   21   41 1  
    44   22   42 1  
    45   24   43 1  
    46   24   44 1  
    47   25   45 1  
    48   25   46 1  
    49   26   47 1  
@<TRIPOS>SUBSTRUCTURE
     1 G44         1

