### 
### Created by X-TOOL on Mon Sep 10 21:12:56 2018
### 

@<TRIPOS>MOLECULE
2pl0_ligand
   70    74     1     0     0
SMALL
GAST_HUCK


@<TRIPOS>ATOM
      1 C1         29.5530   18.3180    4.0590 C.ar      1 STI        -0.0301
      2 C6         28.6700   17.7700    5.0050 C.ar      1 STI        -0.0291
      3 C5         29.0870   16.6420    5.7800 C.ar      1 STI         0.0316
      4 C4         30.3950   16.1200    5.5550 C.ar      1 STI         0.0248
      5 N3         31.1990   16.6850    4.6360 N.ar      1 STI        -0.2920
      6 C2         30.8250   17.7460    3.8980 C.ar      1 STI         0.0142
      7 C7         28.1590   16.0470    6.7960 C.ar      1 STI         0.0621
      8 C12        28.3950   14.7670    7.3770 C.ar      1 STI        -0.0153
      9 C11        27.4620   14.3000    8.3220 C.ar      1 STI         0.0146
     10 N10        26.3970   15.0630    8.6440 N.ar      1 STI        -0.2516
     11 C9         26.2060   16.2690    8.0720 C.ar      1 STI         0.2094
     12 N8         27.0670   16.7450    7.1750 N.ar      1 STI        -0.2455
     13 N13        25.1030   17.0500    8.3970 N.pl3     1 STI        -0.2475
     14 C14        24.1300   16.6660    9.3360 C.ar      1 STI         0.0547
     15 C19        23.1110   15.7050    9.0180 C.ar      1 STI        -0.0359
     16 C18        22.1550   15.3590    9.9920 C.ar      1 STI        -0.0821
     17 C17        22.1930   15.9500   11.2730 C.ar      1 STI        -0.0588
     18 C16        23.1950   16.9040   11.6020 C.ar      1 STI         0.0494
     19 C15        24.1620   17.2540   10.6200 C.ar      1 STI        -0.0244
     20 N21        23.1750   17.4890   12.9100 N.am      1 STI        -0.2404
     21 C22        24.1680   18.2310   13.5100 C.2       1 STI         0.2255
     22 C23        23.9360   18.7710   14.8790 C.ar      1 STI         0.0485
     23 C25        23.0740   18.0890   15.7900 C.ar      1 STI        -0.0479
     24 C26        22.8580   18.6090   17.0850 C.ar      1 STI        -0.0494
     25 C27        23.4980   19.8080   17.4860 C.ar      1 STI         0.0061
     26 C28        24.3530   20.4900   16.5850 C.ar      1 STI        -0.0494
     27 C29        24.5750   19.9810   15.2930 C.ar      1 STI        -0.0479
     28 C46        23.2760   20.3770   18.8800 C.3       1 STI         0.0045
     29 N48        23.4910   19.3560   19.9290 N.4       1 STI         0.2553
     30 C53        24.9350   19.0940   20.1820 C.3       1 STI         0.0110
     31 C52        25.0660   17.9330   21.1920 C.3       1 STI         0.0092
     32 N51        24.3330   18.2690   22.4410 N.4       1 STI         0.2405
     33 C54        24.4670   17.1930   23.4340 C.3       1 STI        -0.0427
     34 C50        22.9000   18.5900   22.2030 C.3       1 STI         0.0092
     35 C49        22.7870   19.7400   21.1780 C.3       1 STI         0.0110
     36 O29        25.2280   18.4670   12.9470 O.2       1 STI        -0.3771
     37 C20        23.0360   15.0570    7.6520 C.3       1 STI        -0.0402
     38 H1         29.2557   19.1718    3.4610 H         1 STI         0.0718
     39 H2         27.6838   18.1973    5.1460 H         1 STI         0.0773
     40 H3         30.7421   15.2662    6.1256 H         1 STI         0.0864
     41 H4         31.5129   18.1635    3.1716 H         1 STI         0.0847
     42 H5         29.2605   14.1753    7.1015 H         1 STI         0.0677
     43 H6         27.5987   13.3314    8.7890 H         1 STI         0.0893
     44 H7         24.9928   17.9586    7.9245 H         1 STI         0.2158
     45 H8         21.3846   14.6338    9.7564 H         1 STI         0.0490
     46 H9         21.4510   15.6740   12.0135 H         1 STI         0.0394
     47 H10        24.9314   17.9792   10.8591 H         1 STI         0.0399
     48 H11        22.3454   17.3416   13.4485 H         1 STI         0.2227
     49 H12        22.5845   17.1705   15.4871 H         1 STI         0.0652
     50 H13        22.2013   18.0899   17.7737 H         1 STI         0.0572
     51 H14        24.8385   21.4089   16.8933 H         1 STI         0.0572
     52 H15        25.2319   20.5071   14.6097 H         1 STI         0.0652
     53 H16        22.2438   20.7503   18.9523 H         1 STI         0.0991
     54 H17        23.9786   21.2077   19.0419 H         1 STI         0.0991
     55 H18        23.0835   18.4946   19.6003 H         1 STI         0.2053
     56 H19        25.4068   19.9975   20.5955 H         1 STI         0.0868
     57 H20        25.4309   18.8202   19.2391 H         1 STI         0.0868
     58 H21        26.1285   17.7691   21.4247 H         1 STI         0.0868
     59 H22        24.6412   17.0178   20.7539 H         1 STI         0.0868
     60 H23        24.7638   19.0949   22.8261 H         1 STI         0.2035
     61 H24        23.9169   17.4658   24.3467 H         1 STI         0.0778
     62 H25        25.5301   17.0479   23.6763 H         1 STI         0.0778
     63 H26        24.0542   16.2603   23.0220 H         1 STI         0.0778
     64 H27        22.4320   18.8970   23.1499 H         1 STI         0.0868
     65 H28        22.3860   17.6997   21.8116 H         1 STI         0.0868
     66 H29        21.7267   19.9326   20.9576 H         1 STI         0.0868
     67 H30        23.2461   20.6490   21.5938 H         1 STI         0.0868
     68 H31        23.8518   15.4381    7.0201 H         1 STI         0.0342
     69 H32        22.0689   15.2957    7.1855 H         1 STI         0.0342
     70 H33        23.1329   13.9664    7.7577 H         1 STI         0.0342
@<TRIPOS>BOND
     1    1    2 ar 
     2    1    6 ar 
     3    2    3 ar 
     4    3    4 ar 
     5    3    7 1  
     6    4    5 ar 
     7    5    6 ar 
     8    7    8 ar 
     9    7   12 ar 
    10    8    9 ar 
    11    9   10 ar 
    12   10   11 ar 
    13   11   12 ar 
    14   11   13 1  
    15   13   14 1  
    16   14   15 ar 
    17   14   19 ar 
    18   15   16 ar 
    19   15   37 1  
    20   16   17 ar 
    21   17   18 ar 
    22   18   19 ar 
    23   18   20 1  
    24   20   21 am 
    25   21   22 1  
    26   21   36 2  
    27   22   23 ar 
    28   22   27 ar 
    29   23   24 ar 
    30   24   25 ar 
    31   25   26 ar 
    32   25   28 1  
    33   26   27 ar 
    34   28   29 1  
    35   29   30 1  
    36   29   35 1  
    37   30   31 1  
    38   31   32 1  
    39   32   33 1  
    40   32   34 1  
    41   34   35 1  
    42    1   38 1  
    43    2   39 1  
    44    4   40 1  
    45    6   41 1  
    46    8   42 1  
    47    9   43 1  
    48   13   44 1  
    49   16   45 1  
    50   17   46 1  
    51   19   47 1  
    52   20   48 1  
    53   23   49 1  
    54   24   50 1  
    55   26   51 1  
    56   27   52 1  
    57   28   53 1  
    58   28   54 1  
    59   29   55 1  
    60   30   56 1  
    61   30   57 1  
    62   31   58 1  
    63   31   59 1  
    64   32   60 1  
    65   33   61 1  
    66   33   62 1  
    67   33   63 1  
    68   34   64 1  
    69   34   65 1  
    70   35   66 1  
    71   35   67 1  
    72   37   68 1  
    73   37   69 1  
    74   37   70 1  
@<TRIPOS>SUBSTRUCTURE
     1 STI         1

