### 
### Created by X-TOOL on Mon Sep 10 21:12:58 2018
### 

@<TRIPOS>MOLECULE
2pmn_ligand
   43    45     1     0     0
SMALL
GAST_HUCK


@<TRIPOS>ATOM
      1 N4         -7.0100  -30.4760  -16.1160 N.1       1 K51        -0.3355
      2 C13        -7.9230  -31.1730  -16.2920 C.1       1 K51         0.0918
      3 C10        -8.9790  -31.8490  -16.5670 C.ar      1 K51         0.0879
      4 C11        -9.4110  -32.8210  -15.6750 C.ar      1 K51        -0.0333
      5 C12       -10.5550  -33.5620  -15.9570 C.ar      1 K51        -0.0485
      6 C7        -11.2670  -33.3570  -17.1340 C.ar      1 K51         0.0080
      7 C8        -10.8380  -32.3600  -18.0180 C.ar      1 K51        -0.0485
      8 C9         -9.6870  -31.6160  -17.7470 C.ar      1 K51        -0.0333
      9 C5        -12.5240  -34.1400  -17.3490 C.2       1 K51         0.1171
     10 C6        -13.3780  -34.6890  -16.4170 C.2       1 K51        -0.0074
     11 N3        -14.4000  -35.2280  -17.1240 N.2       1 K51        -0.3243
     12 C1        -14.1990  -35.0000  -18.4390 C.2       1 K51         0.1638
     13 C2        -14.9340  -35.3330  -19.5640 C.2       1 K51         0.0053
     14 C3        -14.4630  -34.9530  -20.8060 C.2       1 K51         0.0003
     15 C4        -13.2690  -34.2420  -20.9150 C.2       1 K51         0.1484
     16 N1        -12.5660  -33.9250  -19.8050 N.2       1 K51        -0.1440
     17 N2        -13.0600  -34.3250  -18.5620 N.pl3     1 K51        -0.1404
     18 N5        -12.8200  -33.8650  -22.1300 N.pl3     1 K51        -0.2985
     19 C14       -11.4320  -33.5160  -22.3460 C.3       1 K51         0.0631
     20 C15       -11.2480  -31.9960  -22.2590 C.3       1 K51         0.0669
     21 O1        -12.1630  -31.2950  -23.1080 O.3       1 K51        -0.3928
     22 C16       -10.9960  -34.1700  -23.6610 C.3       1 K51        -0.0220
     23 C17       -10.4040  -35.5350  -23.3420 C.3       1 K51        -0.0605
     24 C18       -10.0290  -33.3520  -24.5180 C.3       1 K51        -0.0605
     25 H1         -8.8583  -33.0026  -14.7603 H         1 K51         0.0698
     26 H2        -10.8957  -34.3092  -15.2494 H         1 K51         0.0598
     27 H3        -11.4042  -32.1634  -18.9213 H         1 K51         0.0598
     28 H4         -9.3462  -30.8630  -18.4483 H         1 K51         0.0698
     29 H5        -13.2562  -34.6894  -15.3348 H         1 K51         0.0587
     30 H6        -15.8680  -35.8853  -19.4715 H         1 K51         0.0752
     31 H7        -15.0260  -35.2096  -21.7022 H         1 K51         0.0696
     32 H8        -13.4789  -33.8247  -22.9207 H         1 K51         0.1795
     33 H9        -10.8281  -33.9588  -21.5402 H         1 K51         0.0575
     34 H10       -10.2204  -31.7449  -22.5606 H         1 K51         0.0580
     35 H11       -11.4132  -31.6773  -21.2192 H         1 K51         0.0580
     36 H12       -12.0170  -30.3599  -23.0253 H         1 K51         0.2095
     37 H13       -11.9031  -34.3217  -24.2645 H         1 K51         0.0318
     38 H14       -10.0838  -36.0228  -24.2745 H         1 K51         0.0233
     39 H15       -11.1631  -36.1568  -22.8449 H         1 K51         0.0233
     40 H16        -9.5371  -35.4122  -22.6761 H         1 K51         0.0233
     41 H17       -10.4742  -32.3704  -24.7376 H         1 K51         0.0233
     42 H18        -9.8333  -33.8849  -25.4602 H         1 K51         0.0233
     43 H19        -9.0840  -33.2123  -23.9727 H         1 K51         0.0233
@<TRIPOS>BOND
     1    1    2 3  
     2    2    3 1  
     3    3    4 ar 
     4    3    8 ar 
     5    4    5 ar 
     6    5    6 ar 
     7    6    7 ar 
     8    6    9 1  
     9    7    8 ar 
    10    9   10 2  
    11    9   17 1  
    12   10   11 1  
    13   11   12 2  
    14   12   13 1  
    15   12   17 1  
    16   13   14 2  
    17   14   15 1  
    18   15   16 2  
    19   15   18 1  
    20   16   17 1  
    21   18   19 1  
    22   19   20 1  
    23   19   22 1  
    24   20   21 1  
    25   22   23 1  
    26   22   24 1  
    27    4   25 1  
    28    5   26 1  
    29    7   27 1  
    30    8   28 1  
    31   10   29 1  
    32   13   30 1  
    33   14   31 1  
    34   18   32 1  
    35   19   33 1  
    36   20   34 1  
    37   20   35 1  
    38   21   36 1  
    39   22   37 1  
    40   23   38 1  
    41   23   39 1  
    42   23   40 1  
    43   24   41 1  
    44   24   42 1  
    45   24   43 1  
@<TRIPOS>SUBSTRUCTURE
     1 K51         1

