### 
### Created by X-TOOL on Fri Sep 26 17:34:42 2014
### 

@<TRIPOS>MOLECULE
2pnc_ligand
   24    25     1     0     0
SMALL
GAST_HUCK


@<TRIPOS>ATOM
      1 CL1        37.0790   -8.9240   43.0460 Cl        1 CLU        -0.0201
      2 CAM        33.3700  -10.2680   42.1170 C.ar      1 CLU         0.1625
      3 CAE        32.8120   -9.1890   41.4380 C.ar      1 CLU         0.0230
      4 CAC        33.5550   -8.0300   41.2450 C.ar      1 CLU         0.0043
      5 CAD        34.8510   -7.9540   41.7370 C.ar      1 CLU         0.0230
      6 CAN        34.6660  -10.1930   42.6000 C.ar      1 CLU         0.2048
      7 CAL        35.4040   -9.0350   42.4140 C.ar      1 CLU         0.1625
      8 CL2        32.4050  -11.7610   42.3600 Cl        1 CLU        -0.0201
      9 NAJ        35.1980  -11.2170   43.2650 N.pl3     1 CLU        -0.2289
     10 CAK        36.0320  -12.2400   42.8240 C.cat     1 CLU         0.1772
     11 NAI        36.4350  -12.3300   41.5580 N.pl3     1 CLU        -0.3320
     12 CAG        37.2420  -13.5250   41.3250 C.3       1 CLU         0.0387
     13 CAF        37.7120  -13.8530   42.7540 C.3       1 CLU         0.0387
     14 NAH        36.5950  -13.3060   43.5130 N.pl3     1 CLU        -0.3320
     15 H1         31.7981   -9.2523   41.0596 H         1 CLU         0.0853
     16 H2         33.1244   -7.1895   40.7128 H         1 CLU         0.1176
     17 H3         35.4325   -7.0506   41.5931 H         1 CLU         0.0853
     18 H4         34.9532  -11.2583   44.2646 H         1 CLU         0.2531
     19 H5         36.2050  -11.6390   40.8296 H         1 CLU         0.1708
     20 H6         38.0922  -13.3137   40.6598 H         1 CLU         0.0539
     21 H7         36.6393  -14.3420   40.9016 H         1 CLU         0.0539
     22 H8         38.6588  -13.3496   42.9991 H         1 CLU         0.0539
     23 H9         37.8215  -14.9363   42.9103 H         1 CLU         0.0539
     24 H10        36.2711  -13.6578   44.4252 H         1 CLU         0.1708
@<TRIPOS>BOND
     1    7    1 1  
     2    3    2 ar 
     3    2    6 ar 
     4    2    8 1  
     5    4    3 ar 
     6    5    4 ar 
     7    5    7 ar 
     8    6    7 ar 
     9    6    9 1  
    10    9   10 ar 
    11   10   11 ar 
    12   10   14 ar 
    13   11   12 1  
    14   12   13 1  
    15   13   14 1  
    16    3   15 1  
    17    4   16 1  
    18    5   17 1  
    19    9   18 1  
    20   11   19 1  
    21   12   20 1  
    22   12   21 1  
    23   13   22 1  
    24   13   23 1  
    25   14   24 1  
@<TRIPOS>SUBSTRUCTURE
     1 CLU         1

