### 
### Created by X-TOOL on Mon Sep 10 21:12:56 2018
### 

@<TRIPOS>MOLECULE
2pog_ligand
   39    42     1     0     0
SMALL
GAST_HUCK


@<TRIPOS>ATOM
      1 C1         14.5050   51.0830   58.9950 C.ar      1 WST         0.0179
      2 C2         15.8900   50.8660   58.6040 C.ar      1 WST         0.0811
      3 O3         16.9020   51.3380   59.2370 O.3       1 WST        -0.3399
      4 C4         16.0760   50.0670   57.4220 C.ar      1 WST        -0.0507
      5 C5         15.0010   49.5080   56.6680 C.ar      1 WST        -0.0858
      6 C6         13.6700   49.7320   57.0740 C.ar      1 WST        -0.0503
      7 C7         13.4230   50.5100   58.2250 C.ar      1 WST         0.0875
      8 O8         12.0970   50.6770   58.5540 O.3       1 WST        -0.3104
      9 C9         11.7640   51.9600   59.1550 C.3       1 WST         0.1125
     10 C11        12.6450   52.2650   60.4200 C.3       1 WST         0.0071
     11 C13        14.1540   51.9210   60.2370 C.3       1 WST        -0.0044
     12 C15        14.5790   51.2410   61.5600 C.3       1 WST        -0.0432
     13 C16        13.4980   51.5960   62.5590 C.3       1 WST        -0.0509
     14 C17        12.2370   51.5520   61.7220 C.3       1 WST        -0.0442
     15 C18        10.2580   52.0450   59.4310 C.ar      1 WST        -0.0205
     16 C19         9.4580   50.8660   59.3060 C.ar      1 WST        -0.0659
     17 C20         8.0670   50.9000   59.5580 C.ar      1 WST        -0.0397
     18 C21         7.3750   52.0940   59.9470 C.ar      1 WST         0.0805
     19 O22         6.1260   52.1100   60.1730 O.3       1 WST        -0.3376
     20 C23         8.2010   53.2630   60.0640 C.ar      1 WST        -0.0397
     21 C24         9.6070   53.2550   59.8170 C.ar      1 WST        -0.0659
     22 H1         17.7013   51.0680   58.8004 H         1 WST         0.2452
     23 H2         17.0892   49.8792   57.0854 H         1 WST         0.0433
     24 H3         15.2075   48.9130   55.7858 H         1 WST         0.0506
     25 H4         12.8460   49.3117   56.5088 H         1 WST         0.0433
     26 H5         11.9986   52.7375   58.4131 H         1 WST         0.0794
     27 H6         12.5595   53.3480   60.5923 H         1 WST         0.0369
     28 H7         14.7060   52.8674   60.1389 H         1 WST         0.0419
     29 H8         15.5537   51.6255   61.8947 H         1 WST         0.0285
     30 H9         14.6400   50.1504   61.4301 H         1 WST         0.0285
     31 H10        13.6603   52.6001   62.9777 H         1 WST         0.0267
     32 H11        13.4568   50.8604   63.3758 H         1 WST         0.0267
     33 H12        11.9332   50.5137   61.5231 H         1 WST         0.0272
     34 H13        11.4148   52.0854   62.2214 H         1 WST         0.0272
     35 H14         9.9250   49.9324   59.0137 H         1 WST         0.0531
     36 H15         7.4988   49.9829   59.4524 H         1 WST         0.0525
     37 H16         5.8605   52.9892   60.4160 H         1 WST         0.2458
     38 H17         7.7339   54.1972   60.3541 H         1 WST         0.0525
     39 H18        10.1806   54.1687   59.9227 H         1 WST         0.0531
@<TRIPOS>BOND
     1    1    2 ar 
     2    1    7 ar 
     3    1   11 1  
     4    2    3 1  
     5    2    4 ar 
     6    4    5 ar 
     7    5    6 ar 
     8    6    7 ar 
     9    7    8 1  
    10    8    9 1  
    11    9   10 1  
    12    9   15 1  
    13   10   11 1  
    14   10   14 1  
    15   11   12 1  
    16   12   13 1  
    17   13   14 1  
    18   15   16 ar 
    19   15   21 ar 
    20   16   17 ar 
    21   17   18 ar 
    22   18   19 1  
    23   18   20 ar 
    24   20   21 ar 
    25    3   22 1  
    26    4   23 1  
    27    5   24 1  
    28    6   25 1  
    29    9   26 1  
    30   10   27 1  
    31   11   28 1  
    32   12   29 1  
    33   12   30 1  
    34   13   31 1  
    35   13   32 1  
    36   14   33 1  
    37   14   34 1  
    38   16   35 1  
    39   17   36 1  
    40   19   37 1  
    41   20   38 1  
    42   21   39 1  
@<TRIPOS>SUBSTRUCTURE
     1 WST         1

