### 
### Created by X-TOOL on Mon Sep 10 21:12:55 2018
### 

@<TRIPOS>MOLECULE
2poq_ligand
   22    22     1     0     0
SMALL
GAST_HUCK


@<TRIPOS>ATOM
      1 O6        -15.4620  -47.8030    2.6370 O.2       1 ISD        -0.3674
      2 C5        -15.8510  -46.8260    3.2280 C.2       1 ISD         0.2660
      3 C4        -15.7920  -46.7720    4.4890 C.3       1 ISD         0.1835
      4 O8        -16.2030  -47.8320    5.2000 O.3       1 ISD        -0.3674
      5 C3        -15.3490  -45.5140    4.7700 C.3       1 ISD         0.1324
      6 O7        -14.4850  -45.1570    5.7440 O.3       1 ISD        -0.3837
      7 O1        -16.2980  -45.5250    2.7460 O.3       1 ISD        -0.2659
      8 C2        -15.8980  -44.5310    3.7340 C.3       1 ISD         0.1459
      9 C9        -14.9920  -43.3640    3.1580 C.3       1 ISD         0.1113
     10 O11       -13.8600  -42.9860    3.9670 O.3       1 ISD        -0.3865
     11 C13       -15.7240  -42.0410    2.8600 C.3       1 ISD         0.0730
     12 O14       -16.0470  -41.8130    1.4730 O.3       1 ISD        -0.3924
     13 H1        -14.7670  -47.1667    4.5485 H         1 ISD         0.0882
     14 H2        -15.6805  -48.5904    4.9666 H         1 ISD         0.2136
     15 H3        -16.1845  -45.3333    5.4623 H         1 ISD         0.0677
     16 H4        -14.3497  -44.2170    5.7169 H         1 ISD         0.2102
     17 H5        -16.7856  -44.0347    4.1534 H         1 ISD         0.0705
     18 H6        -14.5998  -43.7454    2.2037 H         1 ISD         0.0647
     19 H7        -13.3854  -42.2842    3.5373 H         1 ISD         0.2100
     20 H8        -15.0830  -41.2142    3.1997 H         1 ISD         0.0584
     21 H9        -16.6632  -42.0360    3.4326 H         1 ISD         0.0584
     22 H10       -16.4936  -40.9791    1.3860 H         1 ISD         0.2095
@<TRIPOS>BOND
     1    1    2 2  
     2    2    3 1  
     3    2    7 1  
     4    3    4 1  
     5    3    5 1  
     6    5    6 1  
     7    5    8 1  
     8    7    8 1  
     9    8    9 1  
    10    9   10 1  
    11    9   11 1  
    12   11   12 1  
    13    3   13 1  
    14    4   14 1  
    15    5   15 1  
    16    6   16 1  
    17    8   17 1  
    18    9   18 1  
    19   10   19 1  
    20   11   20 1  
    21   11   21 1  
    22   12   22 1  
@<TRIPOS>SUBSTRUCTURE
     1 ISD         1

