### 
### Created by X-TOOL on Mon Sep 10 21:12:55 2018
### 

@<TRIPOS>MOLECULE
2pou_ligand
   22    22     1     0     0
SMALL
GAST_HUCK


@<TRIPOS>ATOM
      1 S1         -3.8520    2.1690   11.9070 S.o2      1 I7A         0.0660
      2 O1         -4.5040    2.9300   10.8880 O.2       1 I7A        -0.1505
      3 O2         -3.8880    0.7430   11.8550 O.2       1 I7A        -0.1505
      4 N1         -2.3410    2.6200   11.9690 N.am      1 I7A        -0.2609
      5 S2         -5.9440    0.7900   16.7620 S.o2      1 I7A         0.0664
      6 O3         -5.2420    1.1140   17.9710 O.2       1 I7A        -0.1504
      7 O4         -7.3690    0.7690   16.7720 O.2       1 I7A        -0.1504
      8 N2         -5.4090   -0.5950   16.2520 N.am      1 I7A        -0.2609
      9 C1         -4.5900    2.6530   13.4350 C.ar      1 I7A         0.1104
     10 C2         -4.9290    1.6710   14.3820 C.ar      1 I7A        -0.0079
     11 C3         -5.5260    2.0580   15.5950 C.ar      1 I7A         0.1241
     12 C4         -5.7820    3.4210   15.8600 C.ar      1 I7A         0.0809
     13 C5         -5.4310    4.3870   14.9070 C.ar      1 I7A         0.0581
     14 C6         -4.8370    4.0240   13.6910 C.ar      1 I7A        -0.0206
     15 CL1        -6.5140    3.9040   17.3140 Cl        1 I7A        -0.0680
     16 CL2        -5.7340    6.0460   15.2320 Cl        1 I7A        -0.0699
     17 H1         -2.1107    3.5922   12.0107 H         1 I7A         0.1635
     18 H2         -1.6138    1.9336   11.9666 H         1 I7A         0.1635
     19 H3         -4.4245   -0.7555   16.1815 H         1 I7A         0.1635
     20 H4         -6.0527   -1.3167   15.9976 H         1 I7A         0.1635
     21 H5         -4.7319    0.6246   14.1790 H         1 I7A         0.0658
     22 H6         -4.5713    4.7786   12.9595 H         1 I7A         0.0643
@<TRIPOS>BOND
     1    1    2 2  
     2    1    3 2  
     3    1    4 am 
     4    9    1 1  
     5    5    6 2  
     6    5    7 2  
     7    5    8 am 
     8   11    5 1  
     9   10    9 ar 
    10    9   14 ar 
    11   10   11 ar 
    12   11   12 ar 
    13   12   13 ar 
    14   12   15 1  
    15   13   14 ar 
    16   13   16 1  
    17    4   17 1  
    18    4   18 1  
    19    8   19 1  
    20    8   20 1  
    21   10   21 1  
    22   14   22 1  
@<TRIPOS>SUBSTRUCTURE
     1 I7A         1

