### 
### Created by X-TOOL on Mon Sep 10 21:12:55 2018
### 

@<TRIPOS>MOLECULE
2pov_ligand
   24    24     1     0     0
SMALL
GAST_HUCK


@<TRIPOS>ATOM
      1 C2         -5.0010    1.8880   14.4280 C.ar      1 I7B        -0.0199
      2 C1         -4.6880    2.8680   13.4690 C.ar      1 I7B         0.1264
      3 C6         -4.9860    4.2330   13.6890 C.ar      1 I7B         0.0626
      4 C5         -5.6030    4.5960   14.8950 C.ar      1 I7B        -0.0271
      5 C4         -5.9280    3.6290   15.8700 C.ar      1 I7B         0.0553
      6 C3         -5.6210    2.2630   15.6310 C.ar      1 I7B         0.1102
      7 S1         -3.9260    2.3540   11.9650 S.o2      1 I7B         0.0624
      8 N1         -2.4210    2.8280   11.9870 N.am      1 I7B        -0.2625
      9 O2         -3.9220    0.9300   11.9350 O.2       1 I7B        -0.1524
     10 O1         -4.6000    3.0620   10.9260 O.2       1 I7B        -0.1524
     11 S2         -5.9990    0.9650   16.7970 S.o2      1 I7B         0.0605
     12 N2         -5.4320   -0.3990   16.2560 N.am      1 I7B        -0.2623
     13 O3         -5.3270    1.2620   18.0240 O.2       1 I7B        -0.1521
     14 O4         -7.4270    0.8620   16.8030 O.2       1 I7B        -0.1521
     15 N3         -4.6950    5.2290   12.7640 N.pl3     1 I7B        -0.3354
     16 CL1        -6.6660    4.1030   17.3040 Cl        1 I7B        -0.0722
     17 H1         -4.7646    0.8471   14.2393 H         1 I7B         0.0622
     18 H2         -5.8345    5.6384   15.0816 H         1 I7B         0.0521
     19 H3         -1.8220    2.6266   11.2120 H         1 I7B         0.1633
     20 H4         -2.0663    3.3297   12.7759 H         1 I7B         0.1633
     21 H5         -5.5549   -1.2374   16.7871 H         1 I7B         0.1633
     22 H6         -4.9486   -0.4277   15.3810 H         1 I7B         0.1633
     23 H7         -4.2420    4.9864   11.8713 H         1 I7B         0.1719
     24 H8         -4.9323    6.2096   12.9713 H         1 I7B         0.1719
@<TRIPOS>BOND
     1    1    2 ar 
     2    1    6 ar 
     3    2    3 ar 
     4    2    7 1  
     5    3    4 ar 
     6    3   15 1  
     7    4    5 ar 
     8    5    6 ar 
     9    5   16 1  
    10    6   11 1  
    11    7    8 am 
    12    7    9 2  
    13    7   10 2  
    14   11   12 am 
    15   11   13 2  
    16   11   14 2  
    17    1   17 1  
    18    4   18 1  
    19    8   19 1  
    20    8   20 1  
    21   12   21 1  
    22   12   22 1  
    23   15   23 1  
    24   15   24 1  
@<TRIPOS>SUBSTRUCTURE
     1 I7B         1

