### 
### Created by X-TOOL on Mon Sep 10 21:12:55 2018
### 

@<TRIPOS>MOLECULE
2pow_ligand
   27    27     1     0     0
SMALL
GAST_HUCK


@<TRIPOS>ATOM
      1 C2         -4.9980    1.9280   14.6650 C.ar      1 I7C         0.0118
      2 C1         -5.5620    2.1870   15.9170 C.ar      1 I7C         0.1562
      3 C6         -5.7840    3.5120   16.3610 C.ar      1 I7C         0.0920
      4 C5         -5.4180    4.5720   15.5250 C.ar      1 I7C        -0.0118
      5 C4         -4.8350    4.3490   14.2420 C.ar      1 I7C         0.0622
      6 C3         -4.6310    2.9820   13.8130 C.ar      1 I7C         0.1284
      7 S1         -6.0070    0.8330   16.9470 S.o2      1 I7C         0.0756
      8 N1         -5.3870   -0.4840   16.3400 N.am      1 I7C        -0.2594
      9 O1         -5.3930    1.0370   18.2240 O.2       1 I7C        -0.1487
     10 O2         -7.4260    0.7510   16.8590 O.2       1 I7C        -0.1487
     11 S2         -3.9350    2.4800   12.2400 S.o2      1 I7C         0.0730
     12 N2         -2.3860    2.7470   12.2340 N.am      1 I7C        -0.2592
     13 O3         -4.1530    1.0690   12.1250 O.2       1 I7C        -0.1484
     14 O4         -4.5250    3.3210   11.2450 O.2       1 I7C        -0.1484
     15 N3         -6.3440    3.8070   17.5840 N.pl3     1 I7C        -0.3302
     16 C7         -4.4650    5.5270   13.4030 C.3       1 I7C         0.3751
     17 F1         -5.3940    5.8570   12.4910 F         1 I7C        -0.2207
     18 F2         -4.2780    6.6400   14.1320 F         1 I7C        -0.2207
     19 F3         -3.3140    5.3730   12.7210 F         1 I7C        -0.2207
     20 H1         -4.8422    0.9030   14.3484 H         1 I7C         0.0708
     21 H2         -5.5816    5.5897   15.8607 H         1 I7C         0.0728
     22 H3         -5.5358   -1.3623   16.7944 H         1 I7C         0.1636
     23 H4         -4.8451   -0.4408   15.5007 H         1 I7C         0.1636
     24 H5         -1.8428    2.5212   11.4253 H         1 I7C         0.1637
     25 H6         -1.9437    3.1427   13.0389 H         1 I7C         0.1637
     26 H7         -6.6229    3.0461   18.2197 H         1 I7C         0.1722
     27 H8         -6.4839    4.7886   17.8630 H         1 I7C         0.1722
@<TRIPOS>BOND
     1    1    2 ar 
     2    1    6 ar 
     3    2    3 ar 
     4    2    7 1  
     5    3    4 ar 
     6    3   15 1  
     7    4    5 ar 
     8    5    6 ar 
     9    5   16 1  
    10    6   11 1  
    11    7    8 am 
    12    7    9 2  
    13    7   10 2  
    14   11   12 am 
    15   11   13 2  
    16   11   14 2  
    17   16   17 1  
    18   16   18 1  
    19   16   19 1  
    20    1   20 1  
    21    4   21 1  
    22    8   22 1  
    23    8   23 1  
    24   12   24 1  
    25   12   25 1  
    26   15   26 1  
    27   15   27 1  
@<TRIPOS>SUBSTRUCTURE
     1 I7C         1

