### 
### Created by X-TOOL on Mon Sep 10 21:12:59 2018
### 

@<TRIPOS>MOLECULE
2pqj_ligand
   15    16     1     0     0
SMALL
GAST_HUCK


@<TRIPOS>ATOM
      1 N9        -33.7460   30.4290  -16.5350 N.pl3     1 ADE        -0.2361
      2 C8        -32.4380   30.8020  -16.5640 C.2       1 ADE         0.1072
      3 N7        -32.3290   32.0060  -17.0410 N.2       1 ADE        -0.2960
      4 C5        -33.5570   32.4920  -17.3380 C.ar      1 ADE         0.1042
      5 C6        -34.0710   33.7140  -17.8900 C.ar      1 ADE         0.1298
      6 N6        -33.2270   34.7630  -18.2290 N.pl3     1 ADE        -0.3152
      7 N1        -35.4030   33.8350  -18.0550 N.ar      1 ADE        -0.2698
      8 C2        -36.2370   32.8470  -17.7370 C.ar      1 ADE         0.0533
      9 N3        -35.8030   31.6940  -17.2330 N.ar      1 ADE        -0.2715
     10 C4        -34.4890   31.4740  -17.0250 C.ar      1 ADE         0.1567
     11 H1        -34.1128   29.5250  -16.2047 H         1 ADE         0.2393
     12 H2        -31.6046   30.1826  -16.2357 H         1 ADE         0.1346
     13 H3        -33.6169   35.6308  -18.6236 H         1 ADE         0.1820
     14 H4        -32.2109   34.6734  -18.0859 H         1 ADE         0.1820
     15 H5        -37.3007   32.9857  -17.8931 H         1 ADE         0.0996
@<TRIPOS>BOND
     1    1    2 1  
     2    1   10 1  
     3    2    3 2  
     4    3    4 1  
     5    4    5 ar 
     6    4   10 ar 
     7    5    6 1  
     8    5    7 ar 
     9    7    8 ar 
    10    8    9 ar 
    11    9   10 ar 
    12    1   11 1  
    13    2   12 1  
    14    6   13 1  
    15    6   14 1  
    16    8   15 1  
@<TRIPOS>SUBSTRUCTURE
     1 ADE         1

