### 
### Created by X-TOOL on Mon Sep 10 21:12:55 2018
### 

@<TRIPOS>MOLECULE
2pql_ligand
   25    26     1     0     0
SMALL
GAST_HUCK


@<TRIPOS>ATOM
      1 N1         13.6610  -23.7050    6.3550 N.4       1 TSS         0.2194
      2 CA         12.4920  -22.8570    6.1960 C.3       1 TSS        -0.0312
      3 CB         12.9210  -21.3880    6.1270 C.3       1 TSS         0.0040
      4 CG         11.7170  -20.5530    5.7270 C.2       1 TSS        -0.0413
      5 CD1        10.3550  -20.8110    5.9710 C.2       1 TSS         0.0166
      6 NE1         9.5630  -19.8310    5.4330 N.pl3     1 TSS        -0.2891
      7 CE2        10.4050  -18.9530    4.8570 C.ar      1 TSS         0.0603
      8 CD2        11.6800  -19.3700    5.0250 C.ar      1 TSS        -0.0214
      9 CZ2        10.0080  -17.8030    4.2130 C.ar      1 TSS        -0.0443
     10 CH2        11.0590  -17.0130    3.7660 C.ar      1 TSS        -0.0768
     11 CZ3        12.3800  -17.4760    3.8130 C.ar      1 TSS        -0.0792
     12 CE3        12.7260  -18.6170    4.5250 C.ar      1 TSS        -0.0747
     13 H1         13.3726  -24.6698    6.3998 H         1 TSS         0.1995
     14 H2         14.1419  -23.4583    7.2058 H         1 TSS         0.1995
     15 H3         14.2795  -23.5753    5.5697 H         1 TSS         0.1995
     16 H4         11.8177  -23.0004    7.0531 H         1 TSS         0.0828
     17 H5         11.9679  -23.1281    5.2677 H         1 TSS         0.0828
     18 H6         13.7196  -21.2693    5.3799 H         1 TSS         0.0401
     19 H7         13.2882  -21.0620    7.1113 H         1 TSS         0.0401
     20 H8          9.9800  -21.6761    6.5159 H         1 TSS         0.0795
     21 H9          8.5348  -19.7772    5.4631 H         1 TSS         0.2216
     22 H10         8.9671  -17.5375    4.0676 H         1 TSS         0.0541
     23 H11        10.8539  -16.0231    3.3748 H         1 TSS         0.0530
     24 H12        13.1509  -16.9306    3.2808 H         1 TSS         0.0510
     25 H13        13.7603  -18.9018    4.6803 H         1 TSS         0.0540
@<TRIPOS>BOND
     1    1    2 1  
     2    2    3 1  
     3    3    4 1  
     4    4    5 2  
     5    4    8 1  
     6    5    6 1  
     7    6    7 1  
     8    7    8 ar 
     9    7    9 ar 
    10    8   12 ar 
    11    9   10 ar 
    12   10   11 ar 
    13   11   12 ar 
    14    1   13 1  
    15    1   14 1  
    16    1   15 1  
    17    2   16 1  
    18    2   17 1  
    19    3   18 1  
    20    3   19 1  
    21    5   20 1  
    22    6   21 1  
    23    9   22 1  
    24   10   23 1  
    25   11   24 1  
    26   12   25 1  
@<TRIPOS>SUBSTRUCTURE
     1 TSS         1

