### 
### Created by X-TOOL on Mon Sep 10 21:12:57 2018
### 

@<TRIPOS>MOLECULE
2pqz_ligand
   71    75     1     0     0
SMALL
GAST_HUCK


@<TRIPOS>ATOM
      1 O10        11.2410  -22.8170  -17.3600 O.2       1 G0G        -0.1499
      2 S8         11.1490  -22.5440  -18.7790 S.o2      1 G0G         0.0728
      3 N28        11.4720  -20.8680  -19.0940 N.am      1 G0G        -0.2127
      4 C7         10.9500  -20.3150  -20.3600 C.3       1 G0G         0.0639
      5 C12         9.6670  -19.4960  -20.2630 C.ar      1 G0G        -0.0244
      6 C13         8.6580  -19.7860  -19.3040 C.ar      1 G0G        -0.0588
      7 C29         7.4620  -19.0210  -19.2510 C.ar      1 G0G        -0.0685
      8 C31         7.2830  -17.9280  -20.1440 C.ar      1 G0G        -0.0687
      9 C30         8.2820  -17.6450  -21.1130 C.ar      1 G0G        -0.0685
     10 C14         9.4830  -18.3890  -21.1370 C.ar      1 G0G        -0.0588
     11 C23        12.3090  -20.1040  -18.1380 C.3       1 G0G         0.1075
     12 C21        13.6900  -19.7650  -18.7680 C.3       1 G0G        -0.0110
     13 N22        13.9240  -18.3100  -18.6300 N.4       1 G0G         0.2298
     14 C25        12.6150  -17.6520  -18.3440 C.3       1 G0G        -0.0110
     15 C24        11.7530  -18.7050  -17.6190 C.3       1 G0G         0.1075
     16 N32        12.0140  -18.7490  -16.1130 N.am      1 G0G        -0.2127
     17 S9         10.6490  -19.0780  -15.1710 S.o2      1 G0G         0.0728
     18 O11         9.8870  -20.2020  -15.7280 O.2       1 G0G        -0.1499
     19 C27         9.6740  -17.6360  -15.0480 C.ar      1 G0G         0.1085
     20 C18         8.3470  -17.6650  -15.5880 C.ar      1 G0G        -0.0351
     21 C2          7.4950  -16.5340  -15.4930 C.ar      1 G0G        -0.0599
     22 C6          7.9830  -15.3590  -14.8910 C.ar      1 G0G        -0.0616
     23 C5          9.2990  -15.3370  -14.3430 C.ar      1 G0G        -0.0599
     24 C20        10.1670  -16.4590  -14.4320 C.ar      1 G0G        -0.0351
     25 O40        11.0800  -19.1760  -13.7600 O.2       1 G0G        -0.1499
     26 C33        13.3300  -18.5990  -15.4190 C.3       1 G0G         0.0639
     27 C34        14.1160  -19.9160  -15.2890 C.ar      1 G0G        -0.0244
     28 C35        13.4650  -21.1020  -14.8650 C.ar      1 G0G        -0.0588
     29 C36        14.2470  -22.2880  -14.7550 C.ar      1 G0G        -0.0685
     30 C37        15.6250  -22.3090  -15.1090 C.ar      1 G0G        -0.0687
     31 C39        16.3030  -21.1030  -15.4740 C.ar      1 G0G        -0.0685
     32 C38        15.5040  -19.9410  -15.6250 C.ar      1 G0G        -0.0588
     33 O41         9.9520  -22.9130  -19.5530 O.2       1 G0G        -0.1499
     34 C26        12.5610  -23.1610  -19.6710 C.ar      1 G0G         0.1085
     35 C19        13.7330  -23.5290  -18.9450 C.ar      1 G0G        -0.0351
     36 C3         14.9000  -23.9940  -19.6500 C.ar      1 G0G        -0.0599
     37 C4         14.8560  -24.0990  -21.0650 C.ar      1 G0G        -0.0616
     38 C1         13.6700  -23.7480  -21.7870 C.ar      1 G0G        -0.0599
     39 C17        12.5210  -23.3070  -21.0810 C.ar      1 G0G        -0.0351
     40 H1         10.7584  -21.1581  -21.0400 H         1 G0G         0.0641
     41 H2         11.7289  -19.6675  -20.7890 H         1 G0G         0.0641
     42 H3          8.8032  -20.6012  -18.6044 H         1 G0G         0.0557
     43 H4          6.6888  -19.2691  -18.5329 H         1 G0G         0.0599
     44 H5          6.3905  -17.3156  -20.0852 H         1 G0G         0.0559
     45 H6          8.1224  -16.8546  -21.8375 H         1 G0G         0.0599
     46 H7         10.2715  -18.1136  -21.8280 H         1 G0G         0.0557
     47 H8         12.4587  -20.7523  -17.2620 H         1 G0G         0.0590
     48 H9         13.6903  -20.0416  -19.8326 H         1 G0G         0.0833
     49 H10        14.4829  -20.3197  -18.2448 H         1 G0G         0.0833
     50 H11        14.3101  -17.9438  -19.4861 H         1 G0G         0.2015
     51 H12        14.5652  -18.1379  -17.8715 H         1 G0G         0.2015
     52 H13        12.1306  -17.3431  -19.2820 H         1 G0G         0.0833
     53 H14        12.7631  -16.7721  -17.7007 H         1 G0G         0.0833
     54 H15        10.6843  -18.5597  -17.8353 H         1 G0G         0.0590
     55 H16         7.9887  -18.5640  -16.0762 H         1 G0G         0.0637
     56 H17         6.4827  -16.5745  -15.8786 H         1 G0G         0.0618
     57 H18         7.3599  -14.4732  -14.8442 H         1 G0G         0.0618
     58 H19         9.6473  -14.4396  -13.8446 H         1 G0G         0.0618
     59 H20        11.1767  -16.4156  -14.0400 H         1 G0G         0.0637
     60 H21        13.1467  -18.2032  -14.4092 H         1 G0G         0.0641
     61 H22        13.9427  -17.8839  -15.9876 H         1 G0G         0.0641
     62 H23        12.4063  -21.1063  -14.6320 H         1 G0G         0.0557
     63 H24        13.7805  -23.1969  -14.3926 H         1 G0G         0.0599
     64 H25        16.1665  -23.2480  -15.1021 H         1 G0G         0.0559
     65 H26        17.3758  -21.0787  -15.6277 H         1 G0G         0.0599
     66 H27        15.9640  -19.0380  -16.0098 H         1 G0G         0.0557
     67 H28        13.7452  -23.4587  -17.8633 H         1 G0G         0.0637
     68 H29        15.7998  -24.2602  -19.1072 H         1 G0G         0.0618
     69 H30        15.7289  -24.4484  -21.6045 H         1 G0G         0.0618
     70 H31        13.6502  -23.8190  -22.8685 H         1 G0G         0.0618
     71 H32        11.6090  -23.0808  -21.6215 H         1 G0G         0.0637
@<TRIPOS>BOND
     1    1    2 2  
     2    2    3 am 
     3    2   33 2  
     4    2   34 1  
     5    3    4 1  
     6    3   11 1  
     7    4    5 1  
     8    5    6 ar 
     9    5   10 ar 
    10    6    7 ar 
    11    7    8 ar 
    12    8    9 ar 
    13    9   10 ar 
    14   11   12 1  
    15   11   15 1  
    16   12   13 1  
    17   13   14 1  
    18   14   15 1  
    19   15   16 1  
    20   16   17 am 
    21   16   26 1  
    22   17   18 2  
    23   17   19 1  
    24   17   25 2  
    25   19   20 ar 
    26   19   24 ar 
    27   20   21 ar 
    28   21   22 ar 
    29   22   23 ar 
    30   23   24 ar 
    31   26   27 1  
    32   27   28 ar 
    33   27   32 ar 
    34   28   29 ar 
    35   29   30 ar 
    36   30   31 ar 
    37   31   32 ar 
    38   34   35 ar 
    39   34   39 ar 
    40   35   36 ar 
    41   36   37 ar 
    42   37   38 ar 
    43   38   39 ar 
    44    4   40 1  
    45    4   41 1  
    46    6   42 1  
    47    7   43 1  
    48    8   44 1  
    49    9   45 1  
    50   10   46 1  
    51   11   47 1  
    52   12   48 1  
    53   12   49 1  
    54   13   50 1  
    55   13   51 1  
    56   14   52 1  
    57   14   53 1  
    58   15   54 1  
    59   20   55 1  
    60   21   56 1  
    61   22   57 1  
    62   23   58 1  
    63   24   59 1  
    64   26   60 1  
    65   26   61 1  
    66   28   62 1  
    67   29   63 1  
    68   30   64 1  
    69   31   65 1  
    70   32   66 1  
    71   35   67 1  
    72   36   68 1  
    73   37   69 1  
    74   38   70 1  
    75   39   71 1  
@<TRIPOS>SUBSTRUCTURE
     1 G0G         1

