### 
### Created by X-TOOL on Mon Sep 10 21:12:58 2018
### 

@<TRIPOS>MOLECULE
2pre_ligand
   54    53     1     0     0
SMALL
GAST_HUCK


@<TRIPOS>ATOM
      1 C1         16.8060   26.6230   12.0630 C.2       1 E64         0.0396
      2 O1         17.4930   27.6640   12.4120 O.co2     1 E64        -0.5688
      3 O2         17.1130   25.4960   12.4390 O.co2     1 E64        -0.5688
      4 C2         15.6140   26.8210   11.1760 C.3       1 E64         0.0436
      5 C3         15.3140   25.5940   10.3210 C.3       1 E64         0.1549
      6 O3         16.2680   24.7250    9.7030 O.3       1 E64        -0.3697
      7 C4         13.8810   25.6050    9.8470 C.2       1 E64         0.2089
      8 O4         12.9610   25.2760   10.5930 O.2       1 E64        -0.3940
      9 N1         13.6900   26.0030    8.6000 N.am      1 E64        -0.2634
     10 C6         12.4510   26.6520    8.2290 C.3       1 E64         0.1311
     11 C7         12.6680   28.1520    8.0500 C.3       1 E64        -0.0101
     12 C8         11.5810   29.0720    8.6150 C.3       1 E64        -0.0425
     13 C9         10.5120   29.2880    7.5630 C.3       1 E64        -0.0625
     14 C10        10.9800   28.4700    9.8770 C.3       1 E64        -0.0625
     15 C11        11.9260   26.0530    6.9490 C.2       1 E64         0.2017
     16 O5         11.0370   26.6150    6.3170 O.2       1 E64        -0.3945
     17 N2         12.4790   24.9040    6.5700 N.am      1 E64        -0.2851
     18 C12        11.8390   23.9430    5.6730 C.3       1 E64         0.0311
     19 C13        11.7730   22.5430    6.2700 C.3       1 E64        -0.0296
     20 C14        10.8550   21.6420    5.4510 C.3       1 E64        -0.0180
     21 C15        10.5820   20.3190    6.1540 C.3       1 E64         0.0626
     22 N3         10.7940   19.1770    5.2690 N.pl3     1 E64        -0.2723
     23 C16         9.8640   18.6710    4.4640 C.cat     1 E64         0.2882
     24 N4          9.2820   17.5230    4.7940 N.pl3     1 E64        -0.2849
     25 N5          9.4990   19.2770    3.3360 N.pl3     1 E64        -0.2849
     26 H1         15.8067   27.6760   10.5112 H         1 E64         0.0481
     27 H2         14.7376   27.0358   11.8050 H         1 E64         0.0481
     28 H3         15.1558   24.9180   11.1742 H         1 E64         0.0856
     29 H4         15.8106   24.0403    9.2290 H         1 E64         0.2135
     30 H5         14.4020   25.8553    7.9135 H         1 E64         0.1883
     31 H6         11.7122   26.4926    9.0282 H         1 E64         0.0800
     32 H7         12.7474   28.3519    6.9712 H         1 E64         0.0315
     33 H8         13.6163   28.4136    8.5422 H         1 E64         0.0315
     34 H9         12.0316   30.0428    8.8687 H         1 E64         0.0298
     35 H10         9.7297   29.9483    7.9654 H         1 E64         0.0232
     36 H11        10.0684   28.3200    7.2868 H         1 E64         0.0232
     37 H12        10.9618   29.7525    6.6731 H         1 E64         0.0232
     38 H13        11.7721   28.3220   10.6258 H         1 E64         0.0232
     39 H14        10.5170   27.5016    9.6368 H         1 E64         0.0232
     40 H15        10.2166   29.1514   10.2807 H         1 E64         0.0232
     41 H16        13.3893   24.6838    6.9205 H         1 E64         0.1851
     42 H17        12.4121   23.8999    4.7351 H         1 E64         0.0520
     43 H18        10.8151   24.2851    5.4618 H         1 E64         0.0520
     44 H19        11.3886   22.6083    7.2985 H         1 E64         0.0286
     45 H20        12.7839   22.1096    6.2832 H         1 E64         0.0286
     46 H21        11.3310   21.4373    4.4807 H         1 E64         0.0300
     47 H22         9.8994   22.1619    5.2883 H         1 E64         0.0300
     48 H23         9.5385   20.3101    6.5019 H         1 E64         0.0689
     49 H24        11.2573   20.2295    7.0177 H         1 E64         0.0689
     50 H25        11.7242   18.7346    5.2681 H         1 E64         0.2642
     51 H26         8.5598   17.1171    4.1819 H         1 E64         0.2615
     52 H27         9.5530   17.0390    5.6619 H         1 E64         0.2615
     53 H28         9.9393   20.1676    3.0641 H         1 E64         0.2615
     54 H29         8.7764   18.8552    2.7353 H         1 E64         0.2615
@<TRIPOS>BOND
     1    1    2 ar 
     2    1    3 ar 
     3    1    4 1  
     4    4    5 1  
     5    5    6 1  
     6    5    7 1  
     7    7    8 2  
     8    7    9 am 
     9    9   10 1  
    10   10   11 1  
    11   10   15 1  
    12   11   12 1  
    13   12   13 1  
    14   12   14 1  
    15   15   16 2  
    16   15   17 am 
    17   17   18 1  
    18   18   19 1  
    19   19   20 1  
    20   20   21 1  
    21   21   22 1  
    22   22   23 ar 
    23   23   24 ar 
    24   23   25 ar 
    25    4   26 1  
    26    4   27 1  
    27    5   28 1  
    28    6   29 1  
    29    9   30 1  
    30   10   31 1  
    31   11   32 1  
    32   11   33 1  
    33   12   34 1  
    34   13   35 1  
    35   13   36 1  
    36   13   37 1  
    37   14   38 1  
    38   14   39 1  
    39   14   40 1  
    40   17   41 1  
    41   18   42 1  
    42   18   43 1  
    43   19   44 1  
    44   19   45 1  
    45   20   46 1  
    46   20   47 1  
    47   21   48 1  
    48   21   49 1  
    49   22   50 1  
    50   24   51 1  
    51   24   52 1  
    52   25   53 1  
    53   25   54 1  
@<TRIPOS>SUBSTRUCTURE
     1 E64         1

