### 
### Created by X-TOOL on Mon Sep 10 21:12:46 2018
### 

@<TRIPOS>MOLECULE
2prj_ligand
   30    30     1     0     0
SMALL
GAST_HUCK


@<TRIPOS>ATOM
      1 C1         33.9360   22.7760   27.7630 C.3       1 NBG         0.1719
      2 C2         33.9510   23.0930   26.2730 C.3       1 NBG         0.1308
      3 C3         32.6630   22.5660   25.6160 C.3       1 NBG         0.1138
      4 C4         32.4430   21.1000   25.9790 C.3       1 NBG         0.1119
      5 C5         32.3540   20.9620   27.5390 C.3       1 NBG         0.1127
      6 C6         32.1480   19.5350   27.9330 C.3       1 NBG         0.0730
      7 C7         35.5810   23.6360   29.2910 C.2       1 NBG         0.1749
      8 C8         37.1030   23.8370   29.5690 C.3       1 NBG         0.0257
      9 N1         35.2790   23.0300   28.1470 N.am      1 NBG        -0.2586
     10 O3         32.7600   22.6940   24.2070 O.3       1 NBG        -0.3864
     11 O2         34.0520   24.4820   26.0970 O.3       1 NBG        -0.3844
     12 O4         31.2830   20.6510   25.3480 O.3       1 NBG        -0.3865
     13 O5         33.5820   21.3990   28.1090 O.3       1 NBG        -0.3436
     14 O6         33.2120   18.7960   27.3760 O.3       1 NBG        -0.3924
     15 O7         34.7260   24.0190   30.0990 O.2       1 NBG        -0.3973
     16 H1         33.2423   23.4546   28.2809 H         1 NBG         0.0896
     17 H2         34.8192   22.6049   25.8060 H         1 NBG         0.0668
     18 H3         31.8084   23.1578   25.9756 H         1 NBG         0.0647
     19 H4         33.2950   20.5038   25.6202 H         1 NBG         0.0647
     20 H5         31.5223   21.5753   27.9160 H         1 NBG         0.0647
     21 H6         31.1878   19.1694   27.5402 H         1 NBG         0.0584
     22 H7         32.1556   19.4408   29.0289 H         1 NBG         0.0584
     23 H8         37.2352   24.3446   30.5359 H         1 NBG         0.0467
     24 H9         37.5439   24.4505   28.7695 H         1 NBG         0.0467
     25 H10        37.6030   22.8576   29.5977 H         1 NBG         0.0467
     26 H11        36.0198   22.7446   27.5389 H         1 NBG         0.1877
     27 H12        32.8969   23.6067   23.9817 H         1 NBG         0.2100
     28 H13        34.0718   24.6818   25.1685 H         1 NBG         0.2101
     29 H14        30.5414   21.1624   25.6499 H         1 NBG         0.2100
     30 H15        34.0361   19.1234   27.7169 H         1 NBG         0.2095
@<TRIPOS>BOND
     1    1    2 1  
     2    9    1 1  
     3    1   13 1  
     4    2    3 1  
     5    2   11 1  
     6    3    4 1  
     7    3   10 1  
     8    5    4 1  
     9    4   12 1  
    10    5    6 1  
    11   13    5 1  
    12    6   14 1  
    13    7    8 1  
    14    7    9 am 
    15    7   15 2  
    16    1   16 1  
    17    2   17 1  
    18    3   18 1  
    19    4   19 1  
    20    5   20 1  
    21    6   21 1  
    22    6   22 1  
    23    8   23 1  
    24    8   24 1  
    25    8   25 1  
    26    9   26 1  
    27   10   27 1  
    28   11   28 1  
    29   12   29 1  
    30   14   30 1  
@<TRIPOS>SUBSTRUCTURE
     1 NBG         1

