### 
### Created by X-TOOL on Mon Sep 10 21:12:55 2018
### 

@<TRIPOS>MOLECULE
2psj_ligand
   52    55     1     0     0
SMALL
GAST_HUCK


@<TRIPOS>ATOM
      1 O33       -17.6830    1.3380   39.5290 O.2       1 CEI        -0.3796
      2 C2        -17.8210    1.3980   38.3150 C.2       1 CEI         0.2187
      3 C10       -18.6620    2.4950   37.7130 C.3       1 CEI         0.0724
      4 C11       -17.8320    3.6980   37.3250 C.ar      1 CEI        -0.0344
      5 C12       -16.9980    4.3290   38.2490 C.ar      1 CEI        -0.0664
      6 C13       -16.2550    5.4440   37.8710 C.ar      1 CEI        -0.0394
      7 C14       -16.3440    5.9350   36.5700 C.ar      1 CEI         0.0809
      8 O17       -15.6220    7.0250   36.1870 O.3       1 CEI        -0.3374
      9 C15       -17.1750    5.3060   35.6500 C.ar      1 CEI        -0.0394
     10 C16       -17.9190    4.1910   36.0260 C.ar      1 CEI        -0.0664
     11 N1        -17.2710    0.5330   37.4590 N.am      1 CEI        -0.2121
     12 C9        -16.4930   -0.5170   37.9540 C.ar      1 CEI         0.1745
     13 C8        -15.1050   -0.4460   37.9800 C.ar      1 CEI         0.0887
     14 C26       -14.3580    0.7660   37.4700 C.3       1 CEI         0.0326
     15 C27       -14.2760    0.7090   35.9660 C.ar      1 CEI        -0.0301
     16 C28       -14.8060    1.7480   35.2000 C.ar      1 CEI        -0.0581
     17 C29       -14.7290    1.6890   33.8090 C.ar      1 CEI        -0.0681
     18 C30       -14.1290    0.5930   33.1880 C.ar      1 CEI        -0.0684
     19 C31       -13.5990   -0.4450   33.9530 C.ar      1 CEI        -0.0681
     20 C32       -13.6730   -0.3870   35.3430 C.ar      1 CEI        -0.0581
     21 N7        -14.3910   -1.4850   38.4630 N.ar      1 CEI        -0.2861
     22 C6        -15.0210   -2.5870   38.9290 C.ar      1 CEI         0.0487
     23 C5        -16.4150   -2.6490   38.9090 C.ar      1 CEI         0.0188
     24 N4        -17.1270   -1.6210   38.4230 N.ar      1 CEI        -0.2694
     25 C19       -14.2150   -3.7160   39.4750 C.ar      1 CEI        -0.0161
     26 C20       -13.0790   -3.4350   40.2320 C.ar      1 CEI        -0.0609
     27 C21       -12.3210   -4.4790   40.7580 C.ar      1 CEI        -0.0312
     28 C22       -12.7010   -5.8010   40.5310 C.ar      1 CEI         0.0896
     29 O25       -11.9570   -6.8140   41.0460 O.3       1 CEI        -0.3317
     30 C23       -13.8390   -6.0870   39.7800 C.ar      1 CEI        -0.0312
     31 C24       -14.5940   -5.0430   39.2500 C.ar      1 CEI        -0.0609
     32 H1        -19.4176    2.8075   38.4488 H         1 CEI         0.0645
     33 H2        -19.1638    2.1054   36.8150 H         1 CEI         0.0645
     34 H3        -16.9286    3.9505   39.2624 H         1 CEI         0.0534
     35 H4        -15.6062    5.9310   38.5900 H         1 CEI         0.0526
     36 H5        -15.8033    7.2190   35.2748 H         1 CEI         0.2459
     37 H6        -17.2439    5.6849   34.6367 H         1 CEI         0.0526
     38 H7        -18.5675    3.7056   35.3057 H         1 CEI         0.0534
     39 H8        -17.4143    0.6355   36.4746 H         1 CEI         0.2330
     40 H9        -13.3424    0.7755   37.8925 H         1 CEI         0.0605
     41 H10       -14.8902    1.6795   37.7739 H         1 CEI         0.0605
     42 H11       -15.2753    2.5969   35.6840 H         1 CEI         0.0561
     43 H12       -15.1357    2.4954   33.2095 H         1 CEI         0.0600
     44 H13       -14.0747    0.5484   32.1063 H         1 CEI         0.0561
     45 H14       -13.1310   -1.2941   33.4681 H         1 CEI         0.0600
     46 H15       -13.2627   -1.1923   35.9415 H         1 CEI         0.0561
     47 H16       -16.9232   -3.5289   39.2866 H         1 CEI         0.0801
     48 H17       -12.7860   -2.4068   40.4111 H         1 CEI         0.0602
     49 H18       -11.4351   -4.2632   41.3442 H         1 CEI         0.0549
     50 H19       -12.3459   -7.6461   40.8035 H         1 CEI         0.2491
     51 H20       -14.1352   -7.1156   39.6091 H         1 CEI         0.0549
     52 H21       -15.4780   -5.2601   38.6614 H         1 CEI         0.0602
@<TRIPOS>BOND
     1    1    2 2  
     2    2    3 1  
     3    2   11 am 
     4    3    4 1  
     5    4    5 ar 
     6    4   10 ar 
     7    5    6 ar 
     8    6    7 ar 
     9    7    8 1  
    10    7    9 ar 
    11    9   10 ar 
    12   11   12 1  
    13   12   13 ar 
    14   12   24 ar 
    15   13   14 1  
    16   13   21 ar 
    17   14   15 1  
    18   15   16 ar 
    19   15   20 ar 
    20   16   17 ar 
    21   17   18 ar 
    22   18   19 ar 
    23   19   20 ar 
    24   21   22 ar 
    25   22   23 ar 
    26   22   25 1  
    27   23   24 ar 
    28   25   26 ar 
    29   25   31 ar 
    30   26   27 ar 
    31   27   28 ar 
    32   28   29 1  
    33   28   30 ar 
    34   30   31 ar 
    35    3   32 1  
    36    3   33 1  
    37    5   34 1  
    38    6   35 1  
    39    8   36 1  
    40    9   37 1  
    41   10   38 1  
    42   11   39 1  
    43   14   40 1  
    44   14   41 1  
    45   16   42 1  
    46   17   43 1  
    47   18   44 1  
    48   19   45 1  
    49   20   46 1  
    50   23   47 1  
    51   26   48 1  
    52   27   49 1  
    53   29   50 1  
    54   30   51 1  
    55   31   52 1  
@<TRIPOS>SUBSTRUCTURE
     1 CEI         1

