### 
### Created by X-TOOL on Mon Sep 10 21:12:55 2018
### 

@<TRIPOS>MOLECULE
2psu_ligand
   71    73     1     0     0
SMALL
GAST_HUCK


@<TRIPOS>ATOM
      1 O10        17.2920   31.4310   14.3860 O.2       1 MUU        -0.1503
      2 S8         18.0940   32.4720   14.9510 S.o2      1 MUU         0.0682
      3 O9         18.6180   33.3620   13.9520 O.2       1 MUU        -0.1503
      4 C5         17.1650   33.3670   15.9940 C.ar      1 MUU         0.0998
      5 C6         17.4560   34.7120   16.2010 C.ar      1 MUU        -0.0066
      6 C7         16.6970   35.4830   17.0750 C.ar      1 MUU         0.0926
      7 O19        17.0410   36.8120   17.2240 O.3       1 MUU        -0.3212
      8 C18        16.5380   37.6470   18.2600 C.3       1 MUU         0.0594
      9 C2         15.6190   34.8970   17.7490 C.ar      1 MUU        -0.0330
     10 C3         15.3250   33.5550   17.5580 C.ar      1 MUU        -0.0688
     11 C4         16.0940   32.7910   16.6790 C.ar      1 MUU        -0.0463
     12 N11        19.3830   31.7780   15.6630 N.am      1 MUU        -0.2314
     13 C12        20.2230   32.7280   16.4250 C.3       1 MUU         0.0325
     14 C13        21.6600   32.1990   16.4240 C.3       1 MUU        -0.0239
     15 C15        22.7920   33.2120   16.2430 C.3       1 MUU        -0.0484
     16 C14        22.4180   32.2840   15.0960 C.3       1 MUU        -0.0484
     17 C16        19.0940   30.5310   16.4100 C.3       1 MUU         0.0579
     18 C17        19.9810   29.4260   15.7850 C.3       1 MUU         0.0968
     19 O18        19.9780   28.2750   16.6280 O.3       1 MUU        -0.3877
     20 C19        19.5790   29.0160   14.3550 C.3       1 MUU         0.0788
     21 C32        18.2550   28.2500   14.3090 C.3       1 MUU         0.0064
     22 C38        17.9680   27.8560   12.8810 C.ar      1 MUU        -0.0408
     23 C33        18.1700   26.5430   12.4570 C.ar      1 MUU        -0.0603
     24 C34        17.9270   26.1740   11.1450 C.ar      1 MUU        -0.0686
     25 C35        17.4740   27.1230   10.2400 C.ar      1 MUU        -0.0687
     26 C36        17.2930   28.4230   10.6550 C.ar      1 MUU        -0.0686
     27 C37        17.5190   28.7950   11.9680 C.ar      1 MUU        -0.0603
     28 N20        20.6400   28.1910   13.7550 N.am      1 MUU        -0.2793
     29 C21        21.4040   28.5930   12.7310 C.2       1 MUU         0.1787
     30 O22        21.3000   29.6940   12.2220 O.2       1 MUU        -0.3969
     31 C23        22.4730   27.6930   12.1880 C.3       1 MUU         0.0540
     32 C24        21.8470   26.6510   11.2930 C.3       1 MUU         0.0540
     33 C25        22.9450   25.7490   10.7890 C.2       1 MUU         0.1780
     34 O26        23.6570   25.1260   11.5870 O.2       1 MUU        -0.3969
     35 N27        23.1030   25.6580    9.4670 N.am      1 MUU        -0.2899
     36 C28        24.1110   24.8000    8.8660 C.3       1 MUU         0.0196
     37 H1         18.2869   35.1657   15.6730 H         1 MUU         0.0561
     38 H2         16.9640   38.6559   18.1571 H         1 MUU         0.0577
     39 H3         16.8192   37.2283   19.2375 H         1 MUU         0.0577
     40 H4         15.4419   37.7026   18.1865 H         1 MUU         0.0577
     41 H5         15.0129   35.4932   18.4215 H         1 MUU         0.0542
     42 H6         14.4983   33.0998   18.0913 H         1 MUU         0.0589
     43 H7         15.8581   31.7439   16.5274 H         1 MUU         0.0542
     44 H8         19.8548   32.8051   17.4587 H         1 MUU         0.0481
     45 H9         20.1903   33.7192   15.9492 H         1 MUU         0.0481
     46 H10        21.7677   31.3357   17.0971 H         1 MUU         0.0316
     47 H11        23.7448   33.0719   16.7746 H         1 MUU         0.0269
     48 H12        22.5630   34.2859   16.1777 H         1 MUU         0.0269
     49 H13        21.9186   32.6877   14.2029 H         1 MUU         0.0269
     50 H14        23.1004   31.4737   14.7998 H         1 MUU         0.0269
     51 H15        18.0310   30.2663   16.3101 H         1 MUU         0.0504
     52 H16        19.3414   30.6598   17.4740 H         1 MUU         0.0504
     53 H17        21.0078   29.8177   15.7377 H         1 MUU         0.0634
     54 H18        19.0889   27.9528   16.7189 H         1 MUU         0.2100
     55 H19        19.4648   29.9326   13.7577 H         1 MUU         0.0605
     56 H20        17.4442   28.8911   14.6853 H         1 MUU         0.0449
     57 H21        18.3286   27.3474   14.9334 H         1 MUU         0.0449
     58 H22        18.5222   25.8010   13.1645 H         1 MUU         0.0557
     59 H23        18.0896   25.1505   10.8269 H         1 MUU         0.0599
     60 H24        17.2642   26.8429    9.2140 H         1 MUU         0.0559
     61 H25        16.9672   29.1692    9.9394 H         1 MUU         0.0599
     62 H26        17.3452   29.8182   12.2810 H         1 MUU         0.0557
     63 H27        20.7994   27.2791   14.1332 H         1 MUU         0.1857
     64 H28        22.9924   27.1966   13.0209 H         1 MUU         0.0527
     65 H29        23.1942   28.2883   11.6088 H         1 MUU         0.0527
     66 H30        21.3466   27.1399   10.4442 H         1 MUU         0.0527
     67 H31        21.1124   26.0625   11.8623 H         1 MUU         0.0527
     68 H32        22.5088   26.1975    8.8705 H         1 MUU         0.1847
     69 H33        24.0586   24.8845    7.7705 H         1 MUU         0.0484
     70 H34        23.9284   23.7565    9.1623 H         1 MUU         0.0484
     71 H35        25.1088   25.1097    9.2103 H         1 MUU         0.0484
@<TRIPOS>BOND
     1    1    2 2  
     2    2    3 2  
     3    2    4 1  
     4    2   12 am 
     5    4    5 ar 
     6    4   11 ar 
     7    5    6 ar 
     8    6    7 1  
     9    6    9 ar 
    10    7    8 1  
    11    9   10 ar 
    12   10   11 ar 
    13   12   13 1  
    14   12   17 1  
    15   13   14 1  
    16   14   15 1  
    17   14   16 1  
    18   15   16 1  
    19   17   18 1  
    20   18   19 1  
    21   18   20 1  
    22   20   21 1  
    23   20   28 1  
    24   21   22 1  
    25   22   23 ar 
    26   22   27 ar 
    27   23   24 ar 
    28   24   25 ar 
    29   25   26 ar 
    30   26   27 ar 
    31   28   29 am 
    32   29   30 2  
    33   29   31 1  
    34   31   32 1  
    35   32   33 1  
    36   33   34 2  
    37   33   35 am 
    38   35   36 1  
    39    5   37 1  
    40    8   38 1  
    41    8   39 1  
    42    8   40 1  
    43    9   41 1  
    44   10   42 1  
    45   11   43 1  
    46   13   44 1  
    47   13   45 1  
    48   14   46 1  
    49   15   47 1  
    50   15   48 1  
    51   16   49 1  
    52   16   50 1  
    53   17   51 1  
    54   17   52 1  
    55   18   53 1  
    56   19   54 1  
    57   20   55 1  
    58   21   56 1  
    59   21   57 1  
    60   23   58 1  
    61   24   59 1  
    62   25   60 1  
    63   26   61 1  
    64   27   62 1  
    65   28   63 1  
    66   31   64 1  
    67   31   65 1  
    68   32   66 1  
    69   32   67 1  
    70   35   68 1  
    71   36   69 1  
    72   36   70 1  
    73   36   71 1  
@<TRIPOS>SUBSTRUCTURE
     1 MUU         1

