### 
### Created by X-TOOL on Mon Sep 10 21:12:55 2018
### 

@<TRIPOS>MOLECULE
2psv_ligand
   64    66     1     0     0
SMALL
GAST_HUCK


@<TRIPOS>ATOM
      1 O26        23.6790   25.1250   11.5560 O.2       1 MUV        -0.3969
      2 C25        22.9250   25.7410   10.8070 C.2       1 MUV         0.1780
      3 N27        22.9470   25.5900    9.4790 N.am      1 MUV        -0.2899
      4 C28        23.8490   24.6740    8.8030 C.3       1 MUV         0.0196
      5 C24        21.9070   26.6880   11.4080 C.3       1 MUV         0.0540
      6 C23        22.6170   27.7090   12.2780 C.3       1 MUV         0.0540
      7 C21        21.5230   28.6390   12.7800 C.2       1 MUV         0.1787
      8 O22        21.3950   29.7300   12.2460 O.2       1 MUV        -0.3969
      9 N20        20.7320   28.2140   13.7660 N.am      1 MUV        -0.2793
     10 C19        19.6360   28.9880   14.3450 C.3       1 MUV         0.0788
     11 C32        18.3700   28.1310   14.2540 C.3       1 MUV         0.0064
     12 C38        18.1040   27.7700   12.7980 C.ar      1 MUV        -0.0408
     13 C37        17.5650   28.7160   11.9310 C.ar      1 MUV        -0.0603
     14 C36        17.3200   28.3920   10.5950 C.ar      1 MUV        -0.0686
     15 C35        17.6200   27.1180   10.1230 C.ar      1 MUV        -0.0687
     16 C34        18.1490   26.1710   10.9900 C.ar      1 MUV        -0.0686
     17 C33        18.3920   26.4970   12.3180 C.ar      1 MUV        -0.0603
     18 C17        20.0070   29.3580   15.7910 C.3       1 MUV         0.0968
     19 O18        20.0510   28.1880   16.6180 O.3       1 MUV        -0.3877
     20 C16        19.0580   30.4050   16.3950 C.3       1 MUV         0.0580
     21 N11        19.3530   31.6990   15.7310 N.am      1 MUV        -0.2294
     22 C12        20.0950   32.6440   16.5880 C.3       1 MUV         0.0326
     23 C13        21.5440   32.1580   16.6800 C.3       1 MUV        -0.0239
     24 C14        22.4220   32.3340   15.4410 C.3       1 MUV        -0.0484
     25 C15        22.6320   33.2310   16.6520 C.3       1 MUV        -0.0484
     26 S8         18.0870   32.3400   14.9480 S.o2      1 MUV         0.0989
     27 O9         18.6330   33.3030   14.0350 O.2       1 MUV        -0.1481
     28 O10        17.4160   31.2880   14.2590 O.2       1 MUV        -0.1481
     29 C5         16.9610   33.1090   15.9000 C.2       1 MUV         0.2439
     30 O4         16.7390   34.4600   15.9210 O.3       1 MUV        -0.2428
     31 C3         15.6930   34.6580   16.8190 C.2       1 MUV         0.0792
     32 C2         15.2890   33.4230   17.3250 C.2       1 MUV        -0.0667
     33 C1         16.1050   32.4180   16.7070 C.2       1 MUV        -0.0409
     34 H1         22.3141   26.1320    8.9262 H         1 MUV         0.1847
     35 H2         23.6796   24.7270    7.7174 H         1 MUV         0.0484
     36 H3         23.6609   23.6485    9.1537 H         1 MUV         0.0484
     37 H4         24.8895   24.9527    9.0258 H         1 MUV         0.0484
     38 H5         21.1928   26.1180   12.0204 H         1 MUV         0.0527
     39 H6         21.3671   27.2058   10.6015 H         1 MUV         0.0527
     40 H7         23.3580   28.2688   11.6884 H         1 MUV         0.0527
     41 H8         23.1187   27.2135   13.1222 H         1 MUV         0.0527
     42 H9         20.9010   27.3003   14.1356 H         1 MUV         0.1857
     43 H10        19.4854   29.9132   13.7694 H         1 MUV         0.0605
     44 H11        17.5151   28.6963   14.6535 H         1 MUV         0.0449
     45 H12        18.5074   27.2107   14.8406 H         1 MUV         0.0449
     46 H13        17.3339   29.7105   12.2951 H         1 MUV         0.0557
     47 H14        16.8964   29.1325    9.9261 H         1 MUV         0.0599
     48 H15        17.4417   26.8660    9.0839 H         1 MUV         0.0559
     49 H16        18.3731   25.1737   10.6290 H         1 MUV         0.0599
     50 H17        18.8098   25.7527   12.9862 H         1 MUV         0.0557
     51 H18        21.0155   29.7968   15.7714 H         1 MUV         0.0634
     52 H19        19.1986   27.7686   16.6169 H         1 MUV         0.2100
     53 H20        19.2300   30.4894   17.4782 H         1 MUV         0.0504
     54 H21        18.0125   30.1167   16.2111 H         1 MUV         0.0504
     55 H22        19.6454   32.6706   17.5915 H         1 MUV         0.0481
     56 H23        20.0660   33.6510   16.1463 H         1 MUV         0.0481
     57 H24        21.6275   31.2681   17.3212 H         1 MUV         0.0316
     58 H25        21.9924   32.7492   14.5174 H         1 MUV         0.0269
     59 H26        23.1718   31.5707   15.1858 H         1 MUV         0.0269
     60 H27        23.5336   33.1157   17.2715 H         1 MUV         0.0269
     61 H28        22.3542   34.2942   16.6031 H         1 MUV         0.0269
     62 H29        15.2604   35.6218   17.0833 H         1 MUV         0.0951
     63 H30        14.4992   33.2527   18.0551 H         1 MUV         0.0327
     64 H31        16.0527   31.3398   16.8505 H         1 MUV         0.0347
@<TRIPOS>BOND
     1    1    2 2  
     2    2    3 am 
     3    2    5 1  
     4    3    4 1  
     5    5    6 1  
     6    6    7 1  
     7    7    8 2  
     8    7    9 am 
     9    9   10 1  
    10   10   11 1  
    11   10   18 1  
    12   11   12 1  
    13   12   13 ar 
    14   12   17 ar 
    15   13   14 ar 
    16   14   15 ar 
    17   15   16 ar 
    18   16   17 ar 
    19   18   19 1  
    20   18   20 1  
    21   20   21 1  
    22   21   22 1  
    23   21   26 am 
    24   22   23 1  
    25   23   24 1  
    26   23   25 1  
    27   24   25 1  
    28   26   27 2  
    29   26   28 2  
    30   26   29 1  
    31   29   30 1  
    32   29   33 2  
    33   30   31 1  
    34   31   32 2  
    35   32   33 1  
    36    3   34 1  
    37    4   35 1  
    38    4   36 1  
    39    4   37 1  
    40    5   38 1  
    41    5   39 1  
    42    6   40 1  
    43    6   41 1  
    44    9   42 1  
    45   10   43 1  
    46   11   44 1  
    47   11   45 1  
    48   13   46 1  
    49   14   47 1  
    50   15   48 1  
    51   16   49 1  
    52   17   50 1  
    53   18   51 1  
    54   19   52 1  
    55   20   53 1  
    56   20   54 1  
    57   22   55 1  
    58   22   56 1  
    59   23   57 1  
    60   24   58 1  
    61   24   59 1  
    62   25   60 1  
    63   25   61 1  
    64   31   62 1  
    65   32   63 1  
    66   33   64 1  
@<TRIPOS>SUBSTRUCTURE
     1 MUV         1

