### 
### Created by X-TOOL on Mon Sep 10 21:12:56 2018
### 

@<TRIPOS>MOLECULE
2psx_ligand
   65    64     1     0     0
SMALL
GAST_HUCK


@<TRIPOS>ATOM
      1 N           2.8550   -1.3130   21.4000 N.4       1 LEU         0.2379
      2 CA          2.9100   -2.7570   21.1130 C.3       1 LEU         0.0652
      3 C           4.3580   -3.2230   20.9540 C.2       1 LEU         0.2267
      4 O           5.2260   -2.4800   20.4840 O.2       1 LEU        -0.3907
      5 CB          2.1870   -3.0370   19.7960 C.3       1 LEU         0.0102
      6 CG          0.6750   -2.9590   20.0030 C.3       1 LEU        -0.0394
      7 CD1        -0.0490   -3.1810   18.6740 C.3       1 LEU        -0.0623
      8 CD2         0.2310   -4.0020   21.0310 C.3       1 LEU        -0.0623
      9 N           4.5710   -4.4730   21.3310 N.am      1 LEU        -0.2610
     10 CA          5.8980   -5.1050   21.2260 C.3       1 LEU         0.1313
     11 C           6.1780   -5.3780   19.7460 C.2       1 LEU         0.2040
     12 O           5.2780   -5.7270   18.9860 O.2       1 LEU        -0.3944
     13 CB          5.9180   -6.4240   21.9990 C.3       1 LEU        -0.0101
     14 CG          5.7310   -6.1620   23.4960 C.3       1 LEU        -0.0425
     15 CD1         5.6630   -7.4860   24.2600 C.3       1 LEU        -0.0625
     16 CD2         6.8630   -5.2930   24.0480 C.3       1 LEU        -0.0625
     17 N           7.4380   -5.1940   19.3680 N.am      1 AR7        -0.2650
     18 CA          7.8590   -5.4130   17.9760 C.3       1 AR7         0.1129
     19 C           8.7990   -6.6180   17.9210 C.2       1 AR7         0.1245
     20 O           9.1730   -6.8680   16.5640 O.2       1 AR7        -0.3725
     21 CB          8.5640   -4.1550   17.4660 C.3       1 AR7        -0.0105
     22 CG          7.5850   -2.9800   17.4350 C.3       1 AR7        -0.0155
     23 CD          8.2640   -1.6860   16.9860 C.3       1 AR7         0.0627
     24 NE          7.2340   -0.6480   16.8260 N.pl3     1 AR7        -0.2723
     25 CZ          7.5540    0.6020   16.5150 C.cat     1 AR7         0.2882
     26 NH1         6.5920    1.5040   16.3410 N.pl3     1 AR7        -0.2849
     27 NH2         8.8280    0.9530   16.3470 N.pl3     1 AR7        -0.2849
     28 H38         9.1318   -7.1959   18.7819 H         1 AR7         0.1373
     29 H1          1.8937   -1.0269   21.5010 H         1 LEU         0.2015
     30 H2          3.2793   -0.8031   20.6410 H         1 LEU         0.2015
     31 H3          3.3542   -1.1210   22.2544 H         1 LEU         0.2015
     32 H4          2.4291   -3.3113   21.9324 H         1 LEU         0.1098
     33 H5          2.4545   -4.0429   19.4403 H         1 LEU         0.0348
     34 H6          2.4911   -2.2905   19.0476 H         1 LEU         0.0348
     35 H7          0.4201   -1.9583   20.3818 H         1 LEU         0.0299
     36 H8         -1.1357   -3.1228   18.8343 H         1 LEU         0.0232
     37 H9          0.2104   -4.1733   18.2764 H         1 LEU         0.0232
     38 H10         0.2576   -2.4065   17.9556 H         1 LEU         0.0232
     39 H11         0.7596   -3.8295   21.9801 H         1 LEU         0.0232
     40 H12         0.4677   -5.0091   20.6573 H         1 LEU         0.0232
     41 H13        -0.8534   -3.9171   21.1946 H         1 LEU         0.0232
     42 H14         3.8083   -5.0052   21.6984 H         1 LEU         0.1884
     43 H15         6.6645   -4.4296   21.6337 H         1 LEU         0.0800
     44 H16         6.8829   -6.9263   21.8358 H         1 LEU         0.0315
     45 H17         5.1032   -7.0690   21.6384 H         1 LEU         0.0315
     46 H18         4.7810   -5.6262   23.6384 H         1 LEU         0.0298
     47 H19         5.5287   -7.2837   25.3329 H         1 LEU         0.0232
     48 H20         6.5971   -8.0462   24.1067 H         1 LEU         0.0232
     49 H21         4.8143   -8.0798   23.8898 H         1 LEU         0.0232
     50 H22         6.9021   -4.3449   23.4916 H         1 LEU         0.0232
     51 H23         7.8202   -5.8233   23.9364 H         1 LEU         0.0232
     52 H24         6.6805   -5.0859   25.1128 H         1 LEU         0.0232
     53 H25         8.1142   -4.9006   20.0438 H         1 AR7         0.1884
     54 H26         6.9762   -5.6130   17.3510 H         1 AR7         0.0790
     55 H27         8.9452   -4.3379   16.4505 H         1 AR7         0.0314
     56 H28         9.4031   -3.9119   18.1344 H         1 AR7         0.0314
     57 H29         7.1724   -2.8338   18.4441 H         1 AR7         0.0301
     58 H30         6.7690   -3.2149   16.7357 H         1 AR7         0.0301
     59 H31         8.7772   -1.8500   16.0270 H         1 AR7         0.0689
     60 H32         8.9955   -1.3688   17.7438 H         1 AR7         0.0689
     61 H33         6.2432   -0.8966   16.9582 H         1 AR7         0.2642
     62 H34         6.8345    2.4755   16.0996 H         1 AR7         0.2615
     63 H35         5.6046    1.2310   16.4477 H         1 AR7         0.2615
     64 H36         9.5758    0.2574   16.4808 H         1 AR7         0.2615
     65 H37         9.0653    1.9200   16.0833 H         1 AR7         0.2615
@<TRIPOS>BOND
     1    1    2 1  
     2    2    3 1  
     3    2    5 1  
     4    3    4 2  
     5    3    9 am 
     6    5    6 1  
     7    6    7 1  
     8    6    8 1  
     9    9   10 1  
    10   10   11 1  
    11   10   13 1  
    12   11   12 2  
    13   11   17 am 
    14   13   14 1  
    15   14   15 1  
    16   14   16 1  
    17   17   18 1  
    18   18   19 1  
    19   18   21 1  
    20   19   20 2  
    21   21   22 1  
    22   22   23 1  
    23   23   24 1  
    24   24   25 ar 
    25   25   26 ar 
    26   25   27 ar 
    27   19   28 1  
    28    1   29 1  
    29    1   30 1  
    30    1   31 1  
    31    2   32 1  
    32    5   33 1  
    33    5   34 1  
    34    6   35 1  
    35    7   36 1  
    36    7   37 1  
    37    7   38 1  
    38    8   39 1  
    39    8   40 1  
    40    8   41 1  
    41    9   42 1  
    42   10   43 1  
    43   13   44 1  
    44   13   45 1  
    45   14   46 1  
    46   15   47 1  
    47   15   48 1  
    48   15   49 1  
    49   16   50 1  
    50   16   51 1  
    51   16   52 1  
    52   17   53 1  
    53   18   54 1  
    54   21   55 1  
    55   21   56 1  
    56   22   57 1  
    57   22   58 1  
    58   23   59 1  
    59   23   60 1  
    60   24   61 1  
    61   26   62 1  
    62   26   63 1  
    63   27   64 1  
    64   27   65 1  
@<TRIPOS>SUBSTRUCTURE
     1 LEU         1

