### 
### Created by X-TOOL on Mon Sep 10 21:12:58 2018
### 

@<TRIPOS>MOLECULE
2pt9_ligand
   48    50     1     0     0
SMALL
GAST_HUCK


@<TRIPOS>ATOM
      1 CA         14.5650  -20.5660    7.6640 C.3       1 S4M        -0.0310
      2 N          15.5110  -21.5300    8.2540 N.4       1 S4M         0.2186
      3 CB         15.1390  -20.0240    6.3560 C.3       1 S4M         0.0323
      4 CG         15.9150  -18.7360    6.6160 C.3       1 S4M         0.1144
      5 SD         17.7130  -18.9580    6.8690 S.3       1 S4M        -0.0105
      6 CE         17.8990  -17.5910    7.9950 C.3       1 S4M         0.0995
      7 C5'        18.5900  -18.3980    5.3250 C.3       1 S4M         0.1381
      8 C4'        20.1510  -18.3200    5.3820 C.3       1 S4M         0.1350
      9 O4'        20.9340  -18.5730    4.1560 O.3       1 S4M        -0.3344
     10 C1'        22.1810  -17.9400    4.4370 C.3       1 S4M         0.2011
     11 C2'        21.6550  -16.5510    4.7320 C.3       1 S4M         0.1386
     12 O2'        22.6830  -15.7740    5.3580 O.3       1 S4M        -0.3836
     13 C3'        20.5110  -16.8720    5.6960 C.3       1 S4M         0.1168
     14 O3'        20.9900  -16.8470    7.0170 O.3       1 S4M        -0.3863
     15 N9         23.0520  -17.9240    3.2460 N.pl3     1 S4M        -0.1919
     16 C8         22.7700  -17.2920    2.1120 C.2       1 S4M         0.1123
     17 N7         23.7680  -17.4960    1.2420 N.2       1 S4M        -0.2958
     18 C5         24.6960  -18.2720    1.8150 C.ar      1 S4M         0.1045
     19 C6         25.9250  -18.8010    1.3930 C.ar      1 S4M         0.1298
     20 N6         26.3980  -18.5690    0.1580 N.pl3     1 S4M        -0.3152
     21 C4         24.2420  -18.5360    3.1100 C.ar      1 S4M         0.1613
     22 N3         25.0040  -19.3210    3.9110 N.ar      1 S4M        -0.2714
     23 C2         26.1740  -19.8130    3.4790 C.ar      1 S4M         0.0533
     24 N1         26.6370  -19.5640    2.2460 N.ar      1 S4M        -0.2698
     25 H1         14.4034  -19.7345    8.3658 H         1 S4M         0.0815
     26 H2         13.6070  -21.0682    7.4637 H         1 S4M         0.0815
     27 H3         15.1320  -21.8874    9.1170 H         1 S4M         0.1994
     28 H4         16.3888  -21.0699    8.4377 H         1 S4M         0.1994
     29 H5         15.6591  -22.2920    7.6110 H         1 S4M         0.1994
     30 H6         14.3162  -19.8176    5.6558 H         1 S4M         0.0363
     31 H7         15.8146  -20.7731    5.9174 H         1 S4M         0.0363
     32 H8         15.4990  -18.2625    7.5175 H         1 S4M         0.0842
     33 H9         15.7711  -18.0701    5.7524 H         1 S4M         0.0842
     34 H10        18.9510  -17.5136    8.3071 H         1 S4M         0.0803
     35 H11        17.2655  -17.7553    8.8791 H         1 S4M         0.0803
     36 H12        17.5956  -16.6597    7.4944 H         1 S4M         0.0803
     37 H13        18.2167  -17.3933    5.0775 H         1 S4M         0.0867
     38 H14        18.3222  -19.0975    4.5194 H         1 S4M         0.0867
     39 H15        20.4967  -19.0023    6.1725 H         1 S4M         0.0671
     40 H16        22.7070  -18.3912    5.2913 H         1 S4M         0.0996
     41 H17        21.2941  -16.0406    3.8269 H         1 S4M         0.0676
     42 H18        22.9452  -16.1928    6.1693 H         1 S4M         0.2101
     43 H19        19.6590  -16.1888    5.5649 H         1 S4M         0.0649
     44 H20        21.6785  -17.4941    7.1153 H         1 S4M         0.2100
     45 H21        21.8736  -16.7039    1.9208 H         1 S4M         0.1349
     46 H22        27.3029  -18.9677   -0.1302 H         1 S4M         0.1820
     47 H23        25.8559  -17.9924   -0.5012 H         1 S4M         0.1820
     48 H24        26.7633  -20.4308    4.1470 H         1 S4M         0.0996
@<TRIPOS>BOND
     1    1    2 1  
     2    1    3 1  
     3    3    4 1  
     4    4    5 1  
     5    5    6 1  
     6    5    7 1  
     7    7    8 1  
     8    8    9 1  
     9    8   13 1  
    10    9   10 1  
    11   10   11 1  
    12   10   15 1  
    13   11   12 1  
    14   11   13 1  
    15   13   14 1  
    16   15   16 1  
    17   15   21 1  
    18   16   17 2  
    19   17   18 1  
    20   18   19 ar 
    21   18   21 ar 
    22   19   20 1  
    23   19   24 ar 
    24   21   22 ar 
    25   22   23 ar 
    26   23   24 ar 
    27    1   25 1  
    28    1   26 1  
    29    2   27 1  
    30    2   28 1  
    31    2   29 1  
    32    3   30 1  
    33    3   31 1  
    34    4   32 1  
    35    4   33 1  
    36    6   34 1  
    37    6   35 1  
    38    6   36 1  
    39    7   37 1  
    40    7   38 1  
    41    8   39 1  
    42   10   40 1  
    43   11   41 1  
    44   12   42 1  
    45   13   43 1  
    46   14   44 1  
    47   16   45 1  
    48   20   46 1  
    49   20   47 1  
    50   23   48 1  
@<TRIPOS>SUBSTRUCTURE
     1 S4M         1

