### 
### Created by X-TOOL on Mon Sep 10 21:12:57 2018
### 

@<TRIPOS>MOLECULE
2pu2_ligand
   37    39     1     0     0
SMALL
GAST_HUCK


@<TRIPOS>ATOM
      1 O11        26.2870    5.7260   14.5780 O.2       1 DK2        -0.3659
      2 C7         24.9910    5.7100   14.5920 C.2       1 DK2         0.2435
      3 C5         24.1830    5.3260   13.4120 C.ar      1 DK2         0.0757
      4 C4         22.8610    5.4360   13.8190 C.ar      1 DK2         0.0767
      5 C3         21.8120    5.1480   12.9500 C.ar      1 DK2        -0.0231
      6 C6         24.5120    4.9110   12.1390 C.ar      1 DK2        -0.0339
      7 C1         23.4710    4.6160   11.2630 C.ar      1 DK2        -0.0384
      8 C2         22.1350    4.7190   11.6600 C.ar      1 DK2         0.0195
      9 C23        21.0830    4.3940   10.6400 C.2       1 DK2         0.0663
     10 O24        21.3650    4.6380    9.4370 O.co2     1 DK2        -0.5596
     11 O25        19.9760    3.8910   10.9690 O.co2     1 DK2        -0.5596
     12 N8         24.2540    6.0390   15.6700 N.am      1 DK2        -0.1657
     13 C9         22.9700    5.8910   15.2410 C.2       1 DK2         0.2426
     14 O10        21.9320    6.1140   15.9700 O.2       1 DK2        -0.3669
     15 C12        24.7830    6.5010   16.9940 C.3       1 DK2         0.1270
     16 C13        25.8200    5.5510   17.5100 C.2       1 DK2         0.0664
     17 O14        26.8510    6.0230   18.0410 O.co2     1 DK2        -0.5662
     18 O15        25.6290    4.3330   17.3590 O.co2     1 DK2        -0.5662
     19 C16        25.3860    7.9060   16.8150 C.3       1 DK2         0.0150
     20 C17        24.2960    8.8280   16.3140 C.ar      1 DK2        -0.0495
     21 C18        24.1500    9.0610   14.9420 C.ar      1 DK2        -0.0686
     22 C19        23.1250    9.8930   14.4900 C.ar      1 DK2        -0.0398
     23 C20        22.2530   10.4790   15.4130 C.ar      1 DK2         0.0805
     24 O26        21.2490   11.2830   14.9720 O.3       1 DK2        -0.3376
     25 C21        22.3890   10.2350   16.7860 C.ar      1 DK2        -0.0398
     26 C22        23.4160    9.4070   17.2350 C.ar      1 DK2        -0.0686
     27 H1         20.7797    5.2530   13.2636 H         1 DK2         0.0715
     28 H2         25.5470    4.8175   11.8305 H         1 DK2         0.0687
     29 H3         23.7015    4.2999   10.2521 H         1 DK2         0.0694
     30 H4         23.9555    6.5505   17.7170 H         1 DK2         0.0798
     31 H5         26.2071    7.8685   16.0839 H         1 DK2         0.0449
     32 H6         25.7695    8.2722   17.7787 H         1 DK2         0.0449
     33 H7         24.8288    8.5982   14.2348 H         1 DK2         0.0530
     34 H8         23.0054   10.0840   13.4297 H         1 DK2         0.0525
     35 H9         20.7494   11.6003   15.7151 H         1 DK2         0.2458
     36 H10        21.7017   10.6862   17.4925 H         1 DK2         0.0525
     37 H11        23.5328    9.2120   18.2949 H         1 DK2         0.0530
@<TRIPOS>BOND
     1    1    2 2  
     2    2    3 1  
     3    2   12 am 
     4    3    4 ar 
     5    3    6 ar 
     6    4    5 ar 
     7    4   13 1  
     8    5    8 ar 
     9    6    7 ar 
    10    7    8 ar 
    11    8    9 1  
    12    9   10 ar 
    13    9   11 ar 
    14   12   13 am 
    15   12   15 1  
    16   13   14 2  
    17   15   16 1  
    18   15   19 1  
    19   16   17 ar 
    20   16   18 ar 
    21   19   20 1  
    22   20   21 ar 
    23   20   26 ar 
    24   21   22 ar 
    25   22   23 ar 
    26   23   24 1  
    27   23   25 ar 
    28   25   26 ar 
    29    5   27 1  
    30    6   28 1  
    31    7   29 1  
    32   15   30 1  
    33   19   31 1  
    34   19   32 1  
    35   21   33 1  
    36   22   34 1  
    37   24   35 1  
    38   25   36 1  
    39   26   37 1  
@<TRIPOS>SUBSTRUCTURE
     1 DK2         1

