### 
### Created by X-TOOL on Mon Sep 10 21:12:56 2018
### 

@<TRIPOS>MOLECULE
2pv1_ligand
  126   129     1     0     0
SMALL
GAST_HUCK


@<TRIPOS>ATOM
      1 N          23.1870  -20.1590   -7.9520 N.4       1 TRP         0.2388
      2 CA         22.2630  -19.1060   -7.4390 C.3       1 TRP         0.0691
      3 C          22.3760  -18.9880   -5.9340 C.2       1 TRP         0.2280
      4 O          22.5280  -19.9990   -5.2240 O.2       1 TRP        -0.3906
      5 CB         20.8100  -19.4410   -7.8070 C.3       1 TRP         0.0245
      6 CG         20.5780  -19.4830   -9.2670 C.2       1 TRP        -0.0386
      7 CD1        20.4200  -20.5990  -10.0490 C.2       1 TRP         0.0168
      8 CD2        20.5720  -18.3620  -10.1570 C.ar      1 TRP        -0.0213
      9 NE1        20.3260  -20.2360  -11.3720 N.pl3     1 TRP        -0.2890
     10 CE2        20.4150  -18.8670  -11.4640 C.ar      1 TRP         0.0603
     11 CE3        20.6880  -16.9720   -9.9720 C.ar      1 TRP        -0.0747
     12 CZ2        20.3760  -18.0390  -12.5860 C.ar      1 TRP        -0.0443
     13 CZ3        20.6480  -16.1450  -11.0840 C.ar      1 TRP        -0.0792
     14 CH2        20.4950  -16.6800  -12.3780 C.ar      1 TRP        -0.0768
     15 N          22.2920  -17.7640   -5.4320 N.am      1 GLU        -0.2608
     16 CA         22.3630  -17.5420   -3.9960 C.3       1 GLU         0.1326
     17 C          20.9750  -17.7540   -3.4100 C.2       1 GLU         0.2041
     18 O          20.8230  -18.1800   -2.2670 O.2       1 GLU        -0.3944
     19 CB         22.8540  -16.1250   -3.7130 C.3       1 GLU        -0.0008
     20 CG         22.9780  -15.7890   -2.2430 C.3       1 GLU         0.0044
     21 CD         23.8210  -16.7980   -1.4950 C.2       1 GLU         0.0350
     22 OE1        24.9070  -17.1570   -2.0050 O.co2     1 GLU        -0.5690
     23 OE2        23.3990  -17.2240   -0.3980 O.co2     1 GLU        -0.5690
     24 N          19.9580  -17.4590   -4.2120 N.am      1 TYR        -0.2621
     25 CA         18.5750  -17.6150   -3.7970 C.3       1 TYR         0.1390
     26 C          17.6860  -17.8620   -5.0150 C.2       1 TYR         0.2057
     27 O          17.8200  -17.1670   -6.0300 O.2       1 TYR        -0.3942
     28 CB         18.1150  -16.3630   -3.0480 C.3       1 TYR         0.0163
     29 CG         16.6190  -16.2250   -3.0000 C.ar      1 TYR        -0.0493
     30 CD1        15.8270  -17.1880   -2.3740 C.ar      1 TYR        -0.0685
     31 CD2        15.9880  -15.1750   -3.6580 C.ar      1 TYR        -0.0685
     32 CE1        14.4400  -17.1090   -2.4230 C.ar      1 TYR        -0.0398
     33 CE2        14.6130  -15.0840   -3.7110 C.ar      1 TYR        -0.0398
     34 CZ         13.8470  -16.0540   -3.1000 C.ar      1 TYR         0.0805
     35 OH         12.4840  -15.9850   -3.2270 O.3       1 TYR        -0.3376
     36 N          16.7890  -18.8450   -4.9250 N.am      1 ILE        -0.2633
     37 CA         15.8540  -19.1590   -6.0130 C.3       1 ILE         0.1337
     38 C          14.4440  -19.1370   -5.4240 C.2       1 ILE         0.2067
     39 O          14.1140  -19.9320   -4.5510 O.2       1 ILE        -0.3942
     40 CB         16.1100  -20.5620   -6.6450 C.3       1 ILE        -0.0037
     41 CG1        17.5350  -20.6350   -7.2130 C.3       1 ILE        -0.0491
     42 CG2        15.1000  -20.8260   -7.7640 C.3       1 ILE        -0.0582
     43 CD1        17.8830  -21.9710   -7.8220 C.3       1 ILE        -0.0648
     44 N          13.5980  -18.2020   -5.8730 N.am      1 PRO        -0.2498
     45 CA         12.2430  -18.1500   -5.3230 C.3       1 PRO         0.1338
     46 C          11.3900  -19.3420   -5.7090 C.2       1 PRO         0.2042
     47 O          11.6190  -20.0160   -6.7180 O.2       1 PRO        -0.3944
     48 CB         11.6880  -16.8210   -5.8600 C.3       1 PRO        -0.0104
     49 CG         12.4350  -16.6200   -7.1170 C.3       1 PRO        -0.0281
     50 CD         13.8420  -17.0900   -6.8040 C.3       1 PRO         0.0369
     51 N          10.4010  -19.6030   -4.8680 N.am      1 ASN        -0.2616
     52 CA          9.4700  -20.6810   -5.1060 C.3       1 ASN         0.1475
     53 C           8.4840  -20.2180   -6.1710 C.2       1 ASN         0.2057
     54 O           8.2110  -19.0090   -6.3020 O.2       1 ASN        -0.3942
     55 CB          8.7060  -21.0080   -3.8220 C.3       1 ASN         0.0773
     56 CG          9.5630  -21.7240   -2.8030 C.2       1 ASN         0.1780
     57 OD1         9.6050  -21.3360   -1.6390 O.2       1 ASN        -0.3970
     58 ND2        10.2510  -22.7770   -3.2360 N.am      1 ASN        -0.3007
     59 N           7.9660  -21.1570   -6.9520 N.am      1 VAL        -0.2691
     60 CA          6.9690  -20.8180   -7.9600 C.3       1 VAL         0.0967
     61 C           5.8030  -21.7840   -7.7940 C.2       1 VAL         0.0603
     62 O           5.9880  -22.8170   -7.1030 O.co2     1 VAL        -0.5666
     63 CB          7.5390  -20.9010   -9.4170 C.3       1 VAL        -0.0118
     64 CG1         8.6780  -19.9130   -9.5800 C.3       1 VAL        -0.0590
     65 CG2         8.0070  -22.3140   -9.7420 C.3       1 VAL        -0.0590
     66 OXT         4.7240  -21.5070   -8.3500 O.co2     1 VAL        -0.5666
     67 H1         23.0990  -20.2241   -8.9540 H         1 TRP         0.2016
     68 H2         22.9501  -21.0459   -7.5356 H         1 TRP         0.2016
     69 H3         24.1363  -19.9185   -7.7131 H         1 TRP         0.2016
     70 H4         22.5360  -18.1432   -7.8957 H         1 TRP         0.1114
     71 H5         20.1523  -18.6754   -7.3696 H         1 TRP         0.0430
     72 H6         20.5593  -20.4250   -7.3840 H         1 TRP         0.0430
     73 H7         20.3756  -21.6215   -9.6769 H         1 TRP         0.0795
     74 H8         20.2082  -20.8836  -12.1643 H         1 TRP         0.2216
     75 H9         20.8065  -16.5554   -8.9783 H         1 TRP         0.0540
     76 H10        20.2568  -18.4474  -13.5830 H         1 TRP         0.0541
     77 H11        20.7357  -15.0722  -10.9559 H         1 TRP         0.0510
     78 H12        20.4702  -16.0093  -13.2293 H         1 TRP         0.0530
     79 H13        22.1785  -16.9841   -6.0476 H         1 GLU         0.1885
     80 H14        23.0631  -18.2617   -3.5467 H         1 GLU         0.0801
     81 H15        22.1456  -15.4178   -4.1690 H         1 GLU         0.0330
     82 H16        23.8434  -16.0043   -4.1782 H         1 GLU         0.0330
     83 H17        21.9721  -15.7687   -1.7982 H         1 GLU         0.0433
     84 H18        23.4426  -14.7968   -2.1444 H         1 GLU         0.0433
     85 H19        20.1511  -17.1182   -5.1321 H         1 TYR         0.1885
     86 H20        18.5006  -18.4806   -3.1223 H         1 TYR         0.0821
     87 H21        18.5327  -15.4792   -3.5524 H         1 TYR         0.0453
     88 H22        18.4960  -16.4111   -2.0172 H         1 TYR         0.0453
     89 H23        16.2986  -18.0072   -1.8433 H         1 TYR         0.0530
     90 H24        16.5894  -14.4122   -4.1392 H         1 TYR         0.0530
     91 H25        13.8298  -17.8624   -1.9382 H         1 TYR         0.0525
     92 H26        14.1389  -14.2577   -4.2281 H         1 TYR         0.0525
     93 H27        12.1742  -15.1642   -2.8625 H         1 TYR         0.2458
     94 H28        16.7518  -19.3880   -4.0861 H         1 ILE         0.1883
     95 H29        15.9448  -18.3937   -6.7979 H         1 ILE         0.0803
     96 H30        15.9936  -21.3308   -5.8669 H         1 ILE         0.0345
     97 H31        18.2439  -20.4312   -6.3970 H         1 ILE         0.0267
     98 H32        17.6382  -19.8630   -7.9897 H         1 ILE         0.0267
     99 H33        14.0795  -20.7736   -7.3567 H         1 ILE         0.0235
    100 H34        15.2749  -21.8261   -8.1874 H         1 ILE         0.0235
    101 H35        15.2195  -20.0681   -8.5522 H         1 ILE         0.0235
    102 H36        18.9142  -21.9424   -8.2040 H         1 ILE         0.0230
    103 H37        17.1914  -22.1881   -8.6494 H         1 ILE         0.0230
    104 H38        17.7972  -22.7564   -7.0566 H         1 ILE         0.0230
    105 H39        12.2923  -18.1143   -4.2247 H         1 PRO         0.0802
    106 H40        11.8796  -16.0003   -5.1531 H         1 PRO         0.0313
    107 H41        10.6074  -16.8948   -6.0521 H         1 PRO         0.0313
    108 H42        12.4349  -15.5579   -7.4034 H         1 PRO         0.0287
    109 H43        11.9971  -17.2188   -7.9292 H         1 PRO         0.0287
    110 H44        14.3582  -17.4357   -7.7117 H         1 PRO         0.0524
    111 H45        14.4320  -16.2931   -6.3277 H         1 PRO         0.0524
    112 H46        10.2963  -19.0400   -4.0482 H         1 ASN         0.1885
    113 H47        10.0104  -21.5740   -5.4530 H         1 ASN         0.0826
    114 H48         7.8493  -21.6498   -4.0753 H         1 ASN         0.0551
    115 H49         8.3425  -20.0690   -3.3793 H         1 ASN         0.0551
    116 H50        10.8341  -23.2876   -2.6040 H         1 ASN         0.1814
    117 H51        10.1851  -23.0580   -4.1934 H         1 ASN         0.1814
    118 H52         8.2623  -22.1064   -6.8482 H         1 VAL         0.1875
    119 H53         6.6187  -19.7904   -7.7831 H         1 VAL         0.0729
    120 H54         6.7377  -20.6315  -10.1208 H         1 VAL         0.0336
    121 H55         9.0740  -19.9757  -10.6043 H         1 VAL         0.0234
    122 H56         9.4768  -20.1527   -8.8628 H         1 VAL         0.0234
    123 H57         8.3093  -18.8940   -9.3912 H         1 VAL         0.0234
    124 H58         7.1687  -23.0154   -9.6184 H         1 VAL         0.0234
    125 H59         8.8239  -22.5954   -9.0612 H         1 VAL         0.0234
    126 H60         8.3662  -22.3514  -10.7810 H         1 VAL         0.0234
@<TRIPOS>BOND
     1    1    2 1  
     2    2    3 1  
     3    2    5 1  
     4    3    4 2  
     5    3   15 am 
     6    5    6 1  
     7    6    7 2  
     8    6    8 1  
     9    7    9 1  
    10    8   10 ar 
    11    8   11 ar 
    12    9   10 1  
    13   10   12 ar 
    14   11   13 ar 
    15   12   14 ar 
    16   13   14 ar 
    17   15   16 1  
    18   16   17 1  
    19   16   19 1  
    20   17   18 2  
    21   17   24 am 
    22   19   20 1  
    23   20   21 1  
    24   21   22 ar 
    25   21   23 ar 
    26   24   25 1  
    27   25   26 1  
    28   25   28 1  
    29   26   27 2  
    30   26   36 am 
    31   28   29 1  
    32   29   30 ar 
    33   29   31 ar 
    34   30   32 ar 
    35   31   33 ar 
    36   32   34 ar 
    37   33   34 ar 
    38   34   35 1  
    39   36   37 1  
    40   37   38 1  
    41   37   40 1  
    42   38   39 2  
    43   38   44 am 
    44   40   41 1  
    45   40   42 1  
    46   41   43 1  
    47   44   45 1  
    48   44   50 1  
    49   45   46 1  
    50   45   48 1  
    51   46   47 2  
    52   46   51 am 
    53   48   49 1  
    54   49   50 1  
    55   51   52 1  
    56   52   53 1  
    57   52   55 1  
    58   53   54 2  
    59   53   59 am 
    60   55   56 1  
    61   56   57 2  
    62   56   58 am 
    63   59   60 1  
    64   60   61 1  
    65   60   63 1  
    66   61   62 ar 
    67   61   66 ar 
    68   63   64 1  
    69   63   65 1  
    70    1   67 1  
    71    1   68 1  
    72    1   69 1  
    73    2   70 1  
    74    5   71 1  
    75    5   72 1  
    76    7   73 1  
    77    9   74 1  
    78   11   75 1  
    79   12   76 1  
    80   13   77 1  
    81   14   78 1  
    82   15   79 1  
    83   16   80 1  
    84   19   81 1  
    85   19   82 1  
    86   20   83 1  
    87   20   84 1  
    88   24   85 1  
    89   25   86 1  
    90   28   87 1  
    91   28   88 1  
    92   30   89 1  
    93   31   90 1  
    94   32   91 1  
    95   33   92 1  
    96   35   93 1  
    97   36   94 1  
    98   37   95 1  
    99   40   96 1  
   100   41   97 1  
   101   41   98 1  
   102   42   99 1  
   103   42  100 1  
   104   42  101 1  
   105   43  102 1  
   106   43  103 1  
   107   43  104 1  
   108   45  105 1  
   109   48  106 1  
   110   48  107 1  
   111   49  108 1  
   112   49  109 1  
   113   50  110 1  
   114   50  111 1  
   115   51  112 1  
   116   52  113 1  
   117   55  114 1  
   118   55  115 1  
   119   58  116 1  
   120   58  117 1  
   121   59  118 1  
   122   60  119 1  
   123   63  120 1  
   124   64  121 1  
   125   64  122 1  
   126   64  123 1  
   127   65  124 1  
   128   65  125 1  
   129   65  126 1  
@<TRIPOS>SUBSTRUCTURE
     1 TRP         1

