### 
### Created by X-TOOL on Mon Sep 10 21:12:58 2018
### 

@<TRIPOS>MOLECULE
2pvh_ligand
   37    40     1     0     0
SMALL
GAST_HUCK


@<TRIPOS>ATOM
      1 N01        19.6130   10.4240   19.1490 N.2       1 P19        -0.2131
      2 C02        19.7530   10.7890   17.8550 C.2       1 P19        -0.0222
      3 C03        20.7410    9.9760   17.2870 C.2       1 P19        -0.0461
      4 C04        21.1840    9.0930   18.3460 C.2       1 P19         0.1430
      5 N05        20.4670    9.4040   19.4660 N.pl3     1 P19        -0.0959
      6 N06        22.1120    8.1230   18.3910 N.2       1 P19        -0.2644
      7 C07        22.2920    7.5010   19.5510 C.2       1 P19         0.1820
      8 N08        21.6020    7.7910   20.6520 N.2       1 P19        -0.2050
      9 C09        20.6820    8.7520   20.6000 C.2       1 P19         0.3151
     10 N10        19.9680    9.0610   21.7140 N.pl3     1 P19        -0.2052
     11 C11        20.0910    8.4590   22.9270 C.ar      1 P19         0.0744
     12 C12        20.2640    7.0810   23.0730 C.ar      1 P19        -0.0365
     13 C13        20.3340    6.4790   24.3290 C.ar      1 P19        -0.0707
     14 C14        20.2250    7.2750   25.4670 C.ar      1 P19        -0.0727
     15 C15        20.0710    8.6550   25.3340 C.ar      1 P19        -0.0707
     16 C16        20.0070    9.2480   24.0730 C.ar      1 P19        -0.0365
     17 N17        23.2470    6.5330   19.5930 N.pl3     1 P19        -0.2412
     18 C18        23.1830    5.3760   20.3040 C.ar      1 P19         0.0675
     19 C19        22.5070    5.2570   21.5200 C.ar      1 P19        -0.0377
     20 C20        22.4580    4.0560   22.2260 C.ar      1 P19        -0.0712
     21 C21        23.1040    2.9410   21.6990 C.ar      1 P19        -0.0732
     22 C22        23.7950    3.0460   20.4920 C.ar      1 P19        -0.0712
     23 C23        23.8350    4.2540   19.7960 C.ar      1 P19        -0.0377
     24 H1         19.1969   11.5747   17.3457 H         1 P19         0.0636
     25 H2         21.1022   10.0021   16.2600 H         1 P19         0.0194
     26 H3         19.2732    9.8170   21.6325 H         1 P19         0.2295
     27 H4         20.3461    6.4628   22.1864 H         1 P19         0.0542
     28 H5         20.4712    5.4074   24.4184 H         1 P19         0.0589
     29 H6         20.2597    6.8238   26.4520 H         1 P19         0.0524
     30 H7         20.0002    9.2739   26.2211 H         1 P19         0.0589
     31 H8         19.8920   10.3222   23.9843 H         1 P19         0.0542
     32 H9         24.0976    6.6914   19.0342 H         1 P19         0.2208
     33 H10        22.0042    6.1264   21.9281 H         1 P19         0.0538
     34 H11        21.9264    3.9914   23.1685 H         1 P19         0.0588
     35 H12        23.0700    1.9939   22.2253 H         1 P19         0.0521
     36 H13        24.3067    2.1789   20.0903 H         1 P19         0.0588
     37 H14        24.3743    4.3202   18.8580 H         1 P19         0.0538
@<TRIPOS>BOND
     1    1    2 2  
     2    1    5 1  
     3    2    3 1  
     4    3    4 2  
     5    4    5 1  
     6    4    6 1  
     7    5    9 1  
     8    6    7 2  
     9    7    8 1  
    10    7   17 1  
    11    8    9 2  
    12    9   10 1  
    13   10   11 1  
    14   11   12 ar 
    15   11   16 ar 
    16   12   13 ar 
    17   13   14 ar 
    18   14   15 ar 
    19   15   16 ar 
    20   17   18 1  
    21   18   19 ar 
    22   18   23 ar 
    23   19   20 ar 
    24   20   21 ar 
    25   21   22 ar 
    26   22   23 ar 
    27    2   24 1  
    28    3   25 1  
    29   10   26 1  
    30   12   27 1  
    31   13   28 1  
    32   14   29 1  
    33   15   30 1  
    34   16   31 1  
    35   17   32 1  
    36   19   33 1  
    37   20   34 1  
    38   21   35 1  
    39   22   36 1  
    40   23   37 1  
@<TRIPOS>SUBSTRUCTURE
     1 P19         1

