### 
### Created by X-TOOL on Mon Sep 10 21:12:58 2018
### 

@<TRIPOS>MOLECULE
2pvj_ligand
   47    50     1     0     0
SMALL
GAST_HUCK


@<TRIPOS>ATOM
      1 N01        20.1150    9.5890   19.7490 N.2       1 P44        -0.1945
      2 C02        20.3570    9.8500   18.4370 C.2       1 P44         0.0189
      3 C03        21.3330    8.9370   17.9920 C.2       1 P44         0.1133
      4 C04        21.6480    8.1070   19.1310 C.2       1 P44         0.1902
      5 N05        20.8890    8.5490   20.1760 N.pl3     1 P44        -0.0769
      6 N06        22.4960    7.0790   19.2960 N.2       1 P44        -0.2496
      7 C07        22.5510    6.5420   20.5110 C.2       1 P44         0.1722
      8 N08        21.8330    6.9620   21.5460 N.2       1 P44        -0.2010
      9 C09        20.9950    7.9770   21.3620 C.2       1 P44         0.3219
     10 N10        20.2380    8.4540   22.3830 N.pl3     1 P44        -0.2037
     11 C11        20.3150    8.1190   23.7000 C.ar      1 P44         0.0748
     12 C12        20.6540    6.8510   24.1700 C.ar      1 P44        -0.0365
     13 C13        20.6440    6.5590   25.5330 C.ar      1 P44        -0.0707
     14 C14        20.2930    7.5460   26.4500 C.ar      1 P44        -0.0727
     15 C15        19.9870    8.8250   25.9910 C.ar      1 P44        -0.0707
     16 C16        19.9990    9.1130   24.6270 C.ar      1 P44        -0.0365
     17 N17        23.3800    5.4860   20.6960 N.pl3     1 P44        -0.2848
     18 C18        23.5450    4.8670   22.0080 C.3       1 P44         0.0367
     19 C19        22.5240    3.7540   22.2420 C.3       1 P44        -0.0200
     20 C20        22.6730    2.6100   21.2330 C.3       1 P44        -0.0483
     21 C21        21.5680    1.5720   21.4640 C.3       1 P44        -0.0527
     22 C22        21.6170    1.0080   22.8870 C.3       1 P44        -0.0530
     23 C23        21.4980    2.1430   23.9130 C.3       1 P44        -0.0527
     24 C24        22.5540    3.2280   23.6820 C.3       1 P44        -0.0483
     25 C25        21.9590    8.8590   16.7050 C.1       1 P44         0.0456
     26 N26        22.5400    8.8590   15.7020 N.1       1 P44        -0.3797
     27 H1         19.8818   10.6254   17.8379 H         1 P44         0.0733
     28 H2         19.5220    9.1505   22.1318 H         1 P44         0.2299
     29 H3         20.9305    6.0778   23.4624 H         1 P44         0.0543
     30 H4         20.9088    5.5661   25.8780 H         1 P44         0.0589
     31 H5         20.2582    7.3215   27.5099 H         1 P44         0.0525
     32 H6         19.7370    9.6044   26.7017 H         1 P44         0.0589
     33 H7         19.7617   10.1139   24.2849 H         1 P44         0.0543
     34 H8         23.9054    5.1117   19.8931 H         1 P44         0.1913
     35 H9         23.4171    5.6365   22.7836 H         1 P44         0.0533
     36 H10        24.5572    4.4419   22.0766 H         1 P44         0.0533
     37 H11        21.5297    4.1966   22.0823 H         1 P44         0.0321
     38 H12        23.6558    2.1332   21.3628 H         1 P44         0.0269
     39 H13        22.5915    3.0100   20.2116 H         1 P44         0.0269
     40 H14        21.6970    0.7471   20.7479 H         1 P44         0.0265
     41 H15        20.5900    2.0488   21.3019 H         1 P44         0.0265
     42 H16        22.5715    0.4821   23.0365 H         1 P44         0.0265
     43 H17        20.7842    0.3032   23.0271 H         1 P44         0.0265
     44 H18        21.6298    1.7264   24.9225 H         1 P44         0.0265
     45 H19        20.4985    2.5949   23.8304 H         1 P44         0.0265
     46 H20        22.3621    4.0640   24.3706 H         1 P44         0.0269
     47 H21        23.5490    2.8057   23.8862 H         1 P44         0.0269
@<TRIPOS>BOND
     1    1    2 2  
     2    1    5 1  
     3    2    3 1  
     4    3    4 2  
     5    3   25 1  
     6    4    5 1  
     7    4    6 1  
     8    5    9 1  
     9    6    7 2  
    10    7    8 1  
    11    7   17 1  
    12    8    9 2  
    13    9   10 1  
    14   10   11 1  
    15   11   12 ar 
    16   11   16 ar 
    17   12   13 ar 
    18   13   14 ar 
    19   14   15 ar 
    20   15   16 ar 
    21   17   18 1  
    22   18   19 1  
    23   19   20 1  
    24   19   24 1  
    25   20   21 1  
    26   21   22 1  
    27   22   23 1  
    28   23   24 1  
    29   25   26 3  
    30    2   27 1  
    31   10   28 1  
    32   12   29 1  
    33   13   30 1  
    34   14   31 1  
    35   15   32 1  
    36   16   33 1  
    37   17   34 1  
    38   18   35 1  
    39   18   36 1  
    40   19   37 1  
    41   20   38 1  
    42   20   39 1  
    43   21   40 1  
    44   21   41 1  
    45   22   42 1  
    46   22   43 1  
    47   23   44 1  
    48   23   45 1  
    49   24   46 1  
    50   24   47 1  
@<TRIPOS>SUBSTRUCTURE
     1 P44         1

