### 
### Created by X-TOOL on Mon Sep 10 21:12:58 2018
### 

@<TRIPOS>MOLECULE
2pvk_ligand
   41    44     1     0     0
SMALL
GAST_HUCK


@<TRIPOS>ATOM
      1 N01        20.1200    9.4960   19.7630 N.2       1 P45        -0.1945
      2 C02        20.3890    9.7720   18.4630 C.2       1 P45         0.0189
      3 C03        21.3940    8.8920   18.0260 C.2       1 P45         0.1133
      4 C04        21.6970    8.0640   19.1720 C.2       1 P45         0.1902
      5 N05        20.9030    8.4730   20.2070 N.pl3     1 P45        -0.0769
      6 N06        22.5530    7.0510   19.3740 N.2       1 P45        -0.2494
      7 C07        22.5820    6.5020   20.5830 C.2       1 P45         0.1741
      8 N08        21.8250    6.8860   21.6070 N.2       1 P45        -0.2009
      9 C09        20.9800    7.8910   21.3940 C.2       1 P45         0.3219
     10 N10        20.2110    8.3430   22.4170 N.pl3     1 P45        -0.2037
     11 C11        20.2970    7.9630   23.7220 C.ar      1 P45         0.0748
     12 C12        20.6340    6.6690   24.1190 C.ar      1 P45        -0.0365
     13 C13        20.6120    6.2930   25.4620 C.ar      1 P45        -0.0707
     14 C14        20.2480    7.2200   26.4390 C.ar      1 P45        -0.0727
     15 C15        19.9580    8.5300   26.0550 C.ar      1 P45        -0.0707
     16 C16        19.9890    8.9020   24.7120 C.ar      1 P45        -0.0365
     17 N17        23.4510    5.4820   20.7780 N.pl3     1 P45        -0.2737
     18 C18        23.6170    4.8260   22.0710 C.3       1 P45         0.0676
     19 C19        22.5940    3.7600   22.3850 C.ar      1 P45        -0.0198
     20 C20        22.3590    3.4210   23.7160 C.ar      1 P45        -0.0577
     21 C21        21.4360    2.4260   24.0330 C.ar      1 P45        -0.0545
     22 C22        20.7400    1.7500   23.0310 C.ar      1 P45         0.0330
     23 C23        20.9530    2.1220   21.7060 C.ar      1 P45        -0.0545
     24 C24        21.8790    3.1130   21.3770 C.ar      1 P45        -0.0577
     25 C25        21.9880    8.8670   16.7230 C.1       1 P45         0.0456
     26 N26        22.4920    8.9460   15.6820 N.1       1 P45        -0.3797
     27 CL27       19.6540    0.4560   23.4370 Cl        1 P45        -0.0771
     28 H1         19.9092   10.5425   17.8614 H         1 P45         0.0733
     29 H2         19.4916    9.0422   22.1834 H         1 P45         0.2299
     30 H3         20.9188    5.9406   23.3684 H         1 P45         0.0543
     31 H4         20.8775    5.2812   25.7464 H         1 P45         0.0589
     32 H5         20.1913    6.9270   27.4811 H         1 P45         0.0525
     33 H6         19.7059    9.2664   26.8095 H         1 P45         0.0589
     34 H7         19.7728    9.9268   24.4326 H         1 P45         0.0543
     35 H8         24.0175    5.1561   19.9819 H         1 P45         0.1940
     36 H9         23.5576    5.5963   22.8540 H         1 P45         0.0695
     37 H10        24.6127    4.3590   22.0908 H         1 P45         0.0695
     38 H11        22.8955    3.9325   24.5069 H         1 P45         0.0558
     39 H12        21.2567    2.1742   25.0720 H         1 P45         0.0606
     40 H13        20.3908    1.6342   20.9179 H         1 P45         0.0606
     41 H14        22.0425    3.3797   20.3391 H         1 P45         0.0558
@<TRIPOS>BOND
     1    1    2 2  
     2    1    5 1  
     3    2    3 1  
     4    3    4 2  
     5    3   25 1  
     6    4    5 1  
     7    4    6 1  
     8    5    9 1  
     9    6    7 2  
    10    7    8 1  
    11    7   17 1  
    12    8    9 2  
    13    9   10 1  
    14   10   11 1  
    15   11   12 ar 
    16   11   16 ar 
    17   12   13 ar 
    18   13   14 ar 
    19   14   15 ar 
    20   15   16 ar 
    21   17   18 1  
    22   18   19 1  
    23   19   20 ar 
    24   19   24 ar 
    25   20   21 ar 
    26   21   22 ar 
    27   22   23 ar 
    28   22   27 1  
    29   23   24 ar 
    30   25   26 3  
    31    2   28 1  
    32   10   29 1  
    33   12   30 1  
    34   13   31 1  
    35   14   32 1  
    36   15   33 1  
    37   16   34 1  
    38   17   35 1  
    39   18   36 1  
    40   18   37 1  
    41   20   38 1  
    42   21   39 1  
    43   23   40 1  
    44   24   41 1  
@<TRIPOS>SUBSTRUCTURE
     1 P45         1

