### 
### Created by X-TOOL on Mon Sep 10 21:12:57 2018
### 

@<TRIPOS>MOLECULE
2pvm_ligand
   41    44     1     0     0
SMALL
GAST_HUCK


@<TRIPOS>ATOM
      1 N01        20.1340    9.9390   19.7070 N.2       1 P29        -0.1943
      2 C02        20.4390   10.0350   18.3860 C.2       1 P29         0.0191
      3 C03        21.4070    9.0650   18.0660 C.2       1 P29         0.1136
      4 C04        21.6650    8.3550   19.3000 C.2       1 P29         0.1910
      5 N05        20.8760    8.9320   20.2520 N.pl3     1 P29        -0.0791
      6 N06        22.4740    7.3330   19.6320 N.2       1 P29        -0.2456
      7 C07        22.4660    6.9290   20.9010 C.2       1 P29         0.1906
      8 N08        21.7110    7.4830   21.8430 N.2       1 P29        -0.2028
      9 C09        20.9190    8.4910   21.4950 C.2       1 P29         0.3030
     10 N10        20.1550    9.1040   22.4290 N.pl3     1 P29        -0.2493
     11 C11        20.1440    8.6660   23.8230 C.3       1 P29         0.0507
     12 C12        21.3140    9.2600   24.6070 C.3       1 P29         0.0239
     13 C13        21.2570    8.7150   26.0160 C.2       1 P29         0.0537
     14 N14        21.2900    7.3950   26.3010 N.pl3     1 P29        -0.2625
     15 C15        21.2220    7.2880   27.6570 C.2       1 P29         0.0875
     16 N16        21.1460    8.5320   28.2120 N.2       1 P29        -0.3437
     17 C17        21.1660    9.4540   27.2120 C.2       1 P29        -0.0277
     18 N18        23.2210    5.8920   21.3510 N.pl3     1 P29        -0.2377
     19 C19        23.9910    5.0260   20.6430 C.ar      1 P29         0.0689
     20 C20        23.9970    4.9270   19.2490 C.ar      1 P29        -0.0373
     21 C21        24.8190    4.0160   18.5890 C.ar      1 P29        -0.0710
     22 C22        25.6530    3.1850   19.3320 C.ar      1 P29        -0.0730
     23 C23        25.6500    3.2670   20.7230 C.ar      1 P29        -0.0710
     24 C24        24.8230    4.1810   21.3750 C.ar      1 P29        -0.0373
     25 C25        22.0690    8.8930   16.8090 C.1       1 P29         0.0458
     26 N26        22.6610    8.8540   15.8130 N.1       1 P29        -0.3796
     27 H1         20.0041   10.7481   17.6873 H         1 P29         0.0734
     28 H2         19.5653    9.9009   22.1496 H         1 P29         0.1992
     29 H3         20.2141    7.5687   23.8533 H         1 P29         0.0561
     30 H4         19.2013    8.9863   24.2907 H         1 P29         0.0561
     31 H5         21.2312   10.3567   24.6274 H         1 P29         0.0464
     32 H6         22.2646    8.9727   24.1339 H         1 P29         0.0464
     33 H7         21.3541    6.6207   25.6248 H         1 P29         0.2386
     34 H8         21.2275    6.3520   28.2135 H         1 P29         0.1149
     35 H9         21.1211   10.5372   27.3145 H         1 P29         0.0324
     36 H10        23.2071    5.7424   22.3700 H         1 P29         0.2226
     37 H11        23.3481    5.5729   18.6687 H         1 P29         0.0540
     38 H12        24.8092    3.9548   17.5068 H         1 P29         0.0588
     39 H13        26.3024    2.4767   18.8302 H         1 P29         0.0522
     40 H14        26.2948    2.6159   21.3021 H         1 P29         0.0588
     41 H15        24.8273    4.2346   22.4577 H         1 P29         0.0540
@<TRIPOS>BOND
     1    1    2 2  
     2    1    5 1  
     3    2    3 1  
     4    3    4 2  
     5    3   25 1  
     6    4    5 1  
     7    4    6 1  
     8    5    9 1  
     9    6    7 2  
    10    7    8 1  
    11    7   18 1  
    12    8    9 2  
    13    9   10 1  
    14   10   11 1  
    15   11   12 1  
    16   12   13 1  
    17   13   14 1  
    18   13   17 2  
    19   14   15 1  
    20   15   16 2  
    21   16   17 1  
    22   18   19 1  
    23   19   20 ar 
    24   19   24 ar 
    25   20   21 ar 
    26   21   22 ar 
    27   22   23 ar 
    28   23   24 ar 
    29   25   26 3  
    30    2   27 1  
    31   10   28 1  
    32   11   29 1  
    33   11   30 1  
    34   12   31 1  
    35   12   32 1  
    36   14   33 1  
    37   15   34 1  
    38   17   35 1  
    39   18   36 1  
    40   20   37 1  
    41   21   38 1  
    42   22   39 1  
    43   23   40 1  
    44   24   41 1  
@<TRIPOS>SUBSTRUCTURE
     1 P29         1

