### 
### Created by X-TOOL on Mon Sep 10 21:12:59 2018
### 

@<TRIPOS>MOLECULE
2pvn_ligand
   45    48     1     0     0
SMALL
GAST_HUCK


@<TRIPOS>ATOM
      1 N01        19.9640    9.4690   20.1230 N.2       1 P63        -0.1941
      2 C02        20.2290    9.7760   18.8260 C.2       1 P63         0.0192
      3 C03        21.2050    8.8890   18.3320 C.2       1 P63         0.1137
      4 C04        21.5130    8.0160   19.4430 C.2       1 P63         0.1913
      5 N05        20.7400    8.4130   20.4930 N.pl3     1 P63        -0.0766
      6 N06        22.3460    6.9740   19.6120 N.2       1 P63        -0.2448
      7 C07        22.3820    6.3670   20.7930 C.2       1 P63         0.1918
      8 N08        21.6300    6.7470   21.8220 N.2       1 P63        -0.1977
      9 C09        20.8180    7.7860   21.6460 C.2       1 P63         0.3222
     10 N10        20.0670    8.3110   22.6410 N.pl3     1 P63        -0.2038
     11 C11        20.1080    7.9500   23.9510 C.ar      1 P63         0.0748
     12 C12        19.7570    8.9250   24.8880 C.ar      1 P63        -0.0365
     13 C13        19.5390    8.5230   26.2070 C.ar      1 P63        -0.0707
     14 C14        19.6980    7.1900   26.6020 C.ar      1 P63        -0.0727
     15 C15        20.1950    6.2520   25.6930 C.ar      1 P63        -0.0707
     16 C16        20.3980    6.6490   24.3700 C.ar      1 P63        -0.0365
     17 N17        23.2150    5.3100   21.0060 N.pl3     1 P63        -0.2410
     18 C18        23.9520    4.5870   20.1190 C.ar      1 P63         0.0549
     19 C19        24.1570    4.9410   18.7870 C.ar      1 P63        -0.0183
     20 C20        24.9930    4.2220   17.9350 C.ar      1 P63         0.0567
     21 C21        25.6580    3.1110   18.4400 C.ar      1 P63        -0.0523
     22 C22        25.4490    2.7140   19.7580 C.ar      1 P63        -0.0840
     23 C23        24.5930    3.4410   20.5850 C.ar      1 P63        -0.0526
     24 C25        21.7240    8.8570   16.9970 C.1       1 P63         0.0459
     25 N26        22.1280    8.9010   15.9110 N.1       1 P63        -0.3795
     26 N27        24.9960    4.4090   16.5910 N.am      1 P63        -0.2366
     27 C28        25.1270    5.5610   15.8950 C.2       1 P63         0.2003
     28 O29        25.2420    5.5670   14.6750 O.2       1 P63        -0.3852
     29 C30        25.1380    6.8880   16.6530 C.3       1 P63         0.0316
     30 H1         19.7613   10.5796   18.2591 H         1 P63         0.0734
     31 H2         19.4020    9.0536   22.3819 H         1 P63         0.2299
     32 H3         19.6567    9.9649   24.5988 H         1 P63         0.0543
     33 H4         19.2395    9.2608   26.9425 H         1 P63         0.0589
     34 H5         19.4367    6.8861   27.6092 H         1 P63         0.0525
     35 H6         20.4179    5.2390   26.0081 H         1 P63         0.0589
     36 H7         20.7880    5.9344   23.6543 H         1 P63         0.0543
     37 H8         23.3000    5.0126   21.9885 H         1 P63         0.2223
     38 H9         23.6443    5.8128   18.3969 H         1 P63         0.0416
     39 H10        26.3395    2.5535   17.8076 H         1 P63         0.0414
     40 H11        25.9540    1.8356   20.1433 H         1 P63         0.0551
     41 H12        24.4242    3.1102   21.6034 H         1 P63         0.0416
     42 H13        24.8863    3.5818   16.0399 H         1 P63         0.2254
     43 H14        25.2514    7.7171   15.9391 H         1 P63         0.0472
     44 H15        25.9783    6.8979   17.3628 H         1 P63         0.0472
     45 H16        24.1923    7.0042   17.2026 H         1 P63         0.0472
@<TRIPOS>BOND
     1    1    2 2  
     2    1    5 1  
     3    2    3 1  
     4    3    4 2  
     5    3   24 1  
     6    4    5 1  
     7    4    6 1  
     8    5    9 1  
     9    6    7 2  
    10    7    8 1  
    11    7   17 1  
    12    8    9 2  
    13    9   10 1  
    14   10   11 1  
    15   11   12 ar 
    16   11   16 ar 
    17   12   13 ar 
    18   13   14 ar 
    19   14   15 ar 
    20   15   16 ar 
    21   17   18 1  
    22   18   19 ar 
    23   18   23 ar 
    24   19   20 ar 
    25   20   21 ar 
    26   20   26 1  
    27   21   22 ar 
    28   22   23 ar 
    29   24   25 3  
    30   26   27 am 
    31   27   28 2  
    32   27   29 1  
    33    2   30 1  
    34   10   31 1  
    35   12   32 1  
    36   13   33 1  
    37   14   34 1  
    38   15   35 1  
    39   16   36 1  
    40   17   37 1  
    41   19   38 1  
    42   21   39 1  
    43   22   40 1  
    44   23   41 1  
    45   26   42 1  
    46   29   43 1  
    47   29   44 1  
    48   29   45 1  
@<TRIPOS>SUBSTRUCTURE
     1 P63         1

