### 
### Created by X-TOOL on Mon Sep 10 21:12:57 2018
### 

@<TRIPOS>MOLECULE
2pvu_ligand
   25    24     1     0     0
SMALL
GAST_HUCK


@<TRIPOS>ATOM
      1 N         -13.9730   22.9190   12.8300 N.4       1 LYS         0.2327
      2 CA        -13.0840   23.8760   13.5690 C.3       1 LYS         0.0283
      3 C         -12.4030   24.8150   12.5640 C.2       1 LYS         0.0844
      4 O         -11.7370   25.7620   12.9560 O.co2     1 LYS        -0.5643
      5 CB        -12.0170   23.1140   14.3470 C.3       1 LYS         0.0026
      6 CG        -11.1420   22.2350   13.4200 C.3       1 LYS        -0.0416
      7 CD         -9.7990   21.8730   14.0890 C.3       1 LYS        -0.0123
      8 CE         -9.2180   20.6340   13.4240 C.3       1 LYS        -0.0354
      9 NZ         -7.7710   20.3520   13.9330 N.4       1 LYS         0.2185
     10 OXT       -12.4970   24.6210   11.3320 O.co2     1 LYS        -0.5643
     11 H1        -14.4217   22.3009   13.4878 H         1 LYS         0.2010
     12 H2        -13.4204   22.3778   12.1836 H         1 LYS         0.2010
     13 H3        -14.6741   23.4354   12.3222 H         1 LYS         0.2010
     14 H4        -13.6912   24.4675   14.2700 H         1 LYS         0.1024
     15 H5        -12.5107   22.4676   15.0875 H         1 LYS         0.0339
     16 H6        -11.3703   23.8374   14.8650 H         1 LYS         0.0339
     17 H7        -10.9410   22.7861   12.4895 H         1 LYS         0.0270
     18 H8        -11.6868   21.3083   13.1869 H         1 LYS         0.0270
     19 H9         -9.9643   21.6719   15.1577 H         1 LYS         0.0317
     20 H10        -9.0964   22.7120   13.9781 H         1 LYS         0.0317
     21 H11        -9.1924   20.7888   12.3353 H         1 LYS         0.0813
     22 H12        -9.8559   19.7685   13.6564 H         1 LYS         0.0813
     23 H13        -7.4095   19.5282   13.4784 H         1 LYS         0.1994
     24 H14        -7.7882   20.2053   14.9301 H         1 LYS         0.1994
     25 H15        -7.1801   21.1402   13.7194 H         1 LYS         0.1994
@<TRIPOS>BOND
     1    1    2 1  
     2    2    3 1  
     3    2    5 1  
     4    3    4 ar 
     5    3   10 ar 
     6    5    6 1  
     7    6    7 1  
     8    7    8 1  
     9    8    9 1  
    10    1   11 1  
    11    1   12 1  
    12    1   13 1  
    13    2   14 1  
    14    5   15 1  
    15    5   16 1  
    16    6   17 1  
    17    6   18 1  
    18    7   19 1  
    19    7   20 1  
    20    8   21 1  
    21    8   22 1  
    22    9   23 1  
    23    9   24 1  
    24    9   25 1  
@<TRIPOS>SUBSTRUCTURE
     1 LYS         1

