### 
### Created by X-TOOL on Mon Sep 10 21:12:57 2018
### 

@<TRIPOS>MOLECULE
2pwc_ligand
   75    79     1     0     0
SMALL
GAST_HUCK


@<TRIPOS>ATOM
      1 C2        -14.3930   23.8410   -1.7170 C.ar      1 G3G        -0.0429
      2 C6        -13.2940   24.2110   -2.5180 C.ar      1 G3G         0.0353
      3 C5        -13.4200   24.1610   -3.9240 C.ar      1 G3G        -0.0429
      4 C20       -14.5970   23.6370   -4.5150 C.ar      1 G3G        -0.0471
      5 C27       -15.7080   23.2600   -3.7170 C.ar      1 G3G         0.0951
      6 C18       -15.5980   23.3790   -2.3120 C.ar      1 G3G        -0.0471
      7 S9        -17.1770   22.6560   -4.5330 S.o2      1 G3G         0.0669
      8 O40       -18.2600   23.0640   -3.6580 O.2       1 G3G        -0.1516
      9 O11       -17.0310   22.9690   -5.9390 O.2       1 G3G        -0.1516
     10 N32       -16.8730   20.9700   -4.2350 N.am      1 G3G        -0.2141
     11 C33       -17.4250   20.3890   -2.9790 C.3       1 G3G         0.0637
     12 C34       -18.7020   19.5640   -3.0720 C.ar      1 G3G        -0.0244
     13 C38       -18.8410   18.4070   -2.2460 C.ar      1 G3G        -0.0588
     14 C39       -20.0290   17.6330   -2.2510 C.ar      1 G3G        -0.0685
     15 C37       -21.0550   17.9890   -3.1700 C.ar      1 G3G        -0.0687
     16 C36       -20.8840   19.1030   -4.0450 C.ar      1 G3G        -0.0685
     17 C35       -19.7210   19.9180   -3.9850 C.ar      1 G3G        -0.0588
     18 C24       -16.0310   20.2480   -5.2530 C.3       1 G3G         0.1074
     19 C25       -14.6390   19.7940   -4.7320 C.3       1 G3G        -0.0110
     20 N22       -14.6030   18.3100   -4.6830 N.4       1 G3G         0.2298
     21 C21       -15.9330   17.7750   -5.0670 C.3       1 G3G        -0.0110
     22 C23       -16.7060   18.9120   -5.7750 C.3       1 G3G         0.1074
     23 N28       -16.5220   18.8330   -7.2620 N.am      1 G3G        -0.2141
     24 C7        -15.2420   18.5460   -7.9590 C.3       1 G3G         0.0637
     25 C12       -14.4040   19.8270   -8.1220 C.ar      1 G3G        -0.0244
     26 C14       -13.0040   19.8080   -7.8240 C.ar      1 G3G        -0.0588
     27 C30       -12.1970   20.9630   -7.9810 C.ar      1 G3G        -0.0685
     28 C31       -12.8180   22.1810   -8.3990 C.ar      1 G3G        -0.0687
     29 C29       -14.2090   22.2100   -8.7040 C.ar      1 G3G        -0.0685
     30 C13       -15.0110   21.0380   -8.5660 C.ar      1 G3G        -0.0588
     31 S8        -17.8690   19.1340   -8.2350 S.o2      1 G3G         0.0669
     32 C26       -18.9880   17.7820   -8.2170 C.ar      1 G3G         0.0951
     33 C17       -18.7720   16.5260   -8.8500 C.ar      1 G3G        -0.0471
     34 C1        -19.7440   15.4850   -8.7900 C.ar      1 G3G        -0.0429
     35 C4        -20.9710   15.6840   -8.0650 C.ar      1 G3G         0.0353
     36 C3        -21.2110   16.9460   -7.4330 C.ar      1 G3G        -0.0429
     37 C19       -20.2130   17.9610   -7.4910 C.ar      1 G3G        -0.0471
     38 O41       -17.3410   19.2720   -9.6130 O.2       1 G3G        -0.1516
     39 O10       -18.5680   20.3140   -7.6860 O.2       1 G3G        -0.1516
     40 N42       -21.9240   14.7290   -7.9830 N.pl3     1 G3G        -0.3369
     41 N43       -12.1650   24.6900   -1.9540 N.pl3     1 G3G        -0.3369
     42 H1        -14.3185   23.9094   -0.6377 H         1 G3G         0.0515
     43 H2        -12.6148   24.5241   -4.5524 H         1 G3G         0.0515
     44 H3        -14.6491   23.5227   -5.5917 H         1 G3G         0.0602
     45 H4        -16.4407   23.1153   -1.6832 H         1 G3G         0.0602
     46 H5        -17.6253   21.2249   -2.2926 H         1 G3G         0.0641
     47 H6        -16.6474   19.7402   -2.5496 H         1 G3G         0.0641
     48 H7        -18.0203   18.1143   -1.6012 H         1 G3G         0.0557
     49 H8        -20.1518   16.7948   -1.5746 H         1 G3G         0.0599
     50 H9        -21.9713   17.4110   -3.2057 H         1 G3G         0.0559
     51 H10       -21.6565   19.3324   -4.7700 H         1 G3G         0.0599
     52 H11       -19.6183   20.7884   -4.6229 H         1 G3G         0.0557
     53 H12       -15.8864   20.9344   -6.1003 H         1 G3G         0.0590
     54 H13       -14.4717   20.2007   -3.7237 H         1 G3G         0.0833
     55 H14       -13.8539   20.1600   -5.4099 H         1 G3G         0.0833
     56 H15       -14.3761   18.0092   -3.7481 H         1 G3G         0.2015
     57 H16       -13.9046   17.9686   -5.3246 H         1 G3G         0.2015
     58 H17       -16.4806   17.4510   -4.1697 H         1 G3G         0.0833
     59 H18       -15.8113   16.9217   -5.7504 H         1 G3G         0.0833
     60 H19       -17.7759   18.8774   -5.5220 H         1 G3G         0.0590
     61 H20       -15.4594   18.1293   -8.9535 H         1 G3G         0.0641
     62 H21       -14.6689   17.8134   -7.3718 H         1 G3G         0.0641
     63 H22       -12.5504   18.8893   -7.4701 H         1 G3G         0.0557
     64 H23       -11.1310   20.9234   -7.7881 H         1 G3G         0.0599
     65 H24       -12.2278   23.0862   -8.4842 H         1 G3G         0.0559
     66 H25       -14.6636   23.1331   -9.0449 H         1 G3G         0.0599
     67 H26       -16.0699   21.0681   -8.7962 H         1 G3G         0.0557
     68 H27       -17.8474   16.3570   -9.3900 H         1 G3G         0.0602
     69 H28       -19.5585   14.5420   -9.2913 H         1 G3G         0.0515
     70 H29       -22.1452   17.1279   -6.9142 H         1 G3G         0.0515
     71 H30       -20.3840   18.8967   -6.9711 H         1 G3G         0.0602
     72 H31       -21.7748   13.8129   -8.4295 H         1 G3G         0.1719
     73 H32       -22.7994   14.9174   -7.4741 H         1 G3G         0.1719
     74 H33       -12.0765   24.7250   -0.9284 H         1 G3G         0.1719
     75 H34       -11.3921   25.0205   -2.5492 H         1 G3G         0.1719
@<TRIPOS>BOND
     1    1    2 ar 
     2    1    6 ar 
     3    2    3 ar 
     4    2   41 1  
     5    3    4 ar 
     6    4    5 ar 
     7    5    6 ar 
     8    5    7 1  
     9    7    8 2  
    10    7    9 2  
    11    7   10 am 
    12   10   11 1  
    13   10   18 1  
    14   11   12 1  
    15   12   13 ar 
    16   12   17 ar 
    17   13   14 ar 
    18   14   15 ar 
    19   15   16 ar 
    20   16   17 ar 
    21   18   19 1  
    22   18   22 1  
    23   19   20 1  
    24   20   21 1  
    25   21   22 1  
    26   22   23 1  
    27   23   24 1  
    28   23   31 am 
    29   24   25 1  
    30   25   26 ar 
    31   25   30 ar 
    32   26   27 ar 
    33   27   28 ar 
    34   28   29 ar 
    35   29   30 ar 
    36   31   32 1  
    37   31   38 2  
    38   31   39 2  
    39   32   33 ar 
    40   32   37 ar 
    41   33   34 ar 
    42   34   35 ar 
    43   35   36 ar 
    44   35   40 1  
    45   36   37 ar 
    46    1   42 1  
    47    3   43 1  
    48    4   44 1  
    49    6   45 1  
    50   11   46 1  
    51   11   47 1  
    52   13   48 1  
    53   14   49 1  
    54   15   50 1  
    55   16   51 1  
    56   17   52 1  
    57   18   53 1  
    58   19   54 1  
    59   19   55 1  
    60   20   56 1  
    61   20   57 1  
    62   21   58 1  
    63   21   59 1  
    64   22   60 1  
    65   24   61 1  
    66   24   62 1  
    67   26   63 1  
    68   27   64 1  
    69   28   65 1  
    70   29   66 1  
    71   30   67 1  
    72   33   68 1  
    73   34   69 1  
    74   36   70 1  
    75   37   71 1  
    76   40   72 1  
    77   40   73 1  
    78   41   74 1  
    79   41   75 1  
@<TRIPOS>SUBSTRUCTURE
     1 G3G         1

