### 
### Created by X-TOOL on Mon Sep 10 21:12:55 2018
### 

@<TRIPOS>MOLECULE
2pwd_ligand
   25    25     1     0     0
SMALL
GAST_HUCK


@<TRIPOS>ATOM
      1 C1          5.9730    3.5020    3.0760 C.3       1 NOJ        -0.0040
      2 C2          4.6440    4.3300    2.9520 C.3       1 NOJ         0.1231
      3 O2          3.7180    3.6460    2.1370 O.3       1 NOJ        -0.3838
      4 C3          4.9660    5.7160    2.3550 C.3       1 NOJ         0.1171
      5 O3          3.7900    6.5230    2.2090 O.3       1 NOJ        -0.3862
      6 C4          5.9570    6.4470    3.3000 C.3       1 NOJ         0.1280
      7 O4          6.2860    7.7570    2.7580 O.3       1 NOJ        -0.3835
      8 C5          7.2400    5.5640    3.4760 C.3       1 NOJ         0.0301
      9 N5          6.9210    4.2250    3.9460 N.4       1 NOJ         0.2346
     10 C6          8.1990    6.1920    4.5040 C.3       1 NOJ         0.0893
     11 O6          7.4640    6.1380    5.7720 O.3       1 NOJ        -0.3894
     12 H1          6.4176    3.3699    2.0786 H         1 NOJ         0.0840
     13 H2          5.7523    2.5168    3.5125 H         1 NOJ         0.0840
     14 H3          4.2071    4.4623    3.9528 H         1 NOJ         0.0674
     15 H4          2.9195    4.1563    2.0699 H         1 NOJ         0.2101
     16 H5          5.4306    5.5801    1.3672 H         1 NOJ         0.0649
     17 H6          3.1766    6.0851    1.6307 H         1 NOJ         0.2100
     18 H7          5.4826    6.5828    4.2831 H         1 NOJ         0.0678
     19 H8          6.8924    8.1969    3.3421 H         1 NOJ         0.2102
     20 H9          7.7470    5.4916    2.5025 H         1 NOJ         0.0900
     21 H10         7.7758    3.6933    3.9966 H         1 NOJ         0.2019
     22 H11         6.5161    4.2986    4.8662 H         1 NOJ         0.2019
     23 H12         8.4319    7.2325    4.2336 H         1 NOJ         0.0614
     24 H13         9.1317    5.6127    4.5703 H         1 NOJ         0.0614
     25 H14         7.2620    5.2336    5.9814 H         1 NOJ         0.2097
@<TRIPOS>BOND
     1    1    2 1  
     2    1    9 1  
     3    2    3 1  
     4    2    4 1  
     5    4    5 1  
     6    4    6 1  
     7    6    7 1  
     8    6    8 1  
     9    8    9 1  
    10    8   10 1  
    11   10   11 1  
    12    1   12 1  
    13    1   13 1  
    14    2   14 1  
    15    3   15 1  
    16    4   16 1  
    17    5   17 1  
    18    6   18 1  
    19    7   19 1  
    20    8   20 1  
    21    9   21 1  
    22    9   22 1  
    23   10   23 1  
    24   10   24 1  
    25   11   25 1  
@<TRIPOS>SUBSTRUCTURE
     1 NOJ         1

