### 
### Created by X-TOOL on Mon Sep 10 21:12:55 2018
### 

@<TRIPOS>MOLECULE
2pwg_ligand
   29    30     1     0     0
SMALL
GAST_HUCK


@<TRIPOS>ATOM
      1 C1         20.0830   34.2930  112.2200 C.3       1 CTS        -0.0023
      2 C2         20.7070   34.5890  110.8970 C.3       1 CTS         0.1231
      3 C3         21.9780   35.5440  111.0290 C.3       1 CTS         0.1171
      4 C4         22.3490   35.9910  112.4640 C.3       1 CTS         0.1283
      5 C5         22.1740   34.8880  113.5380 C.3       1 CTS         0.0349
      6 C6         21.9750   35.3560  115.0110 C.3       1 CTS         0.1050
      7 O2         21.0120   33.3270  110.2660 O.3       1 CTS        -0.3838
      8 O3         21.7080   36.7660  110.3030 O.3       1 CTS        -0.3862
      9 O4         23.7120   36.4430  112.5220 O.3       1 CTS        -0.3834
     10 O6         22.5080   36.6620  115.3030 O.3       1 CTS        -0.3859
     11 N          21.0370   33.9920  113.2870 N.4       1 CTS         0.2431
     12 C7         20.4420   35.2890  115.1520 C.3       1 CTS         0.0189
     13 C8         20.2730   33.8860  114.5330 C.3       1 CTS        -0.0288
     14 H1         19.4174   33.4255  112.0996 H         1 CTS         0.0841
     15 H2         19.4919   35.1692  112.5248 H         1 CTS         0.0841
     16 H3         19.9671   35.1139  110.2749 H         1 CTS         0.0674
     17 H4         22.8418   35.0241  110.5892 H         1 CTS         0.0649
     18 H5         21.6883   36.8299  112.7278 H         1 CTS         0.0678
     19 H6         23.0965   34.2899  113.5029 H         1 CTS         0.0904
     20 H7         22.4511   34.6404  115.6975 H         1 CTS         0.0653
     21 H8         21.6664   32.8677  110.7790 H         1 CTS         0.2101
     22 H9         21.4725   36.5553  109.4071 H         1 CTS         0.2100
     23 H10        23.8924   36.7914  113.3872 H         1 CTS         0.2102
     24 H11        23.4433   36.6656  115.1364 H         1 CTS         0.2100
     25 H12        21.4314   33.0905  113.0684 H         1 CTS         0.2039
     26 H13        19.9292   36.0714  114.5734 H         1 CTS         0.0344
     27 H14        20.1111   35.3317  116.2002 H         1 CTS         0.0344
     28 H15        20.6909   33.1092  115.1902 H         1 CTS         0.0815
     29 H16        19.2142   33.6656  114.3320 H         1 CTS         0.0815
@<TRIPOS>BOND
     1    1    2 1  
     2    1   11 1  
     3    2    3 1  
     4    2    7 1  
     5    3    4 1  
     6    3    8 1  
     7    4    5 1  
     8    4    9 1  
     9    5    6 1  
    10    5   11 1  
    11    6   10 1  
    12    6   12 1  
    13   11   13 1  
    14   12   13 1  
    15    1   14 1  
    16    1   15 1  
    17    2   16 1  
    18    3   17 1  
    19    4   18 1  
    20    5   19 1  
    21    6   20 1  
    22    7   21 1  
    23    8   22 1  
    24    9   23 1  
    25   10   24 1  
    26   11   25 1  
    27   12   26 1  
    28   12   27 1  
    29   13   28 1  
    30   13   29 1  
@<TRIPOS>SUBSTRUCTURE
     1 CTS         1

