### 
### Created by X-TOOL on Mon Sep 10 21:12:57 2018
### 

@<TRIPOS>MOLECULE
2pwr_ligand
   79    83     1     0     0
SMALL
GAST_HUCK


@<TRIPOS>ATOM
      1 C1          8.8740  -15.2670  -14.3570 C.ar      1 G4G        -0.0401
      2 O2         16.8530  -24.0050  -21.6940 O.2       1 G4G        -0.3849
      3 N2          5.3670  -14.6590  -15.4520 N.am      1 G4G        -0.3001
      4 C2         14.2270  -23.5980  -20.9400 C.ar      1 G4G        -0.0401
      5 O1          6.9170  -13.2870  -14.6390 O.2       1 G4G        -0.3849
      6 N1         17.2880  -25.3340  -19.9340 N.am      1 G4G        -0.3001
      7 C3          7.2730  -16.8000  -15.4750 C.ar      1 G4G        -0.0401
      8 C4          7.5960  -15.5100  -14.9760 C.ar      1 G4G         0.0498
      9 C5         15.0940  -23.8330  -18.6320 C.ar      1 G4G        -0.0401
     10 C6         15.2280  -23.9790  -20.0310 C.ar      1 G4G         0.0498
     11 C7         13.2420  -18.3190  -14.8840 C.3       1 G4G         0.0639
     12 C8         16.5390  -24.4700  -20.6080 C.2       1 G4G         0.2025
     13 S8         10.6330  -18.9330  -14.7480 S.o2      1 G4G         0.0746
     14 C9          6.6180  -14.4160  -15.0120 C.2       1 G4G         0.2025
     15 S9         11.3540  -22.3180  -18.3090 S.o2      1 G4G         0.0746
     16 O10        10.0430  -20.1460  -15.3530 O.2       1 G4G        -0.1494
     17 O11        11.4240  -22.6110  -16.8830 O.2       1 G4G        -0.1494
     18 C12        14.0820  -19.5970  -14.7870 C.ar      1 G4G        -0.0244
     19 C13        13.4530  -20.7730  -14.2410 C.ar      1 G4G        -0.0588
     20 C14        15.4180  -19.6380  -15.2590 C.ar      1 G4G        -0.0588
     21 C17         9.8490  -16.2950  -14.3120 C.ar      1 G4G        -0.0295
     22 C18        12.9930  -23.1350  -20.4170 C.ar      1 G4G        -0.0295
     23 C19         8.2700  -17.8010  -15.4400 C.ar      1 G4G        -0.0295
     24 C20        13.8670  -23.3320  -18.1250 C.ar      1 G4G        -0.0295
     25 C21        12.5410  -17.4910  -17.8800 C.3       1 G4G        -0.0110
     26 N22        13.8470  -18.0760  -18.3150 N.4       1 G4G         0.2298
     27 C23        11.7810  -18.6080  -17.1530 C.3       1 G4G         0.1075
     28 C24        12.4750  -19.9660  -17.6010 C.3       1 G4G         0.1075
     29 C25        13.8070  -19.5310  -18.3050 C.3       1 G4G        -0.0110
     30 C26         9.5370  -17.5910  -14.8040 C.ar      1 G4G         0.1128
     31 C27        12.8450  -22.9610  -19.0320 C.ar      1 G4G         0.1128
     32 N28        11.9980  -18.5700  -15.6760 N.am      1 G4G        -0.2123
     33 C29        14.3100  -21.9180  -14.2280 C.ar      1 G4G        -0.0685
     34 C30        16.2950  -20.7760  -15.1760 C.ar      1 G4G        -0.0685
     35 C31        15.6750  -21.9540  -14.6100 C.ar      1 G4G        -0.0687
     36 N32        11.6470  -20.6720  -18.6130 N.am      1 G4G        -0.2123
     37 C33        11.1550  -20.1270  -19.8950 C.3       1 G4G         0.0639
     38 C34         9.8860  -19.3250  -19.8370 C.ar      1 G4G        -0.0244
     39 C35         8.8950  -19.6160  -18.8780 C.ar      1 G4G        -0.0588
     40 C36         7.7540  -18.8090  -18.9050 C.ar      1 G4G        -0.0685
     41 C37         7.5820  -17.7950  -19.8720 C.ar      1 G4G        -0.0687
     42 C38         9.7700  -18.2630  -20.7570 C.ar      1 G4G        -0.0588
     43 C39         8.5840  -17.5070  -20.8320 C.ar      1 G4G        -0.0685
     44 O40        10.2810  -22.7110  -19.1800 O.2       1 G4G        -0.1494
     45 O41        11.1670  -19.0580  -13.3730 O.2       1 G4G        -0.1494
     46 H1          9.0903  -14.2966  -13.9250 H         1 G4G         0.0670
     47 H2          5.1141  -15.5768  -15.7582 H         1 G4G         0.1808
     48 H3          4.6920  -13.9215  -15.4722 H         1 G4G         0.1808
     49 H4         14.3930  -23.6562  -22.0096 H         1 G4G         0.0670
     50 H5         16.9779  -25.6802  -19.0486 H         1 G4G         0.1808
     51 H6         18.1624  -25.6388  -20.3117 H         1 G4G         0.1808
     52 H7          6.2869  -17.0113  -15.8725 H         1 G4G         0.0670
     53 H8         15.9063  -24.0965  -17.9643 H         1 G4G         0.0670
     54 H9         13.8332  -17.5335  -15.3775 H         1 G4G         0.0641
     55 H10        12.9663  -17.9890  -13.8715 H         1 G4G         0.0641
     56 H11        12.4322  -20.7883  -13.8765 H         1 G4G         0.0557
     57 H12        15.8110  -18.7391  -15.7200 H         1 G4G         0.0557
     58 H13        10.8320  -16.0925  -13.9025 H         1 G4G         0.0649
     59 H14        12.1671  -22.9163  -21.0842 H         1 G4G         0.0649
     60 H15         8.0701  -18.7577  -15.9089 H         1 G4G         0.0649
     61 H16        13.7140  -23.2345  -17.0563 H         1 G4G         0.0649
     62 H17        11.9681  -17.1492  -18.7546 H         1 G4G         0.0833
     63 H18        12.7124  -16.6437  -17.1998 H         1 G4G         0.0833
     64 H19        14.5715  -17.7636  -17.6876 H         1 G4G         0.2015
     65 H20        14.0527  -17.7601  -19.2498 H         1 G4G         0.2015
     66 H21        10.7095  -18.5785  -17.4001 H         1 G4G         0.0590
     67 H22        12.6655  -20.6168  -16.7349 H         1 G4G         0.0590
     68 H23        14.6705  -19.9258  -17.7497 H         1 G4G         0.0833
     69 H24        13.8281  -19.9136  -19.3361 H         1 G4G         0.0833
     70 H25        13.8723  -22.8513  -13.8927 H         1 G4G         0.0599
     71 H26        17.3268  -20.7525  -15.5076 H         1 G4G         0.0599
     72 H27        16.2524  -22.8619  -14.4782 H         1 G4G         0.0559
     73 H28        10.9845  -20.9743  -20.5754 H         1 G4G         0.0641
     74 H29        11.9421  -19.4784  -20.3070 H         1 G4G         0.0641
     75 H30         9.0111  -20.4200  -18.1602 H         1 G4G         0.0557
     76 H31         6.9797  -18.9662  -18.1628 H         1 G4G         0.0599
     77 H32         6.6613  -17.2229  -19.8805 H         1 G4G         0.0559
     78 H33        10.6006  -18.0263  -21.4121 H         1 G4G         0.0557
     79 H34         8.4444  -16.7421  -21.5873 H         1 G4G         0.0599
@<TRIPOS>BOND
     1    1    8 ar 
     2   21    1 ar 
     3   12    2 2  
     4   14    3 am 
     5    4   10 ar 
     6   22    4 ar 
     7   14    5 2  
     8   12    6 am 
     9    7    8 ar 
    10   23    7 ar 
    11    8   14 1  
    12    9   10 ar 
    13   24    9 ar 
    14   10   12 1  
    15   11   18 1  
    16   32   11 1  
    17   13   16 2  
    18   13   30 1  
    19   32   13 am 
    20   13   45 2  
    21   15   17 2  
    22   15   31 1  
    23   36   15 am 
    24   15   44 2  
    25   18   19 ar 
    26   18   20 ar 
    27   19   33 ar 
    28   20   34 ar 
    29   30   21 ar 
    30   31   22 ar 
    31   30   23 ar 
    32   31   24 ar 
    33   26   25 1  
    34   27   25 1  
    35   29   26 1  
    36   28   27 1  
    37   27   32 1  
    38   28   29 1  
    39   28   36 1  
    40   33   35 ar 
    41   34   35 ar 
    42   36   37 1  
    43   37   38 1  
    44   38   39 ar 
    45   38   42 ar 
    46   39   40 ar 
    47   40   41 ar 
    48   41   43 ar 
    49   42   43 ar 
    50    1   46 1  
    51    3   47 1  
    52    3   48 1  
    53    4   49 1  
    54    6   50 1  
    55    6   51 1  
    56    7   52 1  
    57    9   53 1  
    58   11   54 1  
    59   11   55 1  
    60   19   56 1  
    61   20   57 1  
    62   21   58 1  
    63   22   59 1  
    64   23   60 1  
    65   24   61 1  
    66   25   62 1  
    67   25   63 1  
    68   26   64 1  
    69   26   65 1  
    70   27   66 1  
    71   28   67 1  
    72   29   68 1  
    73   29   69 1  
    74   33   70 1  
    75   34   71 1  
    76   35   72 1  
    77   37   73 1  
    78   37   74 1  
    79   39   75 1  
    80   40   76 1  
    81   41   77 1  
    82   42   78 1  
    83   43   79 1  
@<TRIPOS>SUBSTRUCTURE
     1 G4G         1

