### 
### Created by X-TOOL on Fri Sep 26 17:34:41 2014
### 

@<TRIPOS>MOLECULE
2pyi_ligand
   46    48     1     0     0
SMALL
GAST_HUCK


@<TRIPOS>ATOM
      1 C12        37.4770   27.0690   34.3710 C.ar      1 DL8        -0.0601
      2 C13        38.1450   28.0950   35.0410 C.ar      1 DL8        -0.0661
      3 C14        39.0830   28.8750   34.3640 C.ar      1 DL8        -0.0661
      4 C15        39.3580   28.6220   33.0220 C.ar      1 DL8        -0.0661
      5 C16        38.6930   27.5940   32.3550 C.ar      1 DL8        -0.0601
      6 C11        37.7500   26.8160   33.0250 C.ar      1 DL8        -0.0196
      7 C10        37.0850   25.7900   32.3560 C.2       1 DL8         0.0703
      8 C9         37.3360   25.3420   31.1320 C.2       1 DL8         0.0905
      9 N4         36.0660   25.0610   32.8160 N.2       1 DL8        -0.2163
     10 N3         35.7310   24.2410   31.9510 N.2       1 DL8        -0.0882
     11 N2         36.4450   24.3770   30.9500 N.pl3     1 DL8        -0.1480
     12 C8         36.3560   23.5880   29.7090 C.3       1 DL8         0.1677
     13 C7         34.9140   23.4540   29.1880 C.2       1 DL8         0.2125
     14 O7         33.9420   23.8780   29.8180 O.2       1 DL8        -0.3936
     15 N1         34.8340   22.8440   28.0080 N.am      1 DL8        -0.2559
     16 C1         33.5360   22.5910   27.3500 C.3       1 DL8         0.1720
     17 O5         33.2770   21.1790   27.5850 O.3       1 DL8        -0.3436
     18 C5         32.0530   20.7010   26.9910 C.3       1 DL8         0.1127
     19 C6         31.8630   19.2380   27.4150 C.3       1 DL8         0.0730
     20 O6         32.9520   18.4460   26.9080 O.3       1 DL8        -0.3924
     21 C4         32.1620   20.8690   25.4610 C.3       1 DL8         0.1119
     22 O4         30.9800   20.3750   24.8180 O.3       1 DL8        -0.3865
     23 C3         32.4050   22.3470   25.0950 C.3       1 DL8         0.1138
     24 O3         32.6380   22.4610   23.6870 O.3       1 DL8        -0.3864
     25 C2         33.6220   22.9060   25.8500 C.3       1 DL8         0.1308
     26 O2         33.7330   24.3210   25.6610 O.3       1 DL8        -0.3844
     27 H1         36.7445   26.4671   34.8966 H         1 DL8         0.0581
     28 H2         37.9351   28.2858   36.0872 H         1 DL8         0.0606
     29 H3         39.5971   29.6768   34.8816 H         1 DL8         0.0581
     30 H4         40.0895   29.2248   32.4960 H         1 DL8         0.0606
     31 H5         38.9101   27.3989   31.3110 H         1 DL8         0.0581
     32 H6         38.0991   25.6879   30.4364 H         1 DL8         0.1079
     33 H7         36.7540   22.5812   29.9036 H         1 DL8         0.0901
     34 H8         36.9645   24.0798   28.9358 H         1 DL8         0.0901
     35 H9         35.6751   22.5490   27.5546 H         1 DL8         0.1878
     36 H10        32.7455   23.2064   27.8042 H         1 DL8         0.0896
     37 H11        31.2017   21.2941   27.3563 H         1 DL8         0.0647
     38 H12        30.9138   18.8588   27.0086 H         1 DL8         0.0584
     39 H13        31.8434   19.1741   28.5130 H         1 DL8         0.0584
     40 H14        33.7713   18.7742   27.2596 H         1 DL8         0.2095
     41 H15        33.0207   20.2794   25.1075 H         1 DL8         0.0647
     42 H16        31.0625   20.4854   23.8780 H         1 DL8         0.2100
     43 H17        31.5142   22.9330   25.3653 H         1 DL8         0.0647
     44 H18        31.8794   22.1388   23.2145 H         1 DL8         0.2100
     45 H19        34.5264   22.4280   25.4455 H         1 DL8         0.0668
     46 H20        33.8340   24.5087   24.7352 H         1 DL8         0.2101
@<TRIPOS>BOND
     1    1    2 ar 
     2    1    6 ar 
     3    2    3 ar 
     4    3    4 ar 
     5    4    5 ar 
     6    5    6 ar 
     7    6    7 1  
     8    7    8 2  
     9    7    9 1  
    10    8   11 1  
    11    9   10 2  
    12   10   11 1  
    13   11   12 1  
    14   12   13 1  
    15   13   14 2  
    16   13   15 am 
    17   15   16 1  
    18   16   17 1  
    19   16   25 1  
    20   17   18 1  
    21   18   19 1  
    22   18   21 1  
    23   19   20 1  
    24   21   22 1  
    25   21   23 1  
    26   23   24 1  
    27   23   25 1  
    28   25   26 1  
    29    1   27 1  
    30    2   28 1  
    31    3   29 1  
    32    4   30 1  
    33    5   31 1  
    34    8   32 1  
    35   12   33 1  
    36   12   34 1  
    37   15   35 1  
    38   16   36 1  
    39   18   37 1  
    40   19   38 1  
    41   19   39 1  
    42   20   40 1  
    43   21   41 1  
    44   22   42 1  
    45   23   43 1  
    46   24   44 1  
    47   25   45 1  
    48   26   46 1  
@<TRIPOS>SUBSTRUCTURE
     1 DL8         1

