### 
### Created by X-TOOL on Mon Sep 10 21:12:57 2018
### 

@<TRIPOS>MOLECULE
2pym_ligand
   86    89     1     0     0
SMALL
GAST_HUCK


@<TRIPOS>ATOM
      1 C1        -12.5400   13.3380   27.2400 C.3       1 1UN         0.0024
      2 C2        -12.4480   12.6130   28.5900 C.3       1 1UN        -0.0261
      3 C3        -12.7700   11.1170   28.4870 C.3       1 1UN        -0.0494
      4 C4        -11.9820   10.4270   27.3720 C.3       1 1UN        -0.0528
      5 C5        -12.2160   11.1380   26.0400 C.3       1 1UN        -0.0526
      6 C6        -11.7940   12.6050   26.1160 C.3       1 1UN        -0.0451
      7 N7        -10.7090   14.8840   27.9500 N.4       1 1UN         0.2562
      8 C8        -10.6670   14.2680   29.2940 C.3       1 1UN         0.0688
      9 C9        -11.0810   12.7960   29.2490 C.3       1 1UN         0.0113
     10 C10       -12.0630   14.7930   27.3530 C.3       1 1UN        -0.0266
     11 C11        -9.2770   14.2950   29.8530 C.2       1 1UN         0.2251
     12 N12        -9.2130   14.7750   31.0900 N.am      1 1UN        -0.2771
     13 C13        -8.0610   14.8160   31.9800 C.3       1 1UN         0.0448
     14 C14        -7.0700   15.8350   31.4450 C.3       1 1UN        -0.0396
     15 C15        -7.4290   13.4390   32.1200 C.3       1 1UN        -0.0396
     16 C16        -8.5490   15.2460   33.3600 C.3       1 1UN        -0.0396
     17 O17        -8.3330   13.8840   29.1880 O.2       1 1UN        -0.3909
     18 C18       -10.2870   16.2970   28.0250 C.3       1 1UN        -0.0009
     19 C19        -9.7560   16.7650   26.6710 C.3       1 1UN         0.1184
     20 C20        -8.2800   16.4270   26.4760 C.3       1 1UN         0.0832
     21 O21       -10.0180   18.1690   26.4750 O.3       1 1UN        -0.3842
     22 N22        -7.9760   16.6250   25.0750 N.am      1 1UN        -0.2808
     23 C23        -7.3320   17.2570   27.3410 C.3       1 1UN         0.0326
     24 C24        -7.8750   15.6400   24.1820 C.2       1 1UN         0.1978
     25 O25        -8.0710   14.4600   24.4290 O.2       1 1UN        -0.3887
     26 C29        -7.4770   16.0430   22.8020 C.ar      1 1UN         0.0427
     27 C30        -6.2730   16.7280   22.6160 C.ar      1 1UN        -0.0597
     28 C31        -5.8600   17.1280   21.3480 C.ar      1 1UN        -0.0720
     29 C32        -6.6350   16.8630   20.2180 C.ar      1 1UN        -0.0355
     30 C33        -7.8480   16.1880   20.3090 C.ar      1 1UN         0.0948
     31 C34        -8.3420   15.7450   21.6330 C.ar      1 1UN         0.0036
     32 O38        -8.5760   15.9540   19.1890 O.3       1 1UN        -0.3358
     33 C39        -9.6550   15.0010   21.7720 C.3       1 1UN        -0.0293
     34 S74        -5.7610   16.4590   27.4510 S.3       1 1UN        -0.0993
     35 C77        -4.7910   17.1020   26.2050 C.ar      1 1UN         0.0154
     36 C78        -3.7200   16.3670   25.6930 C.ar      1 1UN        -0.0498
     37 C79        -2.9280   16.8950   24.6700 C.ar      1 1UN        -0.0678
     38 C80        -3.1990   18.1610   24.1510 C.ar      1 1UN        -0.0687
     39 C81        -4.2710   18.9000   24.6530 C.ar      1 1UN        -0.0678
     40 C82        -5.0570   18.3730   25.6800 C.ar      1 1UN        -0.0498
     41 H1        -13.6035   13.3616   26.9600 H         1 1UN         0.0355
     42 H2        -13.2003   13.0682   29.2509 H         1 1UN         0.0309
     43 H3        -13.8449   11.0000   28.2846 H         1 1UN         0.0268
     44 H4        -12.5226   10.6355   29.4446 H         1 1UN         0.0268
     45 H5        -12.3120    9.3810   27.2880 H         1 1UN         0.0265
     46 H6        -10.9095   10.4548   27.6147 H         1 1UN         0.0265
     47 H7        -13.2853   11.0847   25.7876 H         1 1UN         0.0265
     48 H8        -11.6290   10.6358   25.2570 H         1 1UN         0.0265
     49 H9        -10.7123   12.6579   26.3088 H         1 1UN         0.0270
     50 H10       -12.0199   13.0938   25.1568 H         1 1UN         0.0270
     51 H11       -10.0655   14.3873   27.3540 H         1 1UN         0.2057
     52 H12       -11.3458   14.8231   29.9582 H         1 1UN         0.1100
     53 H13       -10.3305   12.2320   28.6757 H         1 1UN         0.0348
     54 H14       -11.1258   12.4068   30.2768 H         1 1UN         0.0348
     55 H15       -12.7691   15.3511   27.9854 H         1 1UN         0.0818
     56 H16       -12.0395   15.2391   26.3478 H         1 1UN         0.0818
     57 H17       -10.0622   15.1559   31.4559 H         1 1UN         0.1859
     58 H18        -6.1933   15.8770   32.1081 H         1 1UN         0.0254
     59 H19        -7.5475   16.8252   31.4054 H         1 1UN         0.0254
     60 H20        -6.7514   15.5409   30.4341 H         1 1UN         0.0254
     61 H21        -6.5635   13.4999   32.7962 H         1 1UN         0.0254
     62 H22        -7.0985   13.0851   31.1323 H         1 1UN         0.0254
     63 H23        -8.1680   12.7366   32.5328 H         1 1UN         0.0254
     64 H24        -7.6968   15.2855   34.0544 H         1 1UN         0.0254
     65 H25        -9.2895   14.5213   33.7293 H         1 1UN         0.0254
     66 H26        -9.0124   16.2412   33.2914 H         1 1UN         0.0254
     67 H27        -9.4941   16.3992   28.7806 H         1 1UN         0.0841
     68 H28       -11.1485   16.9182   28.3111 H         1 1UN         0.0841
     69 H29       -10.3146   16.2182   25.8971 H         1 1UN         0.0670
     70 H30        -8.1298   15.3679   26.7324 H         1 1UN         0.0593
     71 H31       -10.9438   18.3384   26.6046 H         1 1UN         0.2101
     72 H32        -7.8323   17.5617   24.7558 H         1 1UN         0.1847
     73 H33        -7.7580   17.3634   28.3496 H         1 1UN         0.0425
     74 H34        -7.2043   18.2521   26.8900 H         1 1UN         0.0425
     75 H35        -5.6497   16.9518   23.4742 H         1 1UN         0.0556
     76 H36        -4.9193   17.6549   21.2364 H         1 1UN         0.0543
     77 H37        -6.2835   17.1909   19.2464 H         1 1UN         0.0556
     78 H38        -8.1150   16.3018   18.4346 H         1 1UN         0.2456
     79 H39        -9.8331   14.7666   22.8319 H         1 1UN         0.0382
     80 H40        -9.6105   14.0672   21.1924 H         1 1UN         0.0382
     81 H41       -10.4744   15.6293   21.3927 H         1 1UN         0.0382
     82 H42        -3.5019   15.3825   26.0908 H         1 1UN         0.0565
     83 H43        -2.0986   16.3177   24.2777 H         1 1UN         0.0600
     84 H44        -2.5793   18.5692   23.3608 H         1 1UN         0.0559
     85 H45        -4.4930   19.8803   24.2470 H         1 1UN         0.0600
     86 H46        -5.8823   18.9541   26.0753 H         1 1UN         0.0565
@<TRIPOS>BOND
     1    1    2 1  
     2    1    6 1  
     3   10    1 1  
     4    2    3 1  
     5    2    9 1  
     6    3    4 1  
     7    5    4 1  
     8    6    5 1  
     9    7    8 1  
    10    7   10 1  
    11    7   18 1  
    12    8    9 1  
    13    8   11 1  
    14   11   12 am 
    15   11   17 2  
    16   12   13 1  
    17   13   14 1  
    18   13   15 1  
    19   13   16 1  
    20   18   19 1  
    21   19   20 1  
    22   19   21 1  
    23   20   22 1  
    24   20   23 1  
    25   22   24 am 
    26   23   34 1  
    27   24   25 2  
    28   24   26 1  
    29   26   27 ar 
    30   26   31 ar 
    31   27   28 ar 
    32   28   29 ar 
    33   29   30 ar 
    34   30   31 ar 
    35   30   32 1  
    36   31   33 1  
    37   34   35 1  
    38   35   36 ar 
    39   35   40 ar 
    40   36   37 ar 
    41   37   38 ar 
    42   38   39 ar 
    43   39   40 ar 
    44    1   41 1  
    45    2   42 1  
    46    3   43 1  
    47    3   44 1  
    48    4   45 1  
    49    4   46 1  
    50    5   47 1  
    51    5   48 1  
    52    6   49 1  
    53    6   50 1  
    54    7   51 1  
    55    8   52 1  
    56    9   53 1  
    57    9   54 1  
    58   10   55 1  
    59   10   56 1  
    60   12   57 1  
    61   14   58 1  
    62   14   59 1  
    63   14   60 1  
    64   15   61 1  
    65   15   62 1  
    66   15   63 1  
    67   16   64 1  
    68   16   65 1  
    69   16   66 1  
    70   18   67 1  
    71   18   68 1  
    72   19   69 1  
    73   20   70 1  
    74   21   71 1  
    75   22   72 1  
    76   23   73 1  
    77   23   74 1  
    78   27   75 1  
    79   28   76 1  
    80   29   77 1  
    81   32   78 1  
    82   33   79 1  
    83   33   80 1  
    84   33   81 1  
    85   36   82 1  
    86   37   83 1  
    87   38   84 1  
    88   39   85 1  
    89   40   86 1  
@<TRIPOS>SUBSTRUCTURE
     1 1UN         1

