### 
### Created by X-TOOL on Mon Sep 10 21:12:57 2018
### 

@<TRIPOS>MOLECULE
2pyn_ligand
   86    89     1     0     0
SMALL
GAST_HUCK


@<TRIPOS>ATOM
      1 C1        -12.8470   13.7840   27.6230 C.3       1 1UN         0.0024
      2 C2        -12.6750   12.9750   28.9230 C.3       1 1UN        -0.0261
      3 C3        -12.8840   11.4660   28.7450 C.3       1 1UN        -0.0494
      4 C4        -12.1810   10.9280   27.4960 C.3       1 1UN        -0.0528
      5 C5        -12.6230   11.7100   26.2680 C.3       1 1UN        -0.0526
      6 C6        -12.1690   13.1600   26.4020 C.3       1 1UN        -0.0451
      7 N7        -11.0390   15.3410   28.3640 N.4       1 1UN         0.2562
      8 C8        -11.0360   14.7060   29.6950 C.3       1 1UN         0.0688
      9 C9        -11.3080   13.2100   29.5690 C.3       1 1UN         0.0113
     10 C10       -12.3760   15.2340   27.7480 C.3       1 1UN        -0.0266
     11 C11        -9.6980   14.8390   30.3560 C.2       1 1UN         0.2251
     12 N12        -9.7250   15.1520   31.6500 N.am      1 1UN        -0.2771
     13 C13        -8.5370   15.3490   32.4790 C.3       1 1UN         0.0448
     14 C14        -7.6660   16.4330   31.8560 C.3       1 1UN        -0.0396
     15 C15        -7.7750   14.0410   32.6220 C.3       1 1UN        -0.0396
     16 C16        -8.9680   15.7660   33.8770 C.3       1 1UN        -0.0396
     17 O17        -8.6920   14.6310   29.7010 O.2       1 1UN        -0.3909
     18 C18       -10.6700   16.7630   28.4400 C.3       1 1UN        -0.0009
     19 C19       -10.0980   17.1960   27.0930 C.3       1 1UN         0.1184
     20 C20        -8.6250   16.8290   26.9330 C.3       1 1UN         0.0832
     21 O21       -10.2860   18.5980   26.9020 O.3       1 1UN        -0.3842
     22 N22        -8.2830   17.0440   25.5490 N.am      1 1UN        -0.2808
     23 C23        -7.6960   17.6510   27.8270 C.3       1 1UN         0.0326
     24 C24        -8.0140   16.0640   24.6890 C.2       1 1UN         0.1978
     25 O25        -8.0650   14.8740   24.9720 O.2       1 1UN        -0.3887
     26 C29        -7.6030   16.4850   23.3120 C.ar      1 1UN         0.0427
     27 C30        -6.4110   17.2000   23.1280 C.ar      1 1UN        -0.0597
     28 C31        -6.0090   17.6100   21.8540 C.ar      1 1UN        -0.0720
     29 C32        -6.7760   17.3300   20.7190 C.ar      1 1UN        -0.0355
     30 C33        -7.9760   16.6240   20.8140 C.ar      1 1UN         0.0948
     31 C34        -8.4530   16.1680   22.1380 C.ar      1 1UN         0.0036
     32 O38        -8.7130   16.3550   19.7040 O.3       1 1UN        -0.3358
     33 C39        -9.7450   15.3980   22.2760 C.3       1 1UN        -0.0293
     34 S74        -6.1250   16.8550   27.9280 S.3       1 1UN        -0.0993
     35 C77        -5.1280   17.5380   26.7320 C.ar      1 1UN         0.0154
     36 C78        -4.0170   16.8290   26.2710 C.ar      1 1UN        -0.0498
     37 C79        -3.1850   17.3760   25.2950 C.ar      1 1UN        -0.0678
     38 C80        -3.4600   18.6370   24.7740 C.ar      1 1UN        -0.0687
     39 C81        -4.5690   19.3480   25.2260 C.ar      1 1UN        -0.0678
     40 C82        -5.3980   18.8000   26.2050 C.ar      1 1UN        -0.0498
     41 H1        -13.9273   13.8073   27.4170 H         1 1UN         0.0355
     42 H2        -13.4433   13.3333   29.6239 H         1 1UN         0.0309
     43 H3        -13.9621   11.2655   28.6587 H         1 1UN         0.0268
     44 H4        -12.4839   10.9464   29.6281 H         1 1UN         0.0268
     45 H5        -12.4377    9.8667   27.3630 H         1 1UN         0.0265
     46 H6        -11.0926   11.0294   27.6192 H         1 1UN         0.0265
     47 H7        -13.7193   11.6747   26.1850 H         1 1UN         0.0265
     48 H8        -12.1726   11.2659   25.3680 H         1 1UN         0.0265
     49 H9        -11.0769   13.1941   26.5291 H         1 1UN         0.0270
     50 H10       -12.4506   13.7195   25.4978 H         1 1UN         0.0270
     51 H11       -10.3695   14.8630   27.7815 H         1 1UN         0.2057
     52 H12       -11.8090   15.1776   30.3195 H         1 1UN         0.1100
     53 H13       -10.5273   12.7499   28.9455 H         1 1UN         0.0348
     54 H14       -11.2952   12.7527   30.5694 H         1 1UN         0.0348
     55 H15       -13.0961   15.7869   28.3690 H         1 1UN         0.0818
     56 H16       -12.3388   15.6810   26.7436 H         1 1UN         0.0818
     57 H17       -10.6192   15.2597   32.0845 H         1 1UN         0.1859
     58 H18        -6.7704   16.5852   32.4762 H         1 1UN         0.0254
     59 H19        -8.2354   17.3723   31.7975 H         1 1UN         0.0254
     60 H20        -7.3634   16.1240   30.8446 H         1 1UN         0.0254
     61 H21        -6.8843   14.2020   33.2471 H         1 1UN         0.0254
     62 H22        -7.4658   13.6861   31.6278 H         1 1UN         0.0254
     63 H23        -8.4235   13.2886   33.0946 H         1 1UN         0.0254
     64 H24        -8.0779   15.9158   34.5057 H         1 1UN         0.0254
     65 H25        -9.5989   14.9792   34.3162 H         1 1UN         0.0254
     66 H26        -9.5388   16.7046   33.8201 H         1 1UN         0.0254
     67 H27        -9.9141   16.9072   29.2260 H         1 1UN         0.0841
     68 H28       -11.5611   17.3641   28.6735 H         1 1UN         0.0841
     69 H29       -10.6589   16.6672   26.3083 H         1 1UN         0.0670
     70 H30        -8.4947   15.7659   27.1838 H         1 1UN         0.0593
     71 H31       -11.2063   18.8098   27.0047 H         1 1UN         0.2101
     72 H32        -8.2456   17.9858   25.2150 H         1 1UN         0.1847
     73 H33        -8.1320   17.7316   28.8337 H         1 1UN         0.0425
     74 H34        -7.5709   18.6569   27.3999 H         1 1UN         0.0425
     75 H35        -5.7927   17.4380   23.9860 H         1 1UN         0.0556
     76 H36        -5.0804   18.1582   21.7431 H         1 1UN         0.0543
     77 H37        -6.4324   17.6674   19.7478 H         1 1UN         0.0556
     78 H38        -8.2747   16.7115   18.9402 H         1 1UN         0.2456
     79 H39        -9.9160   15.1557   23.3353 H         1 1UN         0.0382
     80 H40        -9.6815   14.4676   21.6927 H         1 1UN         0.0382
     81 H41       -10.5785   16.0099   21.9007 H         1 1UN         0.0382
     82 H42        -3.7998   15.8467   26.6746 H         1 1UN         0.0565
     83 H43        -2.3243   16.8194   24.9421 H         1 1UN         0.0600
     84 H44        -2.8121   19.0650   24.0177 H         1 1UN         0.0559
     85 H45        -4.7881   20.3276   24.8169 H         1 1UN         0.0600
     86 H46        -6.2572   19.3588   26.5580 H         1 1UN         0.0565
@<TRIPOS>BOND
     1    1    2 1  
     2    1    6 1  
     3   10    1 1  
     4    2    3 1  
     5    2    9 1  
     6    3    4 1  
     7    5    4 1  
     8    6    5 1  
     9    7    8 1  
    10    7   10 1  
    11    7   18 1  
    12    8    9 1  
    13    8   11 1  
    14   11   12 am 
    15   11   17 2  
    16   12   13 1  
    17   13   14 1  
    18   13   15 1  
    19   13   16 1  
    20   18   19 1  
    21   19   20 1  
    22   19   21 1  
    23   20   22 1  
    24   20   23 1  
    25   22   24 am 
    26   23   34 1  
    27   24   25 2  
    28   24   26 1  
    29   26   27 ar 
    30   26   31 ar 
    31   27   28 ar 
    32   28   29 ar 
    33   29   30 ar 
    34   30   31 ar 
    35   30   32 1  
    36   31   33 1  
    37   34   35 1  
    38   35   36 ar 
    39   35   40 ar 
    40   36   37 ar 
    41   37   38 ar 
    42   38   39 ar 
    43   39   40 ar 
    44    1   41 1  
    45    2   42 1  
    46    3   43 1  
    47    3   44 1  
    48    4   45 1  
    49    4   46 1  
    50    5   47 1  
    51    5   48 1  
    52    6   49 1  
    53    6   50 1  
    54    7   51 1  
    55    8   52 1  
    56    9   53 1  
    57    9   54 1  
    58   10   55 1  
    59   10   56 1  
    60   12   57 1  
    61   14   58 1  
    62   14   59 1  
    63   14   60 1  
    64   15   61 1  
    65   15   62 1  
    66   15   63 1  
    67   16   64 1  
    68   16   65 1  
    69   16   66 1  
    70   18   67 1  
    71   18   68 1  
    72   19   69 1  
    73   20   70 1  
    74   21   71 1  
    75   22   72 1  
    76   23   73 1  
    77   23   74 1  
    78   27   75 1  
    79   28   76 1  
    80   29   77 1  
    81   32   78 1  
    82   33   79 1  
    83   33   80 1  
    84   33   81 1  
    85   36   82 1  
    86   37   83 1  
    87   38   84 1  
    88   39   85 1  
    89   40   86 1  
@<TRIPOS>SUBSTRUCTURE
     1 1UN         1

