### 
### Created by X-TOOL on Mon Sep 10 21:12:59 2018
### 

@<TRIPOS>MOLECULE
2pyy_ligand
   18    17     1     0     0
SMALL
GAST_HUCK


@<TRIPOS>ATOM
      1 N          53.2820   21.0470   34.2300 N.4       1 GLU         0.2328
      2 CA         54.6110   21.4180   34.8000 C.3       1 GLU         0.0298
      3 C          54.5400   22.8220   35.4090 C.2       1 GLU         0.0845
      4 O          53.7400   23.6430   34.9140 O.co2     1 GLU        -0.5643
      5 CB         55.6930   21.3900   33.7010 C.3       1 GLU         0.0139
      6 CG         57.0950   21.6210   34.2370 C.3       1 GLU         0.0069
      7 CD         58.1510   21.7090   33.1530 C.2       1 GLU         0.0351
      8 OE1        59.3510   21.7900   33.5010 O.co2     1 GLU        -0.5690
      9 OE2        57.7870   21.7060   31.9610 O.co2     1 GLU        -0.5690
     10 OXT        55.2870   23.0940   36.3700 O.co2     1 GLU        -0.5643
     11 H1         53.3338   20.1229   33.8307 H         1 GLU         0.2010
     12 H2         53.0271   21.7087   33.5136 H         1 GLU         0.2010
     13 H3         52.5878   21.0588   34.9608 H         1 GLU         0.2010
     14 H4         54.8780   20.6960   35.5858 H         1 GLU         0.1025
     15 H5         55.4656   22.1763   32.9661 H         1 GLU         0.0356
     16 H6         55.6648   20.4074   33.2073 H         1 GLU         0.0356
     17 H7         57.3530   20.7878   34.9072 H         1 GLU         0.0433
     18 H8         57.0997   22.5632   34.8046 H         1 GLU         0.0433
@<TRIPOS>BOND
     1    1    2 1  
     2    2    3 1  
     3    2    5 1  
     4    3    4 ar 
     5    3   10 ar 
     6    5    6 1  
     7    6    7 1  
     8    7    8 ar 
     9    7    9 ar 
    10    1   11 1  
    11    1   12 1  
    12    1   13 1  
    13    2   14 1  
    14    5   15 1  
    15    5   16 1  
    16    6   17 1  
    17    6   18 1  
@<TRIPOS>SUBSTRUCTURE
     1 GLU         1

