### 
### Created by X-TOOL on Mon Sep 10 21:12:55 2018
### 

@<TRIPOS>MOLECULE
2pzi_ligand
   34    36     1     0     0
SMALL
GAST_HUCK


@<TRIPOS>ATOM
      1 O5         19.0850   -9.2450   -3.5240 O.2       1 AXX        -0.3810
      2 C4         19.7770   -9.5920   -2.5650 C.2       1 AXX         0.2143
      3 C2         19.2850   -9.4500   -1.1400 C.3       1 AXX         0.0564
      4 C3         17.8680  -10.0160   -1.0820 C.3       1 AXX        -0.0303
      5 C1         18.0840   -8.5070   -1.0200 C.3       1 AXX        -0.0303
      6 N6         20.9900  -10.1370   -2.6880 N.am      1 AXX        -0.2145
      7 C7         21.6850  -10.2130   -3.8520 C.2       1 AXX         0.1428
      8 S11        21.1860   -9.6150   -5.3790 S.3       1 AXX        -0.0188
      9 C10        22.6330  -10.1400   -6.1760 C.2       1 AXX        -0.0094
     10 C18        22.7630   -9.8720   -7.6470 C.3       1 AXX        -0.0260
     11 C17        24.2540   -9.9470   -7.9610 C.3       1 AXX        -0.0460
     12 C16        24.9120  -11.1980   -7.3740 C.3       1 AXX        -0.0475
     13 C15        24.8280  -11.3200   -5.8510 C.3       1 AXX        -0.0419
     14 C9         23.5100  -10.7990   -5.3290 C.2       1 AXX        -0.0715
     15 C8         23.0100  -10.8400   -4.0050 C.2       1 AXX         0.0404
     16 C12        23.6740  -11.4560   -2.8350 C.2       1 AXX         0.1611
     17 O13        23.0170  -11.5090   -1.8100 O.2       1 AXX        -0.4126
     18 N14        24.9140  -11.9240   -2.9420 N.am      1 AXX        -0.3089
     19 H1         20.0541   -9.5666   -0.3623 H         1 AXX         0.0545
     20 H2         17.5298  -10.5597   -0.1876 H         1 AXX         0.0294
     21 H3         17.4209  -10.4705   -1.9784 H         1 AXX         0.0294
     22 H4         17.7940   -7.8743   -1.8718 H         1 AXX         0.0294
     23 H5         17.9029   -7.9634   -0.0810 H         1 AXX         0.0294
     24 H6         21.4159  -10.5153   -1.8661 H         1 AXX         0.2367
     25 H7         22.3718   -8.8728   -7.8890 H         1 AXX         0.0373
     26 H8         22.2130  -10.6306   -8.2233 H         1 AXX         0.0373
     27 H9         24.7484   -9.0582   -7.5419 H         1 AXX         0.0283
     28 H10        24.3848   -9.9586   -9.0531 H         1 AXX         0.0283
     29 H11        25.9749  -11.1891   -7.6573 H         1 AXX         0.0281
     30 H12        24.4225  -12.0793   -7.8142 H         1 AXX         0.0281
     31 H13        25.6463  -10.7398   -5.3997 H         1 AXX         0.0349
     32 H14        24.9309  -12.3786   -5.5704 H         1 AXX         0.0349
     33 H15        25.3614  -12.3401   -2.1504 H         1 AXX         0.1789
     34 H16        25.3991  -11.8599   -3.8141 H         1 AXX         0.1789
@<TRIPOS>BOND
     1    1    2 2  
     2    2    3 1  
     3    2    6 am 
     4    3    4 1  
     5    3    5 1  
     6    4    5 1  
     7    6    7 1  
     8    7    8 1  
     9    7   15 2  
    10    8    9 1  
    11    9   10 1  
    12    9   14 2  
    13   10   11 1  
    14   11   12 1  
    15   12   13 1  
    16   13   14 1  
    17   14   15 1  
    18   15   16 1  
    19   16   17 2  
    20   16   18 am 
    21    3   19 1  
    22    4   20 1  
    23    4   21 1  
    24    5   22 1  
    25    5   23 1  
    26    6   24 1  
    27   10   25 1  
    28   10   26 1  
    29   11   27 1  
    30   11   28 1  
    31   12   29 1  
    32   12   30 1  
    33   13   31 1  
    34   13   32 1  
    35   18   33 1  
    36   18   34 1  
@<TRIPOS>SUBSTRUCTURE
     1 AXX         1

