### 
### Created by X-TOOL on Mon Sep 10 21:12:56 2018
### 

@<TRIPOS>MOLECULE
2pzy_ligand
   56    59     1     0     0
SMALL
GAST_HUCK


@<TRIPOS>ATOM
      1 C01        36.6870  -31.0270  -19.5880 C.ar      1 B18         0.0439
      2 C02        37.9710  -30.4040  -19.5700 C.ar      1 B18        -0.0481
      3 C03        39.0250  -30.9550  -18.8460 C.ar      1 B18        -0.0030
      4 C04        38.8060  -32.1720  -18.1140 C.ar      1 B18         0.0689
      5 C05        37.5600  -32.7860  -18.1220 C.ar      1 B18        -0.0365
      6 C06        36.4920  -32.2240  -18.8540 C.ar      1 B18        -0.0542
      7 C07        40.4180  -30.5860  -18.6200 C.2       1 B18        -0.0130
      8 C08        40.9350  -31.5860  -17.7930 C.2       1 B18         0.1287
      9 N09        39.9940  -32.4980  -17.5040 N.pl3     1 B18        -0.2739
     10 C10        41.2930  -29.4020  -19.1040 C.3       1 B18         0.0008
     11 C11        42.4990  -29.2070  -18.1170 C.3       1 B18         0.0388
     12 N12        42.9730  -30.4850  -17.5070 N.am      1 B18        -0.2857
     13 C13        42.2340  -31.6200  -17.3500 C.2       1 B18         0.2156
     14 O14        42.6660  -32.6440  -16.8500 O.2       1 B18        -0.3924
     15 C15        35.6220  -30.3940  -20.3670 C.2       1 B18         0.2355
     16 O16        34.4540  -30.5760  -20.0470 O.2       1 B18        -0.3728
     17 N17        36.0160  -29.6260  -21.4190 N.am      1 B18        -0.1948
     18 C18        35.1420  -28.8770  -22.3540 C.2       1 B18         0.2091
     19 S19        33.4710  -29.1760  -22.5270 S.3       1 B18         0.0248
     20 C20        33.3190  -27.9620  -23.7050 C.2       1 B18         0.0209
     21 C21        34.5540  -27.3210  -23.9710 C.2       1 B18         0.0672
     22 N22        35.5390  -27.8690  -23.1910 N.2       1 B18        -0.3057
     23 C23        34.7800  -26.2780  -24.8880 C.2       1 B18         0.1951
     24 N24        36.0930  -26.0350  -25.1970 N.am      1 B18        -0.2835
     25 O25        33.8330  -25.6370  -25.3720 O.2       1 B18        -0.3927
     26 C26        36.4750  -24.9700  -26.1500 C.3       1 B18         0.0699
     27 C27        38.0180  -24.7250  -26.2130 C.3       1 B18        -0.0119
     28 N28        38.6310  -24.5280  -27.5780 N.4       1 B18         0.2323
     29 C29        39.9080  -23.8010  -27.4840 C.3       1 B18        -0.0433
     30 C30        37.7420  -23.7980  -28.5290 C.3       1 B18        -0.0433
     31 C31        40.5320  -28.0650  -19.1550 C.3       1 B18        -0.0539
     32 H1         38.1280  -29.4882  -20.1283 H         1 B18         0.0631
     33 H2         37.4070  -33.7020  -17.5629 H         1 B18         0.0557
     34 H3         35.5221  -32.7080  -18.8549 H         1 B18         0.0594
     35 H4         40.1411  -33.3257  -16.9089 H         1 B18         0.2217
     36 H5         41.6709  -29.6363  -20.1101 H         1 B18         0.0434
     37 H6         42.1838  -28.5300  -17.3093 H         1 B18         0.0539
     38 H7         43.3341  -28.7532  -18.6708 H         1 B18         0.0539
     39 H8         43.9191  -30.5107  -17.1841 H         1 B18         0.1837
     40 H9         37.0009  -29.5596  -21.5788 H         1 B18         0.2402
     41 H10        32.3822  -27.7064  -24.1979 H         1 B18         0.0721
     42 H11        36.8074  -26.5890  -24.7695 H         1 B18         0.1841
     43 H12        35.9846  -24.0342  -25.8437 H         1 B18         0.0572
     44 H13        36.1252  -25.2561  -27.1529 H         1 B18         0.0572
     45 H14        38.5100  -25.5941  -25.7519 H         1 B18         0.0834
     46 H15        38.2343  -23.8240  -25.6202 H         1 B18         0.0834
     47 H16        38.8124  -25.4421  -27.9622 H         1 B18         0.2028
     48 H17        40.3314  -23.6719  -28.4910 H         1 B18         0.0777
     49 H18        40.6111  -24.3738  -26.8614 H         1 B18         0.0777
     50 H19        39.7356  -22.8143  -27.0295 H         1 B18         0.0777
     51 H20        36.7813  -24.3272  -28.6125 H         1 B18         0.0777
     52 H21        38.2221  -23.7515  -29.5176 H         1 B18         0.0777
     53 H22        37.5674  -22.7774  -28.1578 H         1 B18         0.0777
     54 H23        39.6748  -28.1569  -19.8382 H         1 B18         0.0251
     55 H24        41.2052  -27.2734  -19.5158 H         1 B18         0.0251
     56 H25        40.1721  -27.8093  -18.1475 H         1 B18         0.0251
@<TRIPOS>BOND
     1    1    2 ar 
     2    1    6 ar 
     3    1   15 1  
     4    2    3 ar 
     5    3    4 ar 
     6    3    7 1  
     7    4    5 ar 
     8    4    9 1  
     9    5    6 ar 
    10    7    8 2  
    11    7   10 1  
    12    8    9 1  
    13    8   13 1  
    14   10   11 1  
    15   10   31 1  
    16   11   12 1  
    17   12   13 am 
    18   13   14 2  
    19   15   16 2  
    20   15   17 am 
    21   17   18 1  
    22   18   19 1  
    23   18   22 2  
    24   19   20 1  
    25   20   21 2  
    26   21   22 1  
    27   21   23 1  
    28   23   24 am 
    29   23   25 2  
    30   24   26 1  
    31   26   27 1  
    32   27   28 1  
    33   28   29 1  
    34   28   30 1  
    35    2   32 1  
    36    5   33 1  
    37    6   34 1  
    38    9   35 1  
    39   10   36 1  
    40   11   37 1  
    41   11   38 1  
    42   12   39 1  
    43   17   40 1  
    44   20   41 1  
    45   24   42 1  
    46   26   43 1  
    47   26   44 1  
    48   27   45 1  
    49   27   46 1  
    50   28   47 1  
    51   29   48 1  
    52   29   49 1  
    53   29   50 1  
    54   30   51 1  
    55   30   52 1  
    56   30   53 1  
    57   31   54 1  
    58   31   55 1  
    59   31   56 1  
@<TRIPOS>SUBSTRUCTURE
     1 B18         1

