### 
### Created by X-TOOL on Mon Sep 10 21:12:56 2018
### 

@<TRIPOS>MOLECULE
2q11_ligand
   61    64     1     0     0
SMALL
GAST_HUCK


@<TRIPOS>ATOM
      1 C01       197.9170    8.7920   21.0780 C.3       1 XX4         0.0229
      2 N02       198.3070    7.4450   20.6090 N.am      1 XX4        -0.2732
      3 C03       199.0590    6.6020   21.4310 C.2       1 XX4         0.1804
      4 O04       199.3820    5.5000   21.0540 O.2       1 XX4        -0.3968
      5 C05       199.4830    7.0330   22.8000 C.3       1 XX4         0.0576
      6 C06       198.5970    6.3740   23.8740 C.3       1 XX4         0.0423
      7 N07       197.3700    5.7670   23.2910 N.pl3     1 XX4        -0.2957
      8 C08       196.1360    6.6190   23.1140 C.3       1 XX4         0.0964
      9 C09       195.0370    5.8770   22.3720 C.ar      1 XX4         0.1116
     10 C10       193.9290    6.5660   21.8920 C.ar      1 XX4         0.0296
     11 C11       192.8930    5.8520   21.1880 C.ar      1 XX4         0.0903
     12 C12       191.6870    6.5780   20.6750 C.2       1 XX4         0.1999
     13 O13       190.5910    6.2720   21.1100 O.2       1 XX4        -0.3392
     14 C14       191.8020    7.6840   19.6530 C.ar      1 XX4         0.0429
     15 C15       193.0710    8.0510   19.0970 C.ar      1 XX4        -0.0427
     16 C16       193.1490    9.0940   18.1460 C.ar      1 XX4        -0.0561
     17 C17       191.9800    9.7780   17.7390 C.ar      1 XX4        -0.0574
     18 C18       190.7250    9.4270   18.2790 C.ar      1 XX4        -0.0561
     19 C19       190.6280    8.3840   19.2260 C.ar      1 XX4        -0.0427
     20 C20       193.0160    4.4320   20.9880 C.ar      1 XX4         0.0130
     21 C21       194.1280    3.7460   21.4740 C.ar      1 XX4         0.0456
     22 C22       195.1520    4.4480   22.1700 C.ar      1 XX4         0.1794
     23 N23       196.2320    3.7750   22.6490 N.2       1 XX4        -0.2352
     24 C24       197.3650    4.3940   22.9370 C.2       1 XX4         0.1757
     25 N25       198.5550    3.6860   22.9020 N.pl3     1 XX4        -0.3482
     26 C26       197.8690    7.0100   19.2450 C.3       1 XX4         0.0447
     27 C27       199.0500    6.3720   18.4500 C.3       1 XX4        -0.0297
     28 C28       198.5660    5.8260   17.0960 C.3       1 XX4        -0.0510
     29 C29       197.4500    4.7890   17.3270 C.3       1 XX4        -0.0529
     30 C30       196.2520    5.4820   17.9990 C.3       1 XX4        -0.0510
     31 C31       196.6790    6.0130   19.3790 C.3       1 XX4        -0.0297
     32 H1        198.3136    8.9567   22.0907 H         1 XX4         0.0486
     33 H2        196.8200    8.8704   21.0967 H         1 XX4         0.0486
     34 H3        198.3273    9.5509   20.3956 H         1 XX4         0.0486
     35 H4        199.3936    8.1265   22.8787 H         1 XX4         0.0523
     36 H5        200.5299    6.7379   22.9640 H         1 XX4         0.0523
     37 H6        198.3006    7.1383   24.6074 H         1 XX4         0.0548
     38 H7        199.1769    5.5870   24.3784 H         1 XX4         0.0548
     39 H8        196.4048    7.5200   22.5431 H         1 XX4         0.0880
     40 H9        195.7606    6.9116   24.1057 H         1 XX4         0.0880
     41 H10       193.8443    7.6356   22.0464 H         1 XX4         0.0764
     42 H11       193.9699    7.5294   19.4053 H         1 XX4         0.0670
     43 H12       194.1095    9.3709   17.7267 H         1 XX4         0.0630
     44 H13       192.0487   10.5759   17.0085 H         1 XX4         0.0654
     45 H14       189.8336    9.9588   17.9665 H         1 XX4         0.0630
     46 H15       189.6603    8.1120   19.6316 H         1 XX4         0.0670
     47 H16       192.2399    3.8931   20.4567 H         1 XX4         0.0954
     48 H17       194.2129    2.6761   21.3216 H         1 XX4         0.0818
     49 H19       199.4424    4.1591   23.1247 H         1 XX4         0.1671
     50 H20       198.5525    2.6865   22.6533 H         1 XX4         0.1671
     51 H21       197.5222    7.8950   18.6913 H         1 XX4         0.0558
     52 H22       199.4774    5.5473   19.0392 H         1 XX4         0.0287
     53 H23       199.8216    7.1363   18.2754 H         1 XX4         0.0287
     54 H24       199.4069    5.3484   16.5719 H         1 XX4         0.0266
     55 H25       198.1761    6.6538   16.4855 H         1 XX4         0.0266
     56 H26       197.8232    3.9847   17.9780 H         1 XX4         0.0265
     57 H27       197.1362    4.3640   16.3622 H         1 XX4         0.0265
     58 H28       195.4312    4.7600   18.1212 H         1 XX4         0.0266
     59 H29       195.9131    6.3198   17.3719 H         1 XX4         0.0266
     60 H30       195.8272    6.5290   19.8460 H         1 XX4         0.0287
     61 H31       196.9868    5.1671   20.0112 H         1 XX4         0.0287
@<TRIPOS>BOND
     1    1    2 1  
     2    2    3 am 
     3    2   26 1  
     4    3    4 2  
     5    3    5 1  
     6    5    6 1  
     7    6    7 1  
     8    7    8 1  
     9    7   24 1  
    10    8    9 1  
    11    9   10 ar 
    12    9   22 ar 
    13   10   11 ar 
    14   11   12 1  
    15   11   20 ar 
    16   12   13 2  
    17   12   14 1  
    18   14   15 ar 
    19   14   19 ar 
    20   15   16 ar 
    21   16   17 ar 
    22   17   18 ar 
    23   18   19 ar 
    24   20   21 ar 
    25   21   22 ar 
    26   22   23 1  
    27   23   24 2  
    28   24   25 1  
    29   26   27 1  
    30   26   31 1  
    31   27   28 1  
    32   28   29 1  
    33   29   30 1  
    34   30   31 1  
    35    1   32 1  
    36    1   33 1  
    37    1   34 1  
    38    5   35 1  
    39    5   36 1  
    40    6   37 1  
    41    6   38 1  
    42    8   39 1  
    43    8   40 1  
    44   10   41 1  
    45   15   42 1  
    46   16   43 1  
    47   17   44 1  
    48   18   45 1  
    49   19   46 1  
    50   20   47 1  
    51   21   48 1  
    52   25   49 1  
    53   25   50 1  
    54   26   51 1  
    55   27   52 1  
    56   27   53 1  
    57   28   54 1  
    58   28   55 1  
    59   29   56 1  
    60   29   57 1  
    61   30   58 1  
    62   30   59 1  
    63   31   60 1  
    64   31   61 1  
@<TRIPOS>SUBSTRUCTURE
     1 XX4         1

