### 
### Created by X-TOOL on Mon Sep 10 21:12:56 2018
### 

@<TRIPOS>MOLECULE
2q15_ligand
   79    83     1     0     0
SMALL
GAST_HUCK


@<TRIPOS>ATOM
      1 C1         72.9440   46.5280    7.9080 C.3       1 3MR         0.0229
      2 N2         71.6390   47.1820    7.9130 N.am      1 3MR        -0.2732
      3 C3         70.5450   46.4070    8.2060 C.2       1 3MR         0.1785
      4 O4         70.6760   45.2200    8.4690 O.2       1 3MR        -0.3969
      5 C5         69.1630   47.0130    8.2000 C.3       1 3MR         0.0396
      6 C6         68.0710   46.0970    8.7240 C.3       1 3MR        -0.0129
      7 C7         66.7820   46.6280    8.0820 C.3       1 3MR         0.0393
      8 C9         65.5940   46.0060    8.8160 C.3       1 3MR        -0.0180
      9 C10        64.3970   46.8590    8.4240 C.3       1 3MR        -0.0481
     10 C11        63.0950   46.3500    9.0180 C.3       1 3MR        -0.0527
     11 C12        62.8450   44.9020    8.5990 C.3       1 3MR        -0.0530
     12 C13        64.0590   44.0910    9.0320 C.3       1 3MR        -0.0527
     13 C14        65.3300   44.5750    8.3270 C.3       1 3MR        -0.0481
     14 N15        66.6720   48.0860    8.2110 N.pl3     1 3MR        -0.3074
     15 C16        66.4230   48.5630    9.5710 C.3       1 3MR         0.0726
     16 C17        67.3960   49.6950    9.8370 C.ar      1 3MR         0.0664
     17 C18        67.9260   49.8730   11.1350 C.ar      1 3MR         0.0328
     18 C19        68.8100   50.9270   11.3860 C.ar      1 3MR         0.1900
     19 O20        69.3110   51.2060   12.6370 O.3       1 3MR        -0.1947
     20 C21        70.5180   50.6750   12.9980 C.ar      1 3MR         0.1671
     21 C22        71.0850   49.6390   12.2950 C.ar      1 3MR        -0.0038
     22 C23        72.2900   49.1130   12.6840 C.ar      1 3MR        -0.0521
     23 C24        72.9640   49.6180   13.7850 C.ar      1 3MR        -0.0557
     24 C25        72.3970   50.6470   14.4630 C.ar      1 3MR        -0.0521
     25 C26        71.1810   51.1870   14.1060 C.ar      1 3MR        -0.0038
     26 C27        69.0810   51.7950   10.3390 C.ar      1 3MR         0.0294
     27 C28        68.5620   51.6150    9.0620 C.ar      1 3MR         0.0209
     28 C29        67.7070   50.5580    8.7660 C.ar      1 3MR         0.1323
     29 N30        67.2080   50.3360    7.4740 N.2       1 3MR        -0.2599
     30 C31        66.8550   49.0520    7.1830 C.2       1 3MR         0.1589
     31 N32        66.6720   48.6580    5.8740 N.pl3     1 3MR        -0.3520
     32 C33        71.5370   48.6230    7.6680 C.3       1 3MR         0.0447
     33 C34        72.8960   49.1760    7.3060 C.3       1 3MR        -0.0297
     34 C35        72.7130   50.6730    7.3220 C.3       1 3MR        -0.0510
     35 C36        71.8790   50.9280    6.0660 C.3       1 3MR        -0.0529
     36 C37        70.4620   50.4540    6.3600 C.3       1 3MR        -0.0510
     37 C38        70.5940   48.9600    6.5230 C.3       1 3MR        -0.0297
     38 H1         72.8167   45.4541    8.1094 H         1 3MR         0.0486
     39 H2         73.5807   46.9740    8.6863 H         1 3MR         0.0486
     40 H3         73.4180   46.6630    6.9246 H         1 3MR         0.0486
     41 H4         68.9130   47.2881    7.1647 H         1 3MR         0.0503
     42 H5         69.1819   47.9177    8.8255 H         1 3MR         0.0503
     43 H6         68.0103   46.1525    9.8209 H         1 3MR         0.0312
     44 H7         68.2569   45.0566    8.4192 H         1 3MR         0.0312
     45 H8         66.7608   46.3499    7.0179 H         1 3MR         0.0560
     46 H9         65.7574   46.0142    9.9038 H         1 3MR         0.0324
     47 H10        64.3078   46.8577    7.3276 H         1 3MR         0.0269
     48 H11        64.5667   47.8869    8.7769 H         1 3MR         0.0269
     49 H12        62.2650   46.9781    8.6623 H         1 3MR         0.0265
     50 H13        63.1520   46.4045   10.1152 H         1 3MR         0.0265
     51 H14        62.7214   44.8416    7.5076 H         1 3MR         0.0265
     52 H15        61.9400   44.5179    9.0924 H         1 3MR         0.0265
     53 H16        63.8912   43.0330    8.7822 H         1 3MR         0.0265
     54 H17        64.1904   44.1947   10.1192 H         1 3MR         0.0265
     55 H18        66.1778   43.9240    8.5868 H         1 3MR         0.0269
     56 H19        65.1835   44.5688    7.2368 H         1 3MR         0.0269
     57 H20        66.5873   47.7483   10.2916 H         1 3MR         0.0742
     58 H21        65.3888   48.9272    9.6587 H         1 3MR         0.0742
     59 H22        67.6481   49.1946   11.9335 H         1 3MR         0.0677
     60 H23        70.5762   49.2351   11.4272 H         1 3MR         0.0672
     61 H24        72.7212   48.2916   12.1233 H         1 3MR         0.0641
     62 H25        73.9161   49.2028   14.0950 H         1 3MR         0.0667
     63 H26        72.9204   51.0599   15.3178 H         1 3MR         0.0641
     64 H27        70.7486   51.9983   14.6804 H         1 3MR         0.0672
     65 H28        69.7235   52.6483   10.5238 H         1 3MR         0.0837
     66 H29        68.8297   52.3146    8.2784 H         1 3MR         0.0758
     67 H31        66.4053   47.6862    5.6612 H         1 3MR         0.1656
     68 H32        66.8021   49.3356    5.1092 H         1 3MR         0.1656
     69 H33        71.1734   49.1083    8.5857 H         1 3MR         0.0558
     70 H34        73.2015   48.8327    6.3066 H         1 3MR         0.0287
     71 H35        73.6500   48.8689    8.0457 H         1 3MR         0.0287
     72 H36        73.6818   51.1909    7.2657 H         1 3MR         0.0266
     73 H37        72.1762   50.9966    8.2260 H         1 3MR         0.0266
     74 H38        72.2954   50.3661    5.2170 H         1 3MR         0.0265
     75 H39        71.8750   52.0020    5.8283 H         1 3MR         0.0265
     76 H40        69.7889   50.6967    5.5245 H         1 3MR         0.0266
     77 H41        70.0810   50.9144    7.2835 H         1 3MR         0.0266
     78 H42        69.6031   48.5313    6.7337 H         1 3MR         0.0287
     79 H43        70.9894   48.5291    5.5913 H         1 3MR         0.0287
@<TRIPOS>BOND
     1    1    2 1  
     2    2    3 am 
     3    2   32 1  
     4    3    4 2  
     5    3    5 1  
     6    5    6 1  
     7    6    7 1  
     8    7    8 1  
     9    7   14 1  
    10    8    9 1  
    11    8   13 1  
    12    9   10 1  
    13   10   11 1  
    14   11   12 1  
    15   12   13 1  
    16   14   15 1  
    17   14   30 1  
    18   15   16 1  
    19   16   17 ar 
    20   16   28 ar 
    21   17   18 ar 
    22   18   19 1  
    23   18   26 ar 
    24   19   20 1  
    25   20   21 ar 
    26   20   25 ar 
    27   21   22 ar 
    28   22   23 ar 
    29   23   24 ar 
    30   24   25 ar 
    31   26   27 ar 
    32   27   28 ar 
    33   28   29 1  
    34   29   30 2  
    35   30   31 1  
    36   32   33 1  
    37   32   37 1  
    38   33   34 1  
    39   34   35 1  
    40   35   36 1  
    41   36   37 1  
    42    1   38 1  
    43    1   39 1  
    44    1   40 1  
    45    5   41 1  
    46    5   42 1  
    47    6   43 1  
    48    6   44 1  
    49    7   45 1  
    50    8   46 1  
    51    9   47 1  
    52    9   48 1  
    53   10   49 1  
    54   10   50 1  
    55   11   51 1  
    56   11   52 1  
    57   12   53 1  
    58   12   54 1  
    59   13   55 1  
    60   13   56 1  
    61   15   57 1  
    62   15   58 1  
    63   17   59 1  
    64   21   60 1  
    65   22   61 1  
    66   23   62 1  
    67   24   63 1  
    68   25   64 1  
    69   26   65 1  
    70   27   66 1  
    71   31   67 1  
    72   31   68 1  
    73   32   69 1  
    74   33   70 1  
    75   33   71 1  
    76   34   72 1  
    77   34   73 1  
    78   35   74 1  
    79   35   75 1  
    80   36   76 1  
    81   36   77 1  
    82   37   78 1  
    83   37   79 1  
@<TRIPOS>SUBSTRUCTURE
     1 3MR         1

