### 
### Created by X-TOOL on Mon Sep 10 21:12:55 2018
### 

@<TRIPOS>MOLECULE
2q1q_ligand
   32    33     1     0     0
SMALL
GAST_HUCK


@<TRIPOS>ATOM
      1 O3         -5.2520    4.5090   11.2130 O.2       1 OSP        -0.1497
      2 S2         -4.0070    5.1270   11.6080 S.o2      1 OSP         0.0624
      3 O4         -2.9710    4.2460   11.1220 O.2       1 OSP        -0.1497
      4 C7         -3.7850    6.6210   10.9110 C.3       1 OSP         0.0902
      5 C8         -2.5260    7.3020   11.4600 C.3       1 OSP        -0.0293
      6 C9         -1.9850    6.6550   12.7350 C.3       1 OSP        -0.0282
      7 C10        -3.0830    6.3190   13.7370 C.3       1 OSP         0.0557
      8 N2         -3.8530    5.2320   13.1420 N.am      1 OSP        -0.1781
      9 C4         -4.3780    4.2460   14.0100 C.ar      1 OSP         0.0653
     10 C3         -3.5850    3.1360   14.3000 C.ar      1 OSP        -0.0435
     11 C2         -4.0580    2.1420   15.1650 C.ar      1 OSP        -0.0513
     12 C5         -5.6540    4.3450   14.5730 C.ar      1 OSP        -0.0435
     13 C6         -6.1280    3.3490   15.4340 C.ar      1 OSP        -0.0513
     14 C1         -5.3370    2.2300   15.7390 C.ar      1 OSP         0.0904
     15 S1         -5.8650    1.0470   16.7210 S.o2      1 OSP         0.0582
     16 O1         -7.3000    1.0520   16.7650 O.2       1 OSP        -0.1527
     17 O2         -5.3130    1.2480   18.0320 O.2       1 OSP        -0.1527
     18 N1         -5.3580   -0.3420   16.1270 N.am      1 OSP        -0.2627
     19 H1         -4.6591    7.2526   11.1279 H         1 OSP         0.0524
     20 H2         -3.6821    6.4985    9.8227 H         1 OSP         0.0524
     21 H3         -2.7667    8.3528   11.6788 H         1 OSP         0.0282
     22 H4         -1.7428    7.2581   10.6888 H         1 OSP         0.0282
     23 H5         -1.2770    7.3506   13.2093 H         1 OSP         0.0287
     24 H6         -1.4609    5.7269   12.4633 H         1 OSP         0.0287
     25 H7         -3.7266    7.1948   13.9065 H         1 OSP         0.0554
     26 H8         -2.6429    5.9970   14.6923 H         1 OSP         0.0554
     27 H9         -2.6010    3.0428   13.8550 H         1 OSP         0.0482
     28 H10        -3.4273    1.2910   15.3954 H         1 OSP         0.0591
     29 H11        -6.2802    5.1989   14.3410 H         1 OSP         0.0482
     30 H12        -7.1161    3.4424   15.8700 H         1 OSP         0.0591
     31 H13        -5.5829   -1.1973   16.5938 H         1 OSP         0.1633
     32 H14        -4.8150   -0.3584   15.2874 H         1 OSP         0.1633
@<TRIPOS>BOND
     1    1    2 2  
     2    2    3 2  
     3    2    4 1  
     4    2    8 am 
     5    4    5 1  
     6    5    6 1  
     7    6    7 1  
     8    7    8 1  
     9    8    9 1  
    10    9   10 ar 
    11    9   12 ar 
    12   10   11 ar 
    13   11   14 ar 
    14   12   13 ar 
    15   13   14 ar 
    16   14   15 1  
    17   15   16 2  
    18   15   17 2  
    19   15   18 am 
    20    4   19 1  
    21    4   20 1  
    22    5   21 1  
    23    5   22 1  
    24    6   23 1  
    25    6   24 1  
    26    7   25 1  
    27    7   26 1  
    28   10   27 1  
    29   11   28 1  
    30   12   29 1  
    31   13   30 1  
    32   18   31 1  
    33   18   32 1  
@<TRIPOS>SUBSTRUCTURE
     1 OSP         1

