### 
### Created by X-TOOL on Mon Sep 10 21:12:57 2018
### 

@<TRIPOS>MOLECULE
2q2a_ligand
   27    26     1     0     0
SMALL
GAST_HUCK


@<TRIPOS>ATOM
      1 N           3.0300    1.9490   13.2740 N.4       1 ARG         0.2327
      2 CA          3.8830    0.9220   14.0000 C.3       1 ARG         0.0284
      3 C           4.9230    0.3310   13.0670 C.2       1 ARG         0.0844
      4 O           4.9050    0.5290   11.8310 O.co2     1 ARG        -0.5643
      5 CB          3.0340   -0.2090   14.5910 C.3       1 ARG         0.0055
      6 CG          2.1130   -0.8270   13.5400 C.3       1 ARG        -0.0131
      7 CD          1.5750   -2.1920   13.9660 C.3       1 ARG         0.0628
      8 NE          0.4410   -2.5640   13.1070 N.pl3     1 ARG        -0.2723
      9 CZ         -0.2520   -3.6990   13.2240 C.cat     1 ARG         0.2882
     10 NH1         0.0680   -4.5820   14.1700 N.pl3     1 ARG        -0.2849
     11 NH2        -1.2820   -3.9490   12.4120 N.pl3     1 ARG        -0.2849
     12 OXT         5.8450   -0.3260   13.5550 O.co2     1 ARG        -0.5643
     13 H1          2.3468    2.3287   13.9105 H         1 ARG         0.2010
     14 H2          2.5591    1.5077   12.4997 H         1 ARG         0.2010
     15 H3          3.6183    2.6919   12.9303 H         1 ARG         0.2010
     16 H4          4.4022    1.4321   14.8247 H         1 ARG         0.1024
     17 H5          2.4209    0.1950   15.4100 H         1 ARG         0.0340
     18 H6          3.7022   -0.9895   14.9838 H         1 ARG         0.0340
     19 H7          2.6766   -0.9465   12.6030 H         1 ARG         0.0302
     20 H8          1.2631   -0.1490   13.3728 H         1 ARG         0.0302
     21 H9          1.2410   -2.1436   15.0129 H         1 ARG         0.0689
     22 H10         2.3704   -2.9457   13.8693 H         1 ARG         0.0689
     23 H11         0.1629   -1.9051   12.3658 H         1 ARG         0.2642
     24 H12        -0.4672   -5.4575   14.2596 H         1 ARG         0.2615
     25 H13         0.8505   -4.3888   14.8114 H         1 ARG         0.2615
     26 H14        -1.5357   -3.2718   11.6785 H         1 ARG         0.2615
     27 H15        -1.8229   -4.8190   12.5191 H         1 ARG         0.2615
@<TRIPOS>BOND
     1    1    2 1  
     2    2    3 1  
     3    2    5 1  
     4    3    4 ar 
     5    3   12 ar 
     6    5    6 1  
     7    6    7 1  
     8    7    8 1  
     9    8    9 ar 
    10    9   10 ar 
    11    9   11 ar 
    12    1   13 1  
    13    1   14 1  
    14    1   15 1  
    15    2   16 1  
    16    5   17 1  
    17    5   18 1  
    18    6   19 1  
    19    6   20 1  
    20    7   21 1  
    21    7   22 1  
    22    8   23 1  
    23   10   24 1  
    24   10   25 1  
    25   11   26 1  
    26   11   27 1  
@<TRIPOS>SUBSTRUCTURE
     1 ARG         1

