### 
### Created by X-TOOL on Mon Sep 10 21:12:59 2018
### 

@<TRIPOS>MOLECULE
2q2c_ligand
   20    20     1     0     0
SMALL
GAST_HUCK


@<TRIPOS>ATOM
      1 N           2.8720   -0.7830    4.2710 N.4       1 HIS         0.2337
      2 CA          3.7530   -1.4240    5.2890 C.3       1 HIS         0.0342
      3 C           4.5380   -0.3970    6.0930 C.2       1 HIS         0.0860
      4 O           5.0920   -0.7160    7.1420 O.co2     1 HIS        -0.5642
      5 CB          4.6840   -2.4640    4.6430 C.3       1 HIS         0.0292
      6 CG          5.7350   -1.8850    3.7430 C.2       1 HIS        -0.0001
      7 ND1         6.9950   -2.4320    3.6300 N.2       1 HIS        -0.3251
      8 CD2         5.7150   -0.8160    2.9110 C.2       1 HIS         0.0292
      9 CE1         7.7040   -1.7270    2.7660 C.2       1 HIS         0.0907
     10 NE2         6.9490   -0.7430    2.3130 N.pl3     1 HIS        -0.2752
     11 OXT         4.6200    0.7770    5.7260 O.co2     1 HIS        -0.5642
     12 H           2.2677   -0.1000    4.7278 H         1 HIS         0.2011
     13 H           3.4478   -0.3150    3.5711 H         1 HIS         0.2011
     14 H           2.3000   -1.4971    3.8201 H         1 HIS         0.2011
     15 H           3.1048   -1.9478    5.9916 H         1 HIS         0.1042
     16 H           4.0597   -3.1123    4.0281 H         1 HIS         0.0446
     17 H           5.2043   -2.9735    5.4541 H         1 HIS         0.0446
     18 H           4.8759   -0.1399    2.7469 H         1 HIS         0.0729
     19 H           8.7362   -1.9242    2.4766 H         1 HIS         0.1199
     20 H           7.2359   -0.0422    1.6296 H         1 HIS         0.2361
@<TRIPOS>BOND
     1    1    2 1  
     2    2    3 1  
     3    2    5 1  
     4    3    4 ar 
     5    3   11 ar 
     6    5    6 1  
     7    6    7 1  
     8    6    8 2  
     9    7    9 2  
    10    8   10 1  
    11    9   10 1  
    12    1   12 1  
    13    1   13 1  
    14    1   14 1  
    15    2   15 1  
    16    5   16 1  
    17    5   17 1  
    18    8   18 1  
    19    9   19 1  
    20   10   20 1  
@<TRIPOS>SUBSTRUCTURE
     1 HIS         1

