### 
### Created by X-TOOL on Mon Sep 10 21:12:55 2018
### 

@<TRIPOS>MOLECULE
2q2y_ligand
   68    72     1     0     0
SMALL
GAST_HUCK


@<TRIPOS>ATOM
      1 C1         21.9000   16.5170  106.1240 C.ar      1 MKR         0.2203
      2 C2         20.6630   16.6840  106.8450 C.ar      1 MKR         0.0744
      3 C3         20.3150   15.5360  107.6560 C.ar      1 MKR         0.1880
      4 C4         21.1400   14.3930  107.6850 C.ar      1 MKR         0.2366
      5 C5         22.3140   14.2460  106.9980 C.ar      1 MKR         0.0630
      6 C6         22.6750   15.3540  106.1700 C.ar      1 MKR         0.0502
      7 N2         19.1170   15.4520  108.4270 N.2       1 MKR        -0.2311
      8 N12        18.5790   16.4330  109.0100 N.2       1 MKR        -0.1781
      9 C8         17.6140   16.1840  109.8890 C.3       1 MKR         0.1337
     10 C14        17.4540   14.5950  109.9210 C.3       1 MKR         0.0308
     11 C15        18.4700   14.1970  108.8090 C.3       1 MKR         0.0823
     12 C18        17.6410   14.0660  111.3530 C.ar      1 MKR        -0.0402
     13 C20        16.8730   17.2660  110.6740 C.2       1 MKR         0.1217
     14 C9         17.4730   18.6260  110.6720 C.3       1 MKR         0.0109
     15 O25        15.7920   17.0400  111.2440 O.2       1 MKR        -0.3903
     16 C26        18.6610   14.6870  112.1340 C.ar      1 MKR        -0.0390
     17 C27        18.9970   14.3450  113.4740 C.ar      1 MKR        -0.0324
     18 C28        18.2150   13.3290  114.0090 C.ar      1 MKR        -0.0340
     19 C29        17.1740   12.6650  113.2940 C.ar      1 MKR        -0.0324
     20 C30        16.8900   13.0590  111.9240 C.ar      1 MKR        -0.0390
     21 O1         20.7560   13.2880  108.4210 O.3       1 MKR        -0.2326
     22 F1         22.3890   17.5020  105.3880 F         1 MKR        -0.1162
     23 C7         19.6320   13.3380  109.2680 C.3       1 MKR         0.1204
     24 C10        16.0120   14.3640  109.4640 C.3       1 MKR        -0.0598
     25 C11        15.6410   14.2560  107.9870 C.3       1 MKR        -0.0191
     26 C12        14.3280   15.0800  107.6970 C.3       1 MKR        -0.0325
     27 N3         13.9080   15.0860  106.2690 N.4       1 MKR         0.2381
     28 C16        13.9750   16.3670  105.5640 C.3       1 MKR        -0.0110
     29 C17        13.1720   14.0160  105.6240 C.3       1 MKR        -0.0110
     30 C19        12.5210   16.8970  105.7600 C.3       1 MKR         0.0740
     31 C21        11.6500   14.3800  105.6820 C.3       1 MKR         0.0740
     32 N1         11.4400   15.8630  105.3840 N.am      1 MKR        -0.2633
     33 C22        10.3150   16.3480  104.8040 C.2       1 MKR         0.1757
     34 C24         9.6020   15.2390  103.9500 C.3       1 MKR         0.0258
     35 O2          9.9870   17.5290  104.9460 O.2       1 MKR        -0.3972
     36 H1         20.0544   17.5791  106.7860 H         1 MKR         0.0865
     37 H2         22.9257   13.3545  107.0759 H         1 MKR         0.0887
     38 H3         23.5711   15.2911  105.5632 H         1 MKR         0.0990
     39 H4         16.8296   16.2685  109.1225 H         1 MKR         0.0718
     40 H5         17.9448   13.7175  107.9698 H         1 MKR         0.0497
     41 H6         16.8458   19.3043  111.2691 H         1 MKR         0.0459
     42 H7         17.5346   18.9981  109.6387 H         1 MKR         0.0459
     43 H8         18.4825   18.5821  111.1068 H         1 MKR         0.0459
     44 H9         19.2269   15.4855  111.6680 H         1 MKR         0.0850
     45 H10        19.7912   14.8331  114.0272 H         1 MKR         0.0698
     46 H11        18.4072   13.0223  115.0308 H         1 MKR         0.0856
     47 H12        16.6013   11.8756  113.7672 H         1 MKR         0.0698
     48 H13        16.1027   12.5707  111.3612 H         1 MKR         0.0850
     49 H14        19.2594   12.3100  109.3880 H         1 MKR         0.0710
     50 H15        19.9663   13.7230  110.2427 H         1 MKR         0.0710
     51 H16        15.4224   15.1993  109.8697 H         1 MKR         0.0180
     52 H17        15.6867   13.4237  109.9331 H         1 MKR         0.0180
     53 H18        15.4718   13.1998  107.7305 H         1 MKR         0.0309
     54 H19        16.4635   14.6548  107.3751 H         1 MKR         0.0309
     55 H20        14.4990   16.1207  108.0095 H         1 MKR         0.0814
     56 H21        13.5115   14.6473  108.2938 H         1 MKR         0.0814
     57 H22        14.8013   14.7555  105.9389 H         1 MKR         0.2035
     58 H23        14.2136   16.2291  104.4991 H         1 MKR         0.0834
     59 H24        14.7146   17.0406  106.0213 H         1 MKR         0.0834
     60 H25        13.3504   13.0677  106.1521 H         1 MKR         0.0834
     61 H26        13.4939   13.9187  104.5767 H         1 MKR         0.0834
     62 H27        12.3861   17.7883  105.1296 H         1 MKR         0.0575
     63 H28        12.3888   17.1719  106.8169 H         1 MKR         0.0575
     64 H29        11.2625   14.1548  106.6865 H         1 MKR         0.0575
     65 H30        11.1064   13.7811  104.9365 H         1 MKR         0.0575
     66 H31         8.6939   15.6570  103.4910 H         1 MKR         0.0467
     67 H32         9.3289   14.3947  104.6000 H         1 MKR         0.0467
     68 H33        10.2838   14.8888  103.1610 H         1 MKR         0.0467
@<TRIPOS>BOND
     1    1    2 ar 
     2    1    6 ar 
     3    1   22 1  
     4    2    3 ar 
     5    3    4 ar 
     6    3    7 1  
     7    4    5 ar 
     8    4   21 1  
     9    5    6 ar 
    10    7    8 2  
    11    7   11 1  
    12    8    9 1  
    13    9   10 1  
    14    9   13 1  
    15   10   11 1  
    16   10   12 1  
    17   10   24 1  
    18   11   23 1  
    19   12   16 ar 
    20   12   20 ar 
    21   13   14 1  
    22   13   15 2  
    23   16   17 ar 
    24   17   18 ar 
    25   18   19 ar 
    26   19   20 ar 
    27   21   23 1  
    28   24   25 1  
    29   25   26 1  
    30   26   27 1  
    31   27   28 1  
    32   27   29 1  
    33   28   30 1  
    34   29   31 1  
    35   30   32 1  
    36   31   32 1  
    37   32   33 am 
    38   33   34 1  
    39   33   35 2  
    40    2   36 1  
    41    5   37 1  
    42    6   38 1  
    43    9   39 1  
    44   11   40 1  
    45   14   41 1  
    46   14   42 1  
    47   14   43 1  
    48   16   44 1  
    49   17   45 1  
    50   18   46 1  
    51   19   47 1  
    52   20   48 1  
    53   23   49 1  
    54   23   50 1  
    55   24   51 1  
    56   24   52 1  
    57   25   53 1  
    58   25   54 1  
    59   26   55 1  
    60   26   56 1  
    61   27   57 1  
    62   28   58 1  
    63   28   59 1  
    64   29   60 1  
    65   29   61 1  
    66   30   62 1  
    67   30   63 1  
    68   31   64 1  
    69   31   65 1  
    70   34   66 1  
    71   34   67 1  
    72   34   68 1  
@<TRIPOS>SUBSTRUCTURE
     1 MKR         1

