### 
### Created by X-TOOL on Mon Sep 10 21:12:55 2018
### 

@<TRIPOS>MOLECULE
2q2z_ligand
   69    72     1     0     0
SMALL
GAST_HUCK


@<TRIPOS>ATOM
      1 C1         21.9390   16.3780  106.8010 C.ar      1 MKK         0.0477
      2 C2         20.8940   16.2580  107.7810 C.ar      1 MKK         0.0471
      3 C3         20.8550   15.0040  108.6450 C.ar      1 MKK         0.1840
      4 C4         21.7960   14.0510  108.4120 C.ar      1 MKK         0.2686
      5 C5         22.8530   14.0980  107.5250 C.ar      1 MKK         0.0638
      6 C6         22.8710   15.2870  106.7010 C.ar      1 MKK         0.0300
      7 N4         19.8030   14.9600  109.5910 N.2       1 MKK        -0.2354
      8 N1         19.2370   15.9940  110.1130 N.2       1 MKK        -0.1747
      9 C24        18.1900   15.9200  110.9110 C.3       1 MKK         0.1351
     10 C13        17.9360   14.4530  110.9630 C.3       1 MKK         0.0254
     11 C14        19.2200   13.8630  110.3100 C.3       1 MKK         0.0376
     12 C17        18.0440   13.9180  112.3780 C.ar      1 MKK        -0.0405
     13 C19        17.0780   12.9400  112.8250 C.ar      1 MKK        -0.0390
     14 C20        17.2430   12.4510  114.1900 C.ar      1 MKK        -0.0324
     15 C21        18.3700   13.0050  115.0340 C.ar      1 MKK        -0.0340
     16 C22        19.3710   13.9870  114.6170 C.ar      1 MKK        -0.0324
     17 C23        19.1400   14.4120  113.2510 C.ar      1 MKK        -0.0390
     18 C29        17.5020   17.1510  111.5140 C.2       1 MKK         0.1221
     19 C9         18.2350   18.4940  111.1570 C.3       1 MKK         0.0110
     20 O39        16.4600   17.1550  112.2320 O.2       1 MKK        -0.3903
     21 F40        21.7890   12.9590  109.0780 F         1 MKK        -0.0880
     22 C10        22.1930   17.4780  105.9020 C.3       1 MKK         0.0115
     23 C7         16.6190   14.2230  110.1310 C.3       1 MKK        -0.0601
     24 C8         16.5880   15.0110  108.8600 C.3       1 MKK        -0.0191
     25 C11        15.2640   14.9690  108.0520 C.3       1 MKK        -0.0325
     26 N2         15.6040   14.5620  106.6140 N.4       1 MKK         0.2381
     27 C12        14.6410   13.4540  106.1960 C.3       1 MKK        -0.0110
     28 C15        15.7160   15.7320  105.6520 C.3       1 MKK        -0.0110
     29 C16        14.2990   16.3190  105.3890 C.3       1 MKK         0.0740
     30 C18        13.2460   14.2040  106.3050 C.3       1 MKK         0.0740
     31 N3         13.2750   15.1750  105.1600 N.am      1 MKK        -0.2633
     32 C25        12.3950   14.8750  104.0090 C.2       1 MKK         0.1757
     33 C26        11.4650   13.6430  104.1160 C.3       1 MKK         0.0258
     34 O1         12.2950   15.5300  102.9640 O.2       1 MKK        -0.3972
     35 H1         20.1529   17.0398  107.9020 H         1 MKK         0.0839
     36 H2         23.6004   13.3162  107.4527 H         1 MKK         0.0878
     37 H3         23.6481   15.3616  105.9490 H         1 MKK         0.1085
     38 H4         18.7987   15.8736  111.8261 H         1 MKK         0.0723
     39 H5         19.9121   13.4935  111.0811 H         1 MKK         0.0430
     40 H6         18.9637   13.0424  109.6238 H         1 MKK         0.0430
     41 H7         16.2774   12.5901  112.1834 H         1 MKK         0.0850
     42 H8         16.5693   11.7033  114.5926 H         1 MKK         0.0698
     43 H9         18.4431   12.6369  116.0510 H         1 MKK         0.0856
     44 H10        20.1771   14.3482  115.2453 H         1 MKK         0.0698
     45 H11        19.8191   15.1469  112.8340 H         1 MKK         0.0850
     46 H12        17.6980   19.3377  111.6150 H         1 MKK         0.0459
     47 H13        18.2549   18.6217  110.0646 H         1 MKK         0.0459
     48 H14        19.2652   18.4629  111.5414 H         1 MKK         0.0459
     49 H15        21.4321   18.2579  106.0528 H         1 MKK         0.0628
     50 H16        22.1499   17.1198  104.8629 H         1 MKK         0.0628
     51 H17        23.1905   17.8948  106.1052 H         1 MKK         0.0628
     52 H18        15.7578   14.5186  110.7482 H         1 MKK         0.0180
     53 H19        16.5427   13.1540  109.8830 H         1 MKK         0.0180
     54 H20        17.3886   14.6284  108.2099 H         1 MKK         0.0309
     55 H21        16.7919   16.0619  109.1131 H         1 MKK         0.0309
     56 H22        14.7908   15.9620  108.0576 H         1 MKK         0.0814
     57 H23        14.5777   14.2332  108.4965 H         1 MKK         0.0814
     58 H24        16.5227   14.1480  106.6380 H         1 MKK         0.2035
     59 H25        14.6920   12.5952  106.8815 H         1 MKK         0.0834
     60 H26        14.8376   13.1150  105.1682 H         1 MKK         0.0834
     61 H27        16.1527   15.3871  104.7032 H         1 MKK         0.0834
     62 H28        16.3596   16.5085  106.0911 H         1 MKK         0.0834
     63 H29        14.3321   16.9603  104.4959 H         1 MKK         0.0575
     64 H30        13.9868   16.9165  106.2582 H         1 MKK         0.0575
     65 H31        13.1586   14.7326  107.2657 H         1 MKK         0.0575
     66 H32        12.4106   13.4964  106.1984 H         1 MKK         0.0575
     67 H33        10.8754   13.5474  103.1923 H         1 MKK         0.0467
     68 H34        10.7866   13.7690  104.9726 H         1 MKK         0.0467
     69 H35        12.0719   12.7368  104.2590 H         1 MKK         0.0467
@<TRIPOS>BOND
     1    1    2 ar 
     2    1    6 ar 
     3    1   22 1  
     4    2    3 ar 
     5    3    4 ar 
     6    3    7 1  
     7    4    5 ar 
     8    4   21 1  
     9    5    6 ar 
    10    7    8 2  
    11    7   11 1  
    12    8    9 1  
    13    9   10 1  
    14    9   18 1  
    15   10   11 1  
    16   10   12 1  
    17   10   23 1  
    18   12   13 ar 
    19   12   17 ar 
    20   13   14 ar 
    21   14   15 ar 
    22   15   16 ar 
    23   16   17 ar 
    24   18   19 1  
    25   18   20 2  
    26   23   24 1  
    27   24   25 1  
    28   25   26 1  
    29   26   27 1  
    30   26   28 1  
    31   27   30 1  
    32   28   29 1  
    33   29   31 1  
    34   30   31 1  
    35   31   32 am 
    36   32   33 1  
    37   32   34 2  
    38    2   35 1  
    39    5   36 1  
    40    6   37 1  
    41    9   38 1  
    42   11   39 1  
    43   11   40 1  
    44   13   41 1  
    45   14   42 1  
    46   15   43 1  
    47   16   44 1  
    48   17   45 1  
    49   19   46 1  
    50   19   47 1  
    51   19   48 1  
    52   22   49 1  
    53   22   50 1  
    54   22   51 1  
    55   23   52 1  
    56   23   53 1  
    57   24   54 1  
    58   24   55 1  
    59   25   56 1  
    60   25   57 1  
    61   26   58 1  
    62   27   59 1  
    63   27   60 1  
    64   28   61 1  
    65   28   62 1  
    66   29   63 1  
    67   29   64 1  
    68   30   65 1  
    69   30   66 1  
    70   33   67 1  
    71   33   68 1  
    72   33   69 1  
@<TRIPOS>SUBSTRUCTURE
     1 MKK         1

