### 
### Created by X-TOOL on Mon Sep 10 21:12:55 2018
### 

@<TRIPOS>MOLECULE
2q38_ligand
   17    18     1     0     0
SMALL
GAST_HUCK


@<TRIPOS>ATOM
      1 C4         15.1690    6.8120   15.6170 C.ar      1 LSA        -0.0557
      2 C5         14.6890    5.7980   16.4530 C.ar      1 LSA        -0.0290
      3 C6         15.0310    4.4810   16.1470 C.ar      1 LSA         0.1330
      4 C7         16.1030    2.6940   15.0540 C.2       1 LSA         0.2270
      5 C3         15.9540    6.5040   14.4950 C.ar      1 LSA        -0.0561
      6 S10        14.5830    3.0010   17.0080 S.o2      1 LSA         0.0935
      7 N9         15.3560    2.0560   15.8870 N.am      1 LSA        -0.1525
      8 O8         16.6240    2.0920   14.1220 O.2       1 LSA        -0.3829
      9 C1         15.7940    4.1740   15.0290 C.ar      1 LSA         0.0784
     10 C2         16.3230    5.1830   14.2250 C.ar      1 LSA        -0.0400
     11 O12        15.2640    2.9480   18.2880 O.2       1 LSA        -0.1449
     12 O11        13.1510    2.8080   16.9460 O.2       1 LSA        -0.1449
     13 H1         14.9321    7.8464   15.8382 H         1 LSA         0.0653
     14 H2         14.0701    6.0290   17.3124 H         1 LSA         0.0649
     15 H3         16.2772    7.2980   13.8316 H         1 LSA         0.0629
     16 H4         15.2500    1.0620   15.8594 H         1 LSA         0.2139
     17 H5         17.0018    4.9494   13.4128 H         1 LSA         0.0670
@<TRIPOS>BOND
     1    2    1 ar 
     2    1    5 ar 
     3    3    2 ar 
     4    3    6 1  
     5    9    3 ar 
     6    4    7 am 
     7    4    8 2  
     8    4    9 1  
     9    5   10 ar 
    10    6    7 am 
    11    6   11 2  
    12    6   12 2  
    13    9   10 ar 
    14    1   13 1  
    15    2   14 1  
    16    5   15 1  
    17    7   16 1  
    18   10   17 1  
@<TRIPOS>SUBSTRUCTURE
     1 LSA         1

