### 
### Created by X-TOOL on Mon Sep 10 21:12:56 2018
### 

@<TRIPOS>MOLECULE
2q3z_ligand
   89    91     1     0     0
SMALL
GAST_HUCK


@<TRIPOS>ATOM
      1 N          -6.8360   -2.1530   22.7090 N.4       1 PRO         0.2461
      2 CA         -5.8020   -3.1700   22.9670 C.3       1 PRO         0.0670
      3 C          -4.5210   -2.8320   22.2120 C.2       1 PRO         0.2268
      4 O          -4.4110   -1.7950   21.5730 O.2       1 PRO        -0.3907
      5 CB         -6.3700   -4.4890   22.4070 C.3       1 PRO         0.0127
      6 CG         -7.5780   -4.1160   21.5370 C.3       1 PRO        -0.0053
      7 CD         -7.6990   -2.5830   21.5960 C.3       1 PRO        -0.0313
      8 N          -3.5660   -3.7430   22.3140 N.am      1 ONL        -0.2609
      9 CA         -2.2760   -3.6270   21.6510 C.3       1 ONL         0.1332
     10 C          -2.3730   -4.4540   20.3480 C.2       1 ONL         0.2041
     11 O          -2.7690   -5.6200   20.3330 O.2       1 ONL        -0.3944
     12 CB         -1.1650   -4.2170   22.5200 C.3       1 ONL         0.0035
     13 CG         -0.5280   -3.1790   23.4260 C.3       1 ONL         0.0250
     14 CD          0.5010   -3.8320   24.3310 C.2       1 ONL         0.1021
     15 OD          0.3350   -4.9660   24.7740 O.2       1 ONL        -0.3919
     16 CE          1.7470   -3.0460   24.6900 C.3       1 ONL         0.0094
     17 N          -1.9820   -3.8010   19.2670 N.am      1 LEU        -0.2637
     18 CA         -1.9960   -4.3600   17.9250 C.3       1 LEU         0.1314
     19 C          -0.6270   -4.1680   17.2900 C.2       1 LEU         0.2064
     20 O           0.0930   -3.2540   17.6730 O.2       1 LEU        -0.3942
     21 CB         -2.9780   -3.5050   17.0930 C.3       1 LEU        -0.0101
     22 CG         -4.2790   -3.1110   17.8190 C.3       1 LEU        -0.0425
     23 CD1        -4.8790   -1.8360   17.2060 C.3       1 LEU        -0.0625
     24 CD2        -5.3160   -4.2300   17.7960 C.3       1 LEU        -0.0625
     25 N          -0.1980   -4.9400   16.2810 N.am      1 PRO        -0.2498
     26 CA          1.0980   -4.7510   15.5910 C.3       1 PRO         0.1338
     27 C           1.0900   -3.3160   15.0200 C.2       1 PRO         0.2043
     28 O           0.0210   -2.7850   14.7050 O.2       1 PRO        -0.3944
     29 CB          1.0620   -5.7520   14.4430 C.3       1 PRO        -0.0104
     30 CG         -0.4250   -6.0640   14.2650 C.3       1 PRO        -0.0281
     31 CD         -0.9630   -6.0470   15.6900 C.3       1 PRO         0.0369
     32 N           2.2580   -2.6820   14.9120 N.am      1 PHE        -0.2606
     33 CA          2.3080   -1.2990   14.3870 C.3       1 PHE         0.1515
     34 C           1.7280   -1.3050   12.9590 C.2       1 PHE         0.2591
     35 O           1.8670   -2.2860   12.2280 O.2       1 PHE        -0.3678
     36 CB          3.7280   -0.7270   14.4140 C.3       1 PHE         0.0228
     37 CG          4.5890   -1.3700   13.3270 C.ar      1 PHE        -0.0384
     38 CD1         5.3880   -2.4570   13.6320 C.ar      1 PHE        -0.0601
     39 CD2         4.5610   -0.8780   12.0260 C.ar      1 PHE        -0.0601
     40 CE1         6.1680   -3.0540   12.6430 C.ar      1 PHE        -0.0686
     41 CE2         5.3320   -1.4700   11.0250 C.ar      1 PHE        -0.0686
     42 CZ          6.1380   -2.5630   11.3370 C.ar      1 PHE        -0.0687
     43 H1         -6.3930   -1.2798   22.4697 H         1 PRO         0.2035
     44 H2         -7.3967   -2.0294   23.5375 H         1 PRO         0.2035
     45 H3         -5.5964   -3.2524   24.0445 H         1 PRO         0.1099
     46 H4         -6.6850   -5.1460   23.2310 H         1 PRO         0.0347
     47 H5         -5.6095   -5.0015   21.7996 H         1 PRO         0.0347
     48 H6         -8.4910   -4.5851   21.9324 H         1 PRO         0.0320
     49 H7         -7.4161   -4.4452   20.5000 H         1 PRO         0.0320
     50 H8         -7.3566   -2.1355   20.6513 H         1 PRO         0.0814
     51 H9         -8.7419   -2.2885   21.7845 H         1 PRO         0.0814
     52 H10        -3.7400   -4.5521   22.8753 H         1 ONL         0.1885
     53 H11        -2.0559   -2.5727   21.4273 H         1 ONL         0.0801
     54 H12        -0.3887   -4.6376   21.8639 H         1 ONL         0.0337
     55 H13        -1.5910   -5.0168   23.1436 H         1 ONL         0.0337
     56 H14        -1.3075   -2.7082   24.0430 H         1 ONL         0.0496
     57 H15        -0.0353   -2.4125   22.8098 H         1 ONL         0.0496
     58 H16         2.3870   -3.6533   25.3469 H         1 ONL         0.0458
     59 H17         1.4596   -2.1210   25.2113 H         1 ONL         0.0458
     60 H18         2.2984   -2.7935   23.7723 H         1 ONL         0.0458
     61 H19        -1.6557   -2.8625   19.3796 H         1 LEU         0.1883
     62 H20        -2.2868   -5.4208   17.9384 H         1 LEU         0.0800
     63 H21        -3.2496   -4.0766   16.1933 H         1 LEU         0.0315
     64 H22        -2.4594   -2.5810   16.7977 H         1 LEU         0.0315
     65 H23        -4.0274   -2.9033   18.8695 H         1 LEU         0.0298
     66 H24        -5.8051   -1.5738   17.7386 H         1 LEU         0.0232
     67 H25        -5.1041   -2.0108   16.1436 H         1 LEU         0.0232
     68 H26        -4.1575   -1.0107   17.2971 H         1 LEU         0.0232
     69 H27        -4.8827   -5.1405   18.2355 H         1 LEU         0.0232
     70 H28        -5.6154   -4.4312   16.7568 H         1 LEU         0.0232
     71 H29        -6.1975   -3.9251   18.3791 H         1 LEU         0.0232
     72 H30         1.9587   -4.9166   16.2557 H         1 PRO         0.0802
     73 H31         1.6235   -6.6620   14.7009 H         1 PRO         0.0313
     74 H32         1.4805   -5.3102   13.5267 H         1 PRO         0.0313
     75 H33        -0.5672   -7.0519   13.8025 H         1 PRO         0.0287
     76 H34        -0.9172   -5.2966   13.6494 H         1 PRO         0.0287
     77 H35        -2.0438   -5.8431   15.7086 H         1 PRO         0.0524
     78 H36        -0.7600   -6.9964   16.2071 H         1 PRO         0.0524
     79 H37         3.1024   -3.1421   15.1864 H         1 PHE         0.1886
     80 H38         1.6747   -0.6610   15.0209 H         1 PHE         0.0840
     81 O           1.0703   -0.2391   12.5116 O.3       1 PHE        -0.2908
     82 H39         4.1792   -0.9263   15.3972 H         1 PHE         0.0475
     83 H40         3.6834    0.3589   14.2443 H         1 PHE         0.0475
     84 H41         5.4077   -2.8460   14.6436 H         1 PHE         0.0557
     85 H42         3.9341   -0.0264   11.7876 H         1 PHE         0.0557
     86 H43         6.7987   -3.9007   12.8886 H         1 PHE         0.0599
     87 H44         5.3042   -1.0828   10.0129 H         1 PHE         0.0599
     88 H45         6.7405   -3.0309   10.5669 H         1 PHE         0.0559
     89 H46         1.5105    0.1035   11.7426 H         1 PHE         0.2540
@<TRIPOS>BOND
     1    1    2 1  
     2    1    7 1  
     3    2    3 1  
     4    2    5 1  
     5    3    4 2  
     6    3    8 am 
     7    5    6 1  
     8    6    7 1  
     9    8    9 1  
    10    9   10 1  
    11    9   12 1  
    12   10   11 2  
    13   10   17 am 
    14   12   13 1  
    15   13   14 1  
    16   14   15 2  
    17   14   16 1  
    18   17   18 1  
    19   18   19 1  
    20   18   21 1  
    21   19   20 2  
    22   19   25 am 
    23   21   22 1  
    24   22   23 1  
    25   22   24 1  
    26   25   26 1  
    27   25   31 1  
    28   26   27 1  
    29   26   29 1  
    30   27   28 2  
    31   27   32 am 
    32   29   30 1  
    33   30   31 1  
    34   32   33 1  
    35   33   34 1  
    36   33   36 1  
    37   34   35 2  
    38   36   37 1  
    39   37   38 ar 
    40   37   39 ar 
    41   38   40 ar 
    42   39   41 ar 
    43   40   42 ar 
    44   41   42 ar 
    45    1   43 1  
    46    1   44 1  
    47    2   45 1  
    48    5   46 1  
    49    5   47 1  
    50    6   48 1  
    51    6   49 1  
    52    7   50 1  
    53    7   51 1  
    54    8   52 1  
    55    9   53 1  
    56   12   54 1  
    57   12   55 1  
    58   13   56 1  
    59   13   57 1  
    60   16   58 1  
    61   16   59 1  
    62   16   60 1  
    63   17   61 1  
    64   18   62 1  
    65   21   63 1  
    66   21   64 1  
    67   22   65 1  
    68   23   66 1  
    69   23   67 1  
    70   23   68 1  
    71   24   69 1  
    72   24   70 1  
    73   24   71 1  
    74   26   72 1  
    75   29   73 1  
    76   29   74 1  
    77   30   75 1  
    78   30   76 1  
    79   31   77 1  
    80   31   78 1  
    81   32   79 1  
    82   33   80 1  
    83   34   81 1  
    84   36   82 1  
    85   36   83 1  
    86   38   84 1  
    87   39   85 1  
    88   40   86 1  
    89   41   87 1  
    90   42   88 1  
    91   81   89 1  
@<TRIPOS>SUBSTRUCTURE
     1 PRO         1

