### 
### Created by X-TOOL on Mon Sep 10 21:12:55 2018
### 

@<TRIPOS>MOLECULE
2q54_ligand
   92    95     1     0     0
SMALL
GAST_HUCK


@<TRIPOS>ATOM
      1 O1         21.9950    4.1030   19.0340 O.2       1 MU1        -0.3972
      2 C3         21.9140    3.3640   19.9990 C.2       1 MU1         0.1751
      3 C2         21.6800    3.8920   21.3880 C.3       1 MU1         0.0258
      4 N1         22.0460    2.0390   19.8830 N.am      1 MU1        -0.2656
      5 C10        22.3640    1.3790   18.6270 C.3       1 MU1         0.1330
      6 C13        23.7410    0.7170   18.6880 C.3       1 MU1        -0.0063
      7 C14        24.0060   -0.0890   17.4180 C.3       1 MU1        -0.0584
      8 C15        24.8440    1.7510   18.9380 C.3       1 MU1        -0.0584
      9 C11        21.2890    0.3830   18.2760 C.2       1 MU1         0.2023
     10 O2         21.2460   -0.7000   18.8380 O.2       1 MU1        -0.3945
     11 N3         20.4190    0.8130   17.3670 N.am      1 MU1        -0.2799
     12 C12        19.1950    0.1150   16.9830 C.3       1 MU1         0.0540
     13 C22        17.9180    0.8490   17.4210 C.3       1 MU1         0.0040
     14 C20        18.0050    1.3720   18.8350 C.ar      1 MU1        -0.0408
     15 C21        17.7930    0.5270   19.9120 C.ar      1 MU1        -0.0603
     16 C16        17.8820    1.0220   21.2130 C.ar      1 MU1        -0.0686
     17 C17        18.1760    2.3660   21.4320 C.ar      1 MU1        -0.0687
     18 C18        18.3760    3.2100   20.3510 C.ar      1 MU1        -0.0686
     19 C19        18.2880    2.7120   19.0560 C.ar      1 MU1        -0.0603
     20 C23        19.0840    0.0230   15.4800 C.3       1 MU1         0.0004
     21 C24        20.3240   -0.4710   14.7690 C.3       1 MU1         0.0821
     22 O4         20.1560   -0.1430   13.3740 O.3       1 MU1        -0.3893
     23 C25        20.5530   -1.9740   14.9720 C.3       1 MU1         0.0774
     24 C29        21.8940   -2.3610   14.3460 C.3       1 MU1         0.0064
     25 C4         22.1140   -3.8540   14.4610 C.ar      1 MU1        -0.0408
     26 C5         21.9940   -4.6770   13.3350 C.ar      1 MU1        -0.0603
     27 C6         22.1850   -6.0530   13.4490 C.ar      1 MU1        -0.0686
     28 C7         22.4970   -6.6080   14.6880 C.ar      1 MU1        -0.0687
     29 C8         22.6100   -5.7840   15.8060 C.ar      1 MU1        -0.0686
     30 C9         22.4180   -4.4100   15.6990 C.ar      1 MU1        -0.0603
     31 N4         19.4970   -2.8280   14.4180 N.am      1 MU1        -0.2770
     32 C26        18.8020   -3.7360   15.1240 C.2       1 MU1         0.2129
     33 O5         18.8420   -3.8510   16.3450 O.2       1 MU1        -0.3937
     34 C27        17.9480   -4.7220   14.3540 C.3       1 MU1         0.2016
     35 C32        18.4220   -6.1510   14.6110 C.3       1 MU1         0.1053
     36 O28        18.0250   -4.5340   12.9350 O.3       1 MU1        -0.2316
     37 C30        18.3380   -5.8110   12.3450 C.2       1 MU1         0.3556
     38 O30        18.3490   -5.9640   11.1580 O.2       1 MU1        -0.3667
     39 N31        18.5660   -6.7030   13.2790 N.am      1 MU1        -0.1889
     40 C33        18.9390   -8.0430   13.0270 C.ar      1 MU1         0.0770
     41 C38        18.4250   -8.7490   11.9420 C.ar      1 MU1        -0.0365
     42 C37        18.8120  -10.0690   11.7190 C.ar      1 MU1        -0.0697
     43 C36        19.7060  -10.7120   12.5770 C.ar      1 MU1        -0.0585
     44 C34        19.8410   -8.6960   13.8800 C.ar      1 MU1        -0.0225
     45 C35        20.2320  -10.0250   13.6680 C.ar      1 MU1         0.0187
     46 C39        21.2010  -10.6950   14.6150 C.2       1 MU1         0.1264
     47 O39        21.5190  -10.1410   15.6630 O.2       1 MU1        -0.3787
     48 C40        21.7700  -12.0480   14.2840 C.3       1 MU1         0.0106
     49 H1         21.6422    3.0525   22.0978 H         1 MU1         0.0467
     50 H2         20.7263    4.4393   21.4164 H         1 MU1         0.0467
     51 H3         22.5004    4.5702   21.6655 H         1 MU1         0.0467
     52 H4         21.9201    1.4747   20.6989 H         1 MU1         0.1883
     53 H5         22.3915    2.1432   17.8363 H         1 MU1         0.0802
     54 H6         23.7413    0.0171   19.5366 H         1 MU1         0.0343
     55 H7         24.9997   -0.5566   17.4812 H         1 MU1         0.0234
     56 H8         23.9702    0.5796   16.5452 H         1 MU1         0.0234
     57 H9         23.2391   -0.8705   17.3130 H         1 MU1         0.0234
     58 H10        24.6201    2.3107   19.8581 H         1 MU1         0.0234
     59 H11        24.8932    2.4474   18.0880 H         1 MU1         0.0234
     60 H12        25.8104    1.2371   19.0475 H         1 MU1         0.0234
     61 H13        20.6181    1.6807   16.9115 H         1 MU1         0.1856
     62 H14        19.2138   -0.8921   17.4250 H         1 MU1         0.0579
     63 H15        17.0703    0.1512   17.3550 H         1 MU1         0.0448
     64 H16        17.7485    1.6972   16.7415 H         1 MU1         0.0448
     65 H17        17.5582   -0.5178   19.7439 H         1 MU1         0.0557
     66 H18        17.7220    0.3593   22.0558 H         1 MU1         0.0599
     67 H19        18.2480    2.7499   22.4432 H         1 MU1         0.0559
     68 H20        18.6009    4.2576   20.5151 H         1 MU1         0.0599
     69 H21        18.4416    3.3756   18.2128 H         1 MU1         0.0557
     70 H22        18.8483    1.0260   15.0947 H         1 MU1         0.0315
     71 H23        18.2591   -0.6646   15.2417 H         1 MU1         0.0315
     72 H24        21.2008    0.0636   15.1632 H         1 MU1         0.0619
     73 H25        20.0627    0.7977   13.2800 H         1 MU1         0.2099
     74 H26        20.6007   -2.1622   16.0547 H         1 MU1         0.0604
     75 H27        22.7049   -1.8331   14.8692 H         1 MU1         0.0449
     76 H28        21.8952   -2.0745   13.2840 H         1 MU1         0.0449
     77 H29        21.7518   -4.2430   12.3717 H         1 MU1         0.0557
     78 H30        22.0911   -6.6892   12.5763 H         1 MU1         0.0599
     79 H31        22.6513   -7.6768   14.7821 H         1 MU1         0.0559
     80 H32        22.8501   -6.2182   16.7698 H         1 MU1         0.0599
     81 H33        22.5048   -3.7772   16.5748 H         1 MU1         0.0557
     82 H34        19.2790   -2.7276   13.4472 H         1 MU1         0.1858
     83 H35        16.9039   -4.6095   14.6812 H         1 MU1         0.0919
     84 H36        17.6767   -6.7143   15.1918 H         1 MU1         0.0641
     85 H37        19.3836   -6.1565   15.1451 H         1 MU1         0.0641
     86 H38        17.7223   -8.2705   11.2694 H         1 MU1         0.0539
     87 H39        18.4125  -10.6051   10.8657 H         1 MU1         0.0589
     88 H40        19.9896  -11.7422   12.3946 H         1 MU1         0.0541
     89 H41        20.2475   -8.1569   14.7280 H         1 MU1         0.0555
     90 H42        22.4496  -12.3666   15.0881 H         1 MU1         0.0450
     91 H43        22.3251  -11.9905   13.3361 H         1 MU1         0.0450
     92 H44        20.9513  -12.7761   14.1859 H         1 MU1         0.0450
@<TRIPOS>BOND
     1    1    2 2  
     2    2    3 1  
     3    2    4 am 
     4    4    5 1  
     5    5    6 1  
     6    5    9 1  
     7    6    7 1  
     8    6    8 1  
     9    9   10 2  
    10    9   11 am 
    11   11   12 1  
    12   12   13 1  
    13   12   20 1  
    14   13   14 1  
    15   14   15 ar 
    16   14   19 ar 
    17   15   16 ar 
    18   16   17 ar 
    19   17   18 ar 
    20   18   19 ar 
    21   20   21 1  
    22   21   22 1  
    23   21   23 1  
    24   23   24 1  
    25   23   31 1  
    26   24   25 1  
    27   25   26 ar 
    28   25   30 ar 
    29   26   27 ar 
    30   27   28 ar 
    31   28   29 ar 
    32   29   30 ar 
    33   31   32 am 
    34   32   33 2  
    35   32   34 1  
    36   34   35 1  
    37   34   36 1  
    38   35   39 1  
    39   36   37 1  
    40   37   38 2  
    41   37   39 am 
    42   39   40 1  
    43   40   41 ar 
    44   40   44 ar 
    45   41   42 ar 
    46   42   43 ar 
    47   43   45 ar 
    48   44   45 ar 
    49   45   46 1  
    50   46   47 2  
    51   46   48 1  
    52    3   49 1  
    53    3   50 1  
    54    3   51 1  
    55    4   52 1  
    56    5   53 1  
    57    6   54 1  
    58    7   55 1  
    59    7   56 1  
    60    7   57 1  
    61    8   58 1  
    62    8   59 1  
    63    8   60 1  
    64   11   61 1  
    65   12   62 1  
    66   13   63 1  
    67   13   64 1  
    68   15   65 1  
    69   16   66 1  
    70   17   67 1  
    71   18   68 1  
    72   19   69 1  
    73   20   70 1  
    74   20   71 1  
    75   21   72 1  
    76   22   73 1  
    77   23   74 1  
    78   24   75 1  
    79   24   76 1  
    80   26   77 1  
    81   27   78 1  
    82   28   79 1  
    83   29   80 1  
    84   30   81 1  
    85   31   82 1  
    86   34   83 1  
    87   35   84 1  
    88   35   85 1  
    89   41   86 1  
    90   42   87 1  
    91   43   88 1  
    92   44   89 1  
    93   48   90 1  
    94   48   91 1  
    95   48   92 1  
@<TRIPOS>SUBSTRUCTURE
     1 MU1         1

