### 
### Created by X-TOOL on Mon Sep 10 21:12:55 2018
### 

@<TRIPOS>MOLECULE
2q55_ligand
   93    97     1     0     0
SMALL
GAST_HUCK


@<TRIPOS>ATOM
      1 O5         18.6510   32.5180   13.8040 O.2       1 MU0        -0.3937
      2 C26        18.3230   32.3600   14.9860 C.2       1 MU0         0.2129
      3 C27        17.0020   32.9580   15.4550 C.3       1 MU0         0.2016
      4 O28        16.5830   32.5760   16.7840 O.3       1 MU0        -0.2316
      5 C30        15.9920   33.7530   17.3750 C.2       1 MU0         0.3556
      6 O30        15.3650   33.7590   18.4220 O.2       1 MU0        -0.3667
      7 N31        16.2380   34.8040   16.6120 N.am      1 MU0        -0.1898
      8 C32        17.0210   34.4920   15.4250 C.3       1 MU0         0.1053
      9 C33        15.9240   36.1130   17.0290 C.ar      1 MU0         0.0713
     10 C38        14.6340   36.4350   17.4360 C.ar      1 MU0        -0.0411
     11 C37        14.3410   37.7280   17.8560 C.ar      1 MU0        -0.0756
     12 C36        15.3310   38.6990   17.8820 C.ar      1 MU0        -0.0773
     13 C35        16.6190   38.3750   17.4850 C.ar      1 MU0        -0.0756
     14 C34        16.9130   37.0860   17.0580 C.ar      1 MU0        -0.0411
     15 N4         19.0720   31.6510   15.8420 N.am      1 MU0        -0.2770
     16 C25        20.2740   30.9420   15.4000 C.3       1 MU0         0.0774
     17 C29        21.5180   31.4370   16.1380 C.3       1 MU0         0.0064
     18 C4         21.7520   32.8990   15.8760 C.ar      1 MU0        -0.0408
     19 C9         22.1980   33.3110   14.6260 C.ar      1 MU0        -0.0603
     20 C8         22.4140   34.6550   14.3870 C.ar      1 MU0        -0.0686
     21 C5         21.5200   33.8440   16.8840 C.ar      1 MU0        -0.0603
     22 C6         21.7370   35.2000   16.6380 C.ar      1 MU0        -0.0686
     23 C7         22.1830   35.6040   15.3860 C.ar      1 MU0        -0.0687
     24 C24        20.1340   29.4300   15.6030 C.3       1 MU0         0.0821
     25 O4         19.9170   29.1300   16.9890 O.3       1 MU0        -0.3893
     26 C23        18.9610   28.8070   14.8480 C.3       1 MU0         0.0004
     27 C12        19.1670   28.6470   13.3470 C.3       1 MU0         0.0540
     28 N3         20.4560   28.0440   13.0440 N.am      1 MU0        -0.2800
     29 C11        21.3020   28.5020   12.1140 C.2       1 MU0         0.2023
     30 O2         21.1400   29.5080   11.4360 O.2       1 MU0        -0.3945
     31 C10        22.5040   27.6150   11.8970 C.3       1 MU0         0.1362
     32 C13        23.7960   28.4390   11.9200 C.3       1 MU0        -0.0063
     33 C14        23.8640   29.2340   13.2210 C.3       1 MU0        -0.0584
     34 C15        24.9990   27.5290   11.7340 C.3       1 MU0        -0.0584
     35 N1         22.3800   26.8110   10.6580 N.am      1 MU0        -0.2377
     36 C2         22.3410   27.5590    9.3990 C.3       1 MU0         0.0388
     37 C39        23.0260   26.6630    8.3790 C.3       1 MU0        -0.0125
     38 C3         22.2320   25.4820   10.7600 C.2       1 MU0         0.2622
     39 O1         22.1330   24.9370   11.8530 O.2       1 MU0        -0.4005
     40 N2         22.1630   24.7630    9.6380 N.am      1 MU0        -0.2728
     41 C1         22.2630   25.3450    8.3120 C.3       1 MU0         0.0330
     42 C22        18.0310   27.7420   12.8820 C.3       1 MU0         0.0040
     43 C20        18.0500   27.5000   11.3980 C.ar      1 MU0        -0.0408
     44 C19        18.6210   26.3450   10.8760 C.ar      1 MU0        -0.0603
     45 C18        18.6170   26.1360    9.5030 C.ar      1 MU0        -0.0686
     46 C17        18.0340   27.0700    8.6600 C.ar      1 MU0        -0.0687
     47 C16        17.4520   28.2100    9.1920 C.ar      1 MU0        -0.0686
     48 C21        17.4660   28.4270   10.5620 C.ar      1 MU0        -0.0603
     49 H1         16.2326   32.6086   14.7508 H         1 MU0         0.0919
     50 H2         16.5460   34.8839   14.5135 H         1 MU0         0.0641
     51 H3         18.0456   34.8847   15.5025 H         1 MU0         0.0641
     52 H4         13.8574   35.6788   17.4259 H         1 MU0         0.0502
     53 H5         13.3326   37.9785   18.1650 H         1 MU0         0.0577
     54 H6         15.0989   39.7055   18.2109 H         1 MU0         0.0487
     55 H7         17.3980   39.1285   17.5077 H         1 MU0         0.0577
     56 H8         17.9211   36.8388   16.7456 H         1 MU0         0.0502
     57 H9         18.8037   31.6053   16.8042 H         1 MU0         0.1858
     58 H10        20.4075   31.1372   14.3257 H         1 MU0         0.0604
     59 H11        22.3923   30.8652   15.7936 H         1 MU0         0.0449
     60 H12        21.3810   31.2823   17.2184 H         1 MU0         0.0449
     61 H13        22.3754   32.5826   13.8431 H         1 MU0         0.0557
     62 H14        22.7666   34.9764   13.4136 H         1 MU0         0.0599
     63 H15        21.1709   33.5206   17.8579 H         1 MU0         0.0557
     64 H16        21.5591   35.9322   17.4173 H         1 MU0         0.0599
     65 H17        22.3518   36.6556   15.1841 H         1 MU0         0.0559
     66 H18        21.0664   28.9543   15.2648 H         1 MU0         0.0619
     67 H19        19.8323   28.1901   17.0989 H         1 MU0         0.2099
     68 H20        18.0785   29.4448   15.0042 H         1 MU0         0.0315
     69 H21        18.7731   27.8103   15.2738 H         1 MU0         0.0315
     70 H22        19.1031   29.6263   12.8502 H         1 MU0         0.0579
     71 H23        20.7273   27.2345   13.5647 H         1 MU0         0.1856
     72 H24        22.5490   26.9089   12.7392 H         1 MU0         0.0802
     73 H25        23.7745   29.1515   11.0822 H         1 MU0         0.0342
     74 H26        24.7905   29.8266   13.2405 H         1 MU0         0.0234
     75 H27        23.8540   28.5410   14.0752 H         1 MU0         0.0234
     76 H28        22.9966   29.9074   13.2850 H         1 MU0         0.0234
     77 H29        24.9010   26.9810   10.7852 H         1 MU0         0.0234
     78 H30        25.0495   26.8129   12.5674 H         1 MU0         0.0234
     79 H31        25.9172   28.1344   11.7146 H         1 MU0         0.0234
     80 H32        22.8817   28.5116    9.4998 H         1 MU0         0.0522
     81 H33        21.3010   27.7574    9.1007 H         1 MU0         0.0522
     82 H34        24.0654   26.4759    8.6866 H         1 MU0         0.0304
     83 H35        23.0174   27.1485    7.3920 H         1 MU0         0.0304
     84 H36        22.0361   23.7740    9.7145 H         1 MU0         0.1845
     85 H37        22.7957   24.6487    7.6476 H         1 MU0         0.0517
     86 H38        21.2528   25.5282    7.9172 H         1 MU0         0.0517
     87 H39        17.0738   28.2137   13.1490 H         1 MU0         0.0448
     88 H40        18.1191   26.7741   13.3972 H         1 MU0         0.0448
     89 H41        19.0672   25.6111   11.5374 H         1 MU0         0.0557
     90 H42        19.0700   25.2420    9.0900 H         1 MU0         0.0599
     91 H43        18.0334   26.9091    7.5880 H         1 MU0         0.0559
     92 H44        16.9843   28.9345    8.5352 H         1 MU0         0.0599
     93 H45        17.0184   29.3241   10.9743 H         1 MU0         0.0557
@<TRIPOS>BOND
     1    1    2 2  
     2    2    3 1  
     3    2   15 am 
     4    3    4 1  
     5    3    8 1  
     6    4    5 1  
     7    5    6 2  
     8    5    7 am 
     9    7    8 1  
    10    7    9 1  
    11    9   10 ar 
    12    9   14 ar 
    13   10   11 ar 
    14   11   12 ar 
    15   12   13 ar 
    16   13   14 ar 
    17   15   16 1  
    18   16   17 1  
    19   16   24 1  
    20   17   18 1  
    21   18   19 ar 
    22   18   21 ar 
    23   19   20 ar 
    24   20   23 ar 
    25   21   22 ar 
    26   22   23 ar 
    27   24   25 1  
    28   24   26 1  
    29   26   27 1  
    30   27   28 1  
    31   27   42 1  
    32   28   29 am 
    33   29   30 2  
    34   29   31 1  
    35   31   32 1  
    36   31   35 1  
    37   32   33 1  
    38   32   34 1  
    39   35   36 1  
    40   35   38 am 
    41   36   37 1  
    42   37   41 1  
    43   38   39 2  
    44   38   40 am 
    45   40   41 1  
    46   42   43 1  
    47   43   44 ar 
    48   43   48 ar 
    49   44   45 ar 
    50   45   46 ar 
    51   46   47 ar 
    52   47   48 ar 
    53    3   49 1  
    54    8   50 1  
    55    8   51 1  
    56   10   52 1  
    57   11   53 1  
    58   12   54 1  
    59   13   55 1  
    60   14   56 1  
    61   15   57 1  
    62   16   58 1  
    63   17   59 1  
    64   17   60 1  
    65   19   61 1  
    66   20   62 1  
    67   21   63 1  
    68   22   64 1  
    69   23   65 1  
    70   24   66 1  
    71   25   67 1  
    72   26   68 1  
    73   26   69 1  
    74   27   70 1  
    75   28   71 1  
    76   31   72 1  
    77   32   73 1  
    78   33   74 1  
    79   33   75 1  
    80   33   76 1  
    81   34   77 1  
    82   34   78 1  
    83   34   79 1  
    84   36   80 1  
    85   36   81 1  
    86   37   82 1  
    87   37   83 1  
    88   40   84 1  
    89   41   85 1  
    90   41   86 1  
    91   42   87 1  
    92   42   88 1  
    93   44   89 1  
    94   45   90 1  
    95   46   91 1  
    96   47   92 1  
    97   48   93 1  
@<TRIPOS>SUBSTRUCTURE
     1 MU0         1

