### 
### Created by X-TOOL on Mon Sep 10 21:12:55 2018
### 

@<TRIPOS>MOLECULE
2q5k_ligand
   94    97     1     0     0
SMALL
GAST_HUCK


@<TRIPOS>ATOM
      1 C1         22.7850   24.6920    7.6740 C.3       1 AB1         0.0330
      2 C2         22.8720   26.9600    8.6950 C.3       1 AB1         0.0388
      3 N1         22.8430   26.2470    9.9800 N.am      1 AB1        -0.2377
      4 C3         22.6460   24.9220   10.1120 C.2       1 AB1         0.2622
      5 N2         22.5750   24.1700    9.0120 N.am      1 AB1        -0.2728
      6 C4         22.2230   32.6130   15.1280 C.ar      1 AB1        -0.0408
      7 C5         22.0280   33.4870   16.1990 C.ar      1 AB1        -0.0603
      8 C6         22.2160   34.8690   16.0550 C.ar      1 AB1        -0.0686
      9 C7         22.6080   35.3800   14.8310 C.ar      1 AB1        -0.0687
     10 C8         22.8160   34.5020   13.7580 C.ar      1 AB1        -0.0686
     11 C9         22.6240   33.1250   13.8940 C.ar      1 AB1        -0.0603
     12 O1         22.5470   24.3900   11.2140 O.2       1 AB1        -0.4005
     13 C10        22.9900   27.1020   11.1820 C.3       1 AB1         0.1362
     14 C11        21.7670   27.9750   11.3490 C.2       1 AB1         0.2023
     15 N3         20.8990   27.5420   12.2660 N.am      1 AB1        -0.2800
     16 C12        19.6460   28.2150   12.5740 C.3       1 AB1         0.0540
     17 C13        24.3250   27.8640   11.1850 C.3       1 AB1        -0.0063
     18 C14        24.4610   28.7190   12.4490 C.3       1 AB1        -0.0584
     19 C15        25.5050   26.8940   11.0710 C.3       1 AB1        -0.0584
     20 O2         21.5840   28.9760   10.6680 O.2       1 AB1        -0.3945
     21 C16        17.8410   27.5710    8.3780 C.ar      1 AB1        -0.0686
     22 C17        18.4630   26.4140    7.9150 C.ar      1 AB1        -0.0687
     23 C18        19.0920   25.5610    8.8140 C.ar      1 AB1        -0.0686
     24 C19        19.0850   25.8600   10.1690 C.ar      1 AB1        -0.0603
     25 C20        18.4880   27.0370   10.6270 C.ar      1 AB1        -0.0408
     26 C21        17.8540   27.8790    9.7300 C.ar      1 AB1        -0.0603
     27 C22        18.4610   27.3660   12.0980 C.3       1 AB1         0.0040
     28 C23        19.4440   28.4370   14.0760 C.3       1 AB1         0.0004
     29 C24        20.6100   29.1040   14.8020 C.3       1 AB1         0.0821
     30 C25        20.7920   30.6000   14.5020 C.3       1 AB1         0.0774
     31 N4         19.5940   31.3660   14.8060 N.am      1 AB1        -0.2772
     32 C26        18.7790   31.8830   13.8680 C.2       1 AB1         0.2068
     33 C27        17.5640   32.6660   14.3130 C.3       1 AB1         0.1556
     34 O3         17.3860   32.6890   15.7200 O.3       1 AB1        -0.3054
     35 C28        16.6480   33.6960   16.2900 C.ar      1 AB1         0.0966
     36 O4         20.4030   28.9020   16.2120 O.3       1 AB1        -0.3893
     37 C29        21.9980   31.1230   15.3060 C.3       1 AB1         0.0064
     38 O5         18.9350   31.7700   12.6620 O.2       1 AB1        -0.3941
     39 C30        15.2580   33.6350   16.2760 C.ar      1 AB1        -0.0230
     40 C31        14.5200   34.6650   16.8560 C.ar      1 AB1        -0.0759
     41 C32        15.1560   35.7480   17.4580 C.ar      1 AB1        -0.0862
     42 C33        16.5400   35.8040   17.4710 C.ar      1 AB1        -0.0759
     43 C34        17.2900   34.7730   16.8980 C.ar      1 AB1        -0.0230
     44 C35        18.7990   34.8370   16.9370 C.3       1 AB1        -0.0348
     45 C36        14.5440   32.4870   15.6100 C.3       1 AB1        -0.0348
     46 C37        23.5400   26.0140    7.7090 C.3       1 AB1        -0.0125
     47 H1         21.8083   24.8497    7.1933 H         1 AB1         0.0517
     48 H2         23.3668   23.9623    7.0917 H         1 AB1         0.0517
     49 H3         23.4524   27.8899    8.7863 H         1 AB1         0.0522
     50 H4         21.8496   27.1967    8.3655 H         1 AB1         0.0522
     51 H5         22.3665   23.1974    9.1147 H         1 AB1         0.1845
     52 H6         21.7253   33.0894   17.1609 H         1 AB1         0.0557
     53 H7         22.0552   35.5323   16.8971 H         1 AB1         0.0599
     54 H8         22.7527   36.4466   14.7029 H         1 AB1         0.0559
     55 H9         23.1330   34.9007   12.8011 H         1 AB1         0.0599
     56 H10        22.7846   32.4626   13.0511 H         1 AB1         0.0557
     57 H11        23.0178   26.4317   12.0537 H         1 AB1         0.0802
     58 H12        21.1225   26.7077   12.7700 H         1 AB1         0.1856
     59 H13        19.6370   29.1875   12.0601 H         1 AB1         0.0579
     60 H14        24.3414   28.5327   10.3117 H         1 AB1         0.0342
     61 H15        25.4221   29.2536   12.4284 H         1 AB1         0.0234
     62 H16        24.4212   28.0704   13.3365 H         1 AB1         0.0234
     63 H17        23.6374   29.4470   12.4897 H         1 AB1         0.0234
     64 H18        25.3943   26.2874   10.1601 H         1 AB1         0.0234
     65 H19        25.5236   26.2342   11.9509 H         1 AB1         0.0234
     66 H20        26.4445   27.4638   11.0200 H         1 AB1         0.0234
     67 H21        17.3445   28.2337    7.6784 H         1 AB1         0.0599
     68 H22        18.4565   26.1796    6.8567 H         1 AB1         0.0559
     69 H23        19.5867   24.6647    8.4577 H         1 AB1         0.0599
     70 H24        19.5446   25.1776   10.8749 H         1 AB1         0.0557
     71 H25        17.3671   28.7802   10.0847 H         1 AB1         0.0557
     72 H26        17.5336   27.9178   12.3111 H         1 AB1         0.0448
     73 H27        18.4640   26.4220   12.6627 H         1 AB1         0.0448
     74 H28        19.2693   27.4568   14.5435 H         1 AB1         0.0315
     75 H29        18.5546   29.0704   14.2089 H         1 AB1         0.0315
     76 H30        21.5358   28.5927   14.4996 H         1 AB1         0.0619
     77 H31        21.0070   30.7162   13.4295 H         1 AB1         0.0604
     78 H32        19.3624   31.5173   15.7670 H         1 AB1         0.1857
     79 H33        16.6718   32.2119   13.8572 H         1 AB1         0.0853
     80 H34        17.6695   33.7021   13.9591 H         1 AB1         0.0853
     81 H35        21.1563   29.2266   16.6912 H         1 AB1         0.2099
     82 H36        21.8240   30.9190   16.3728 H         1 AB1         0.0449
     83 H37        22.9003   30.5892   14.9729 H         1 AB1         0.0449
     84 H38        13.4370   34.6228   16.8384 H         1 AB1         0.0471
     85 H39        14.5727   36.5406   17.9126 H         1 AB1         0.0489
     86 H40        17.0427   36.6494   17.9267 H         1 AB1         0.0471
     87 H41        19.2166   33.9477   16.4423 H         1 AB1         0.0366
     88 H42        19.1378   34.8676   17.9831 H         1 AB1         0.0366
     89 H43        19.1413   35.7422   16.4140 H         1 AB1         0.0366
     90 H44        15.2836   31.7762   15.2127 H         1 AB1         0.0366
     91 H45        13.9236   32.8694   14.7861 H         1 AB1         0.0366
     92 H46        13.9038   31.9773   16.3451 H         1 AB1         0.0366
     93 H47        23.5324   26.4661    6.7062 H         1 AB1         0.0304
     94 H48        24.5789   25.8336    8.0221 H         1 AB1         0.0304
@<TRIPOS>BOND
     1    5    1 1  
     2   46    1 1  
     3    3    2 1  
     4    2   46 1  
     5    3    4 am 
     6   13    3 1  
     7    4    5 am 
     8    4   12 2  
     9    6    7 ar 
    10    6   11 ar 
    11   37    6 1  
    12    7    8 ar 
    13    8    9 ar 
    14   10    9 ar 
    15   11   10 ar 
    16   14   13 1  
    17   13   17 1  
    18   15   14 am 
    19   14   20 2  
    20   16   15 1  
    21   16   27 1  
    22   28   16 1  
    23   17   18 1  
    24   17   19 1  
    25   21   22 ar 
    26   26   21 ar 
    27   23   22 ar 
    28   24   23 ar 
    29   25   24 ar 
    30   25   26 ar 
    31   27   25 1  
    32   29   28 1  
    33   30   29 1  
    34   29   36 1  
    35   30   31 1  
    36   30   37 1  
    37   31   32 am 
    38   32   33 1  
    39   32   38 2  
    40   33   34 1  
    41   34   35 1  
    42   35   39 ar 
    43   35   43 ar 
    44   39   40 ar 
    45   39   45 1  
    46   40   41 ar 
    47   41   42 ar 
    48   42   43 ar 
    49   43   44 1  
    50    1   47 1  
    51    1   48 1  
    52    2   49 1  
    53    2   50 1  
    54    5   51 1  
    55    7   52 1  
    56    8   53 1  
    57    9   54 1  
    58   10   55 1  
    59   11   56 1  
    60   13   57 1  
    61   15   58 1  
    62   16   59 1  
    63   17   60 1  
    64   18   61 1  
    65   18   62 1  
    66   18   63 1  
    67   19   64 1  
    68   19   65 1  
    69   19   66 1  
    70   21   67 1  
    71   22   68 1  
    72   23   69 1  
    73   24   70 1  
    74   26   71 1  
    75   27   72 1  
    76   27   73 1  
    77   28   74 1  
    78   28   75 1  
    79   29   76 1  
    80   30   77 1  
    81   31   78 1  
    82   33   79 1  
    83   33   80 1  
    84   36   81 1  
    85   37   82 1  
    86   37   83 1  
    87   40   84 1  
    88   41   85 1  
    89   42   86 1  
    90   44   87 1  
    91   44   88 1  
    92   44   89 1  
    93   45   90 1  
    94   45   91 1  
    95   45   92 1  
    96   46   93 1  
    97   46   94 1  
@<TRIPOS>SUBSTRUCTURE
     1 AB1         1

