### 
### Created by X-TOOL on Mon Sep 10 21:12:57 2018
### 

@<TRIPOS>MOLECULE
2q63_ligand
   86    89     1     0     0
SMALL
GAST_HUCK


@<TRIPOS>ATOM
      1 C1        -12.8660   58.3170    4.2060 C.3       1 1UN         0.0024
      2 C2        -13.3990   58.6880    5.5930 C.3       1 1UN        -0.0261
      3 C3        -14.4810   59.7720    5.5230 C.3       1 1UN        -0.0494
      4 C4        -15.5600   59.4760    4.4800 C.3       1 1UN        -0.0528
      5 C5        -14.9460   59.1400    3.1200 C.3       1 1UN        -0.0526
      6 C6        -13.9890   57.9580    3.2260 C.3       1 1UN        -0.0451
      7 N7        -12.3270   56.0250    5.0420 N.4       1 1UN         0.2562
      8 C8        -12.7860   56.3980    6.4060 C.3       1 1UN         0.0688
      9 C9        -13.9010   57.4470    6.3280 C.3       1 1UN         0.0113
     10 C10       -11.8300   57.2000    4.2950 C.3       1 1UN        -0.0266
     11 C11       -13.3230   55.2150    7.1530 C.2       1 1UN         0.2251
     12 N12       -13.0440   55.1770    8.4670 N.am      1 1UN        -0.2771
     13 C13       -13.4630   54.1340    9.3960 C.3       1 1UN         0.0448
     14 C14       -13.0260   52.7460    8.9140 C.3       1 1UN        -0.0396
     15 C15       -14.9790   54.1650    9.5730 C.3       1 1UN        -0.0396
     16 C16       -12.7880   54.4300   10.7260 C.3       1 1UN        -0.0396
     17 O17       -13.9770   54.3800    6.5530 O.2       1 1UN        -0.3909
     18 C18       -11.2530   55.0150    5.0970 C.3       1 1UN        -0.0009
     19 C19       -11.1990   54.2300    3.7870 C.3       1 1UN         0.1184
     20 C20       -12.3030   53.1870    3.6650 C.3       1 1UN         0.0832
     21 O21        -9.9090   53.6160    3.6190 O.3       1 1UN        -0.3842
     22 N22       -12.2390   52.6530    2.3170 N.am      1 1UN        -0.2808
     23 C23       -12.2340   52.0740    4.7110 C.3       1 1UN         0.0326
     24 C24       -13.2350   52.8230    1.4580 C.2       1 1UN         0.1978
     25 O25       -14.2830   53.3570    1.7680 O.2       1 1UN        -0.3887
     26 C29       -13.0530   52.3440    0.0530 C.ar      1 1UN         0.0427
     27 C30       -12.9560   50.9850   -0.2320 C.ar      1 1UN        -0.0597
     28 C31       -12.7760   50.5380   -1.5400 C.ar      1 1UN        -0.0720
     29 C32       -12.6940   51.4290   -2.6120 C.ar      1 1UN        -0.0355
     30 C33       -12.7780   52.8050   -2.4100 C.ar      1 1UN         0.0948
     31 C34       -12.9650   53.3310   -1.0450 C.ar      1 1UN         0.0036
     32 O38       -12.6950   53.6650   -3.4600 O.3       1 1UN        -0.3358
     33 C39       -13.0670   54.8180   -0.7720 C.3       1 1UN        -0.0293
     34 S74       -13.5890   50.9510    4.5790 S.3       1 1UN        -0.0993
     35 C77       -13.5240   49.7510    3.3790 C.ar      1 1UN         0.0154
     36 C78       -14.7030   49.3020    2.7780 C.ar      1 1UN        -0.0498
     37 C79       -14.6670   48.3170    1.7880 C.ar      1 1UN        -0.0678
     38 C80       -13.4410   47.7750    1.3980 C.ar      1 1UN        -0.0687
     39 C81       -12.2640   48.2260    1.9940 C.ar      1 1UN        -0.0678
     40 C82       -12.3010   49.2110    2.9850 C.ar      1 1UN        -0.0498
     41 H1        -12.3573   59.2060    3.8049 H         1 1UN         0.0355
     42 H2        -12.5586   59.1001    6.1708 H         1 1UN         0.0309
     43 H3        -14.0019   60.7291    5.2691 H         1 1UN         0.0268
     44 H4        -14.9605   59.8523    6.5097 H         1 1UN         0.0268
     45 H5        -16.2055   60.3601    4.3723 H         1 1UN         0.0265
     46 H6        -16.1626   58.6214    4.8213 H         1 1UN         0.0265
     47 H7        -14.3945   60.0163    2.7486 H         1 1UN         0.0265
     48 H8        -15.7516   58.8877    2.4147 H         1 1UN         0.0265
     49 H9        -14.5319   57.0748    3.5935 H         1 1UN         0.0270
     50 H10       -13.5605   57.7396    2.2367 H         1 1UN         0.0270
     51 H11       -13.1116   55.6351    4.5435 H         1 1UN         0.2057
     52 H12       -11.9322   56.8152    6.9601 H         1 1UN         0.1100
     53 H13       -14.7606   57.0255    5.7864 H         1 1UN         0.0348
     54 H14       -14.2102   57.7265    7.3460 H         1 1UN         0.0348
     55 H15       -10.9352   57.5885    4.8033 H         1 1UN         0.0818
     56 H16       -11.5642   56.8833    3.2757 H         1 1UN         0.0818
     57 H17       -12.5017   55.9297    8.8403 H         1 1UN         0.1859
     58 H18       -13.3577   51.9858    9.6365 H         1 1UN         0.0254
     59 H19       -11.9298   52.7161    8.8276 H         1 1UN         0.0254
     60 H20       -13.4770   52.5400    7.9321 H         1 1UN         0.0254
     61 H21       -15.2824   53.3745   10.2752 H         1 1UN         0.0254
     62 H22       -15.4652   53.9979    8.6005 H         1 1UN         0.0254
     63 H23       -15.2818   55.1448    9.9709 H         1 1UN         0.0254
     64 H24       -13.0764   53.6649   11.4618 H         1 1UN         0.0254
     65 H25       -13.1033   55.4209   11.0847 H         1 1UN         0.0254
     66 H26       -11.6961   54.4182   10.5937 H         1 1UN         0.0254
     67 H27       -11.4485   54.3216    5.9282 H         1 1UN         0.0841
     68 H28       -10.2885   55.5186    5.2587 H         1 1UN         0.0841
     69 H29       -11.3382   54.9511    2.9681 H         1 1UN         0.0670
     70 H30       -13.2691   53.6966    3.7954 H         1 1UN         0.0593
     71 H31        -9.2319   54.2777    3.6976 H         1 1UN         0.2101
     72 H32       -11.4264   52.1459    2.0297 H         1 1UN         0.1847
     73 H33       -12.2464   52.5280    5.7129 H         1 1UN         0.0425
     74 H34       -11.2964   51.5156    4.5730 H         1 1UN         0.0425
     75 H35       -13.0214   50.2639    0.5748 H         1 1UN         0.0556
     76 H36       -12.6978   49.4735   -1.7294 H         1 1UN         0.0543
     77 H37       -12.5630   51.0442   -3.6169 H         1 1UN         0.0556
     78 H38       -12.5761   53.1718   -4.2632 H         1 1UN         0.2456
     79 H39       -13.2031   54.9842    0.3068 H         1 1UN         0.0382
     80 H40       -13.9269   55.2330   -1.3183 H         1 1UN         0.0382
     81 H41       -12.1451   55.3163   -1.1063 H         1 1UN         0.0382
     82 H42       -15.6546   49.7221    3.0829 H         1 1UN         0.0565
     83 H43       -15.5858   47.9755    1.3252 H         1 1UN         0.0600
     84 H44       -13.4043   47.0063    0.6346 H         1 1UN         0.0559
     85 H45       -11.3119   47.8091    1.6861 H         1 1UN         0.0600
     86 H46       -11.3815   49.5538    3.4456 H         1 1UN         0.0565
@<TRIPOS>BOND
     1    1    2 1  
     2    1    6 1  
     3   10    1 1  
     4    2    3 1  
     5    2    9 1  
     6    3    4 1  
     7    5    4 1  
     8    6    5 1  
     9    7    8 1  
    10    7   10 1  
    11    7   18 1  
    12    8    9 1  
    13    8   11 1  
    14   11   12 am 
    15   11   17 2  
    16   12   13 1  
    17   13   14 1  
    18   13   15 1  
    19   13   16 1  
    20   18   19 1  
    21   19   20 1  
    22   19   21 1  
    23   20   22 1  
    24   20   23 1  
    25   22   24 am 
    26   23   34 1  
    27   24   25 2  
    28   24   26 1  
    29   26   27 ar 
    30   26   31 ar 
    31   27   28 ar 
    32   28   29 ar 
    33   29   30 ar 
    34   30   31 ar 
    35   30   32 1  
    36   31   33 1  
    37   34   35 1  
    38   35   36 ar 
    39   35   40 ar 
    40   36   37 ar 
    41   37   38 ar 
    42   38   39 ar 
    43   39   40 ar 
    44    1   41 1  
    45    2   42 1  
    46    3   43 1  
    47    3   44 1  
    48    4   45 1  
    49    4   46 1  
    50    5   47 1  
    51    5   48 1  
    52    6   49 1  
    53    6   50 1  
    54    7   51 1  
    55    8   52 1  
    56    9   53 1  
    57    9   54 1  
    58   10   55 1  
    59   10   56 1  
    60   12   57 1  
    61   14   58 1  
    62   14   59 1  
    63   14   60 1  
    64   15   61 1  
    65   15   62 1  
    66   15   63 1  
    67   16   64 1  
    68   16   65 1  
    69   16   66 1  
    70   18   67 1  
    71   18   68 1  
    72   19   69 1  
    73   20   70 1  
    74   21   71 1  
    75   22   72 1  
    76   23   73 1  
    77   23   74 1  
    78   27   75 1  
    79   28   76 1  
    80   29   77 1  
    81   32   78 1  
    82   33   79 1  
    83   33   80 1  
    84   33   81 1  
    85   36   82 1  
    86   37   83 1  
    87   38   84 1  
    88   39   85 1  
    89   40   86 1  
@<TRIPOS>SUBSTRUCTURE
     1 1UN         1

