### 
### Created by X-TOOL on Mon Sep 10 21:12:57 2018
### 

@<TRIPOS>MOLECULE
2q64_ligand
   86    89     1     0     0
SMALL
GAST_HUCK


@<TRIPOS>ATOM
      1 C1        -12.7120   13.4140   27.5270 C.3       1 1UN         0.0024
      2 C2        -12.7400   12.8180   28.9430 C.3       1 1UN        -0.0261
      3 C3        -13.0090   11.3070   28.9180 C.3       1 1UN        -0.0494
      4 C4        -12.0400   10.5670   27.9870 C.3       1 1UN        -0.0528
      5 C5        -12.0550   11.1500   26.5740 C.3       1 1UN        -0.0526
      6 C6        -11.7760   12.6500   26.5790 C.3       1 1UN        -0.0451
      7 N7        -11.0040   15.0710   28.2510 N.4       1 1UN         0.2562
      8 C8        -10.9760   14.5520   29.6470 C.3       1 1UN         0.0688
      9 C9        -11.4550   13.0990   29.7340 C.3       1 1UN         0.0113
     10 C10       -12.3170   14.8880   27.5840 C.3       1 1UN        -0.0266
     11 C11        -9.5900   14.6000   30.2480 C.2       1 1UN         0.2251
     12 N12        -9.5670   14.8170   31.5700 N.am      1 1UN        -0.2771
     13 C13        -8.3910   15.0440   32.3940 C.3       1 1UN         0.0448
     14 C14        -7.5570   16.2100   31.8690 C.3       1 1UN        -0.0396
     15 C15        -7.5780   13.7570   32.4420 C.3       1 1UN        -0.0396
     16 C16        -8.8650   15.3860   33.8010 C.3       1 1UN        -0.0396
     17 O17        -8.5910   14.4380   29.5530 O.2       1 1UN        -0.3909
     18 C18       -10.6600   16.4990   28.2410 C.3       1 1UN        -0.0009
     19 C19       -10.0340   16.8720   26.9020 C.3       1 1UN         0.1184
     20 C20        -8.5710   16.4600   26.7810 C.3       1 1UN         0.0832
     21 O21       -10.1750   18.2810   26.6860 O.3       1 1UN        -0.3842
     22 N22        -8.1670   16.6610   25.4000 N.am      1 1UN        -0.2808
     23 C23        -7.6560   17.2320   27.7320 C.3       1 1UN         0.0326
     24 C24        -7.7750   15.6870   24.5700 C.2       1 1UN         0.1978
     25 O25        -7.6990   14.5080   24.8930 O.2       1 1UN        -0.3887
     26 C29        -7.4340   16.0920   23.1610 C.ar      1 1UN         0.0427
     27 C30        -6.3780   16.9780   22.9050 C.ar      1 1UN        -0.0597
     28 C31        -6.0570   17.3780   21.6070 C.ar      1 1UN        -0.0720
     29 C32        -6.7770   16.9130   20.5050 C.ar      1 1UN        -0.0355
     30 C33        -7.8510   16.0310   20.6580 C.ar      1 1UN         0.0948
     31 C34        -8.2340   15.5740   22.0150 C.ar      1 1UN         0.0036
     32 O38        -8.5520   15.5740   19.5860 O.3       1 1UN        -0.3358
     33 C39        -9.3970   14.6230   22.2020 C.3       1 1UN        -0.0293
     34 S74        -6.0890   16.4370   27.8790 S.3       1 1UN        -0.0993
     35 C77        -5.0620   17.1580   26.7250 C.ar      1 1UN         0.0154
     36 C78        -3.8850   16.5060   26.3400 C.ar      1 1UN        -0.0498
     37 C79        -3.0400   17.0920   25.3930 C.ar      1 1UN        -0.0678
     38 C80        -3.3630   18.3260   24.8290 C.ar      1 1UN        -0.0687
     39 C81        -4.5340   18.9830   25.2090 C.ar      1 1UN        -0.0678
     40 C82        -5.3800   18.4000   26.1540 C.ar      1 1UN        -0.0498
     41 H1        -13.7302   13.3472   27.1163 H         1 1UN         0.0355
     42 H2        -13.5713   13.2981   29.4800 H         1 1UN         0.0309
     43 H3        -14.0379   11.1350   28.5691 H         1 1UN         0.0268
     44 H4        -12.8960   10.9091   29.9372 H         1 1UN         0.0268
     45 H5        -12.3319    9.5076   27.9383 H         1 1UN         0.0265
     46 H6        -11.0218   10.6484   28.3951 H         1 1UN         0.0265
     47 H7        -13.0438   10.9730   26.1259 H         1 1UN         0.0265
     48 H8        -11.2842   10.6462   25.9723 H         1 1UN         0.0265
     49 H9        -10.7366   12.8153   26.8989 H         1 1UN         0.0270
     50 H10       -11.9118   13.0384   25.5589 H         1 1UN         0.0270
     51 H11       -10.3109   14.5674   27.7199 H         1 1UN         0.2057
     52 H12       -11.6451   15.1815   30.2519 H         1 1UN         0.1100
     53 H13       -10.6588   12.4482   29.3434 H         1 1UN         0.0348
     54 H14       -11.6398   12.8583   30.7913 H         1 1UN         0.0348
     55 H15       -13.0837   15.4426   28.1448 H         1 1UN         0.0818
     56 H16       -12.2557   15.2821   26.5589 H         1 1UN         0.0818
     57 H17       -10.4505   14.8235   32.0385 H         1 1UN         0.1859
     58 H18        -6.6781   16.3523   32.5150 H         1 1UN         0.0254
     59 H19        -8.1656   17.1263   31.8709 H         1 1UN         0.0254
     60 H20        -7.2263   15.9916   30.8429 H         1 1UN         0.0254
     61 H21        -6.6830   13.9116   33.0626 H         1 1UN         0.0254
     62 H22        -7.2735   13.4774   31.4227 H         1 1UN         0.0254
     63 H23        -8.1902   12.9525   32.8755 H         1 1UN         0.0254
     64 H24        -7.9936   15.5634   34.4485 H         1 1UN         0.0254
     65 H25        -9.4557   14.5494   34.2024 H         1 1UN         0.0254
     66 H26        -9.4878   16.2921   33.7680 H         1 1UN         0.0254
     67 H27        -9.9436   16.7074   29.0493 H         1 1UN         0.0841
     68 H28       -11.5715   17.0949   28.3962 H         1 1UN         0.0841
     69 H29       -10.5920   16.3448   26.1142 H         1 1UN         0.0670
     70 H30        -8.4879   15.3907   27.0251 H         1 1UN         0.0593
     71 H31       -11.0905   18.5222   26.7645 H         1 1UN         0.2101
     72 H32        -8.1830   17.5952   25.0436 H         1 1UN         0.1847
     73 H33        -8.1284   17.2835   28.7241 H         1 1UN         0.0425
     74 H34        -7.5084   18.2502   27.3428 H         1 1UN         0.0425
     75 H35        -5.7966   17.3617   23.7355 H         1 1UN         0.0556
     76 H36        -5.2319   18.0636   21.4514 H         1 1UN         0.0543
     77 H37        -6.4978   17.2424   19.5107 H         1 1UN         0.0556
     78 H38        -8.1938   15.9508   18.7908 H         1 1UN         0.2456
     79 H39        -9.5227   14.4036   23.2725 H         1 1UN         0.0382
     80 H40        -9.1977   13.6884   21.6571 H         1 1UN         0.0382
     81 H41       -10.3156   15.0860   21.8123 H         1 1UN         0.0382
     82 H42        -3.6287   15.5471   26.7759 H         1 1UN         0.0565
     83 H43        -2.1293   16.5848   25.0956 H         1 1UN         0.0600
     84 H44        -2.7039   18.7751   24.0949 H         1 1UN         0.0559
     85 H45        -4.7858   19.9425   24.7720 H         1 1UN         0.0600
     86 H46        -6.2896   18.9105   26.4491 H         1 1UN         0.0565
@<TRIPOS>BOND
     1    1    2 1  
     2    1    6 1  
     3   10    1 1  
     4    2    3 1  
     5    2    9 1  
     6    3    4 1  
     7    5    4 1  
     8    6    5 1  
     9    7    8 1  
    10    7   10 1  
    11    7   18 1  
    12    8    9 1  
    13    8   11 1  
    14   11   12 am 
    15   11   17 2  
    16   12   13 1  
    17   13   14 1  
    18   13   15 1  
    19   13   16 1  
    20   18   19 1  
    21   19   20 1  
    22   19   21 1  
    23   20   22 1  
    24   20   23 1  
    25   22   24 am 
    26   23   34 1  
    27   24   25 2  
    28   24   26 1  
    29   26   27 ar 
    30   26   31 ar 
    31   27   28 ar 
    32   28   29 ar 
    33   29   30 ar 
    34   30   31 ar 
    35   30   32 1  
    36   31   33 1  
    37   34   35 1  
    38   35   36 ar 
    39   35   40 ar 
    40   36   37 ar 
    41   37   38 ar 
    42   38   39 ar 
    43   39   40 ar 
    44    1   41 1  
    45    2   42 1  
    46    3   43 1  
    47    3   44 1  
    48    4   45 1  
    49    4   46 1  
    50    5   47 1  
    51    5   48 1  
    52    6   49 1  
    53    6   50 1  
    54    7   51 1  
    55    8   52 1  
    56    9   53 1  
    57    9   54 1  
    58   10   55 1  
    59   10   56 1  
    60   12   57 1  
    61   14   58 1  
    62   14   59 1  
    63   14   60 1  
    64   15   61 1  
    65   15   62 1  
    66   15   63 1  
    67   16   64 1  
    68   16   65 1  
    69   16   66 1  
    70   18   67 1  
    71   18   68 1  
    72   19   69 1  
    73   20   70 1  
    74   21   71 1  
    75   22   72 1  
    76   23   73 1  
    77   23   74 1  
    78   27   75 1  
    79   28   76 1  
    80   29   77 1  
    81   32   78 1  
    82   33   79 1  
    83   33   80 1  
    84   33   81 1  
    85   36   82 1  
    86   37   83 1  
    87   38   84 1  
    88   39   85 1  
    89   40   86 1  
@<TRIPOS>SUBSTRUCTURE
     1 1UN         1

