### 
### Created by X-TOOL on Mon Sep 10 21:12:56 2018
### 

@<TRIPOS>MOLECULE
2q6b_ligand
   72    75     1     0     0
SMALL
GAST_HUCK


@<TRIPOS>ATOM
      1 N1         32.5800   -7.5890   -2.8380 N.pl3     1 HR2        -0.2602
      2 C4         34.2530   -8.9710   -3.4720 C.2       1 HR2        -0.0391
      3 C5         34.7390   -7.8300   -2.8750 C.2       1 HR2        -0.0183
      4 C6         34.9740  -10.1610   -4.0570 C.3       1 HR2        -0.0305
      5 C7         38.8840   -6.9570   -2.2590 C.ar      1 HR2         0.1249
      6 C8         37.0010   -7.2270   -3.7460 C.ar      1 HR2        -0.0674
      7 C10        31.2110   -7.0300   -2.6180 C.3       1 HR2         0.0581
      8 C13        31.9970   -9.8290   -3.9990 C.2       1 HR2         0.2304
      9 C15        38.3490   -6.9410   -3.5420 C.ar      1 HR2        -0.0356
     10 C17        31.7070  -11.5610   -5.5210 C.ar      1 HR2         0.0677
     11 C20        33.4080   -5.7760   -0.3590 C.3       1 HR2        -0.0132
     12 C21        33.5340   -4.4570    0.3940 C.3       1 HR2         0.0598
     13 C22        33.5860   -4.7220    1.8950 C.3       1 HR2         0.0010
     14 C24        34.9420   -5.5240    3.8210 C.3       1 HR2         0.0264
     15 C28        30.3850  -11.5130   -5.9670 C.ar      1 HR2        -0.0413
     16 F1         40.1880   -6.6770   -2.0840 F         1 HR2        -0.1891
     17 C9         36.1840   -7.5320   -2.6630 C.ar      1 HR2        -0.0488
     18 C14        36.7160   -7.5440   -1.3730 C.ar      1 HR2        -0.0674
     19 C18        38.0680   -7.2590   -1.1700 C.ar      1 HR2        -0.0356
     20 C3         33.7280   -6.9740   -2.4850 C.2       1 HR2         0.0590
     21 C19        33.8780   -5.6350   -1.7980 C.3       1 HR2         0.0106
     22 O33        32.4080   -3.6450    0.1130 O.3       1 HR2        -0.3915
     23 C23        34.9240   -5.3130    2.3140 C.3       1 HR2         0.0689
     24 O34        35.9690   -4.4380    1.9380 O.3       1 HR2        -0.3900
     25 C25        36.1180   -6.4010    4.1710 C.2       1 HR2         0.0373
     26 O27        36.1270   -7.6820    3.8050 O.co2     1 HR2        -0.5689
     27 O26        37.0650   -5.9340    4.7780 O.co2     1 HR2        -0.5689
     28 C12        30.4680   -6.9740   -3.9470 C.3       1 HR2        -0.0350
     29 C11        30.4610   -7.8300   -1.5540 C.3       1 HR2        -0.0350
     30 C2         34.7620  -10.2030   -5.5750 C.3       1 HR2        -0.0212
     31 C16        33.3480   -9.8740   -6.0740 C.3       1 HR2         0.0556
     32 N15        32.3570  -10.4190   -5.1470 N.am      1 HR2        -0.2236
     33 O14        31.1440  -10.3010   -3.2640 O.2       1 HR2        -0.3915
     34 C1         32.8810   -8.7700   -3.4280 C.2       1 HR2         0.1233
     35 C29        29.7200  -12.6790   -6.3440 C.ar      1 HR2        -0.0756
     36 C30        30.3790  -13.9030   -6.2840 C.ar      1 HR2        -0.0772
     37 C31        31.7010  -13.9550   -5.8460 C.ar      1 HR2        -0.0756
     38 C32        32.3680  -12.7890   -5.4680 C.ar      1 HR2        -0.0413
     39 H1         34.5792  -11.0841   -3.6077 H         1 HR2         0.0382
     40 H2         36.0494  -10.0787   -3.8408 H         1 HR2         0.0382
     41 H3         36.5891   -7.2118   -4.7486 H         1 HR2         0.0543
     42 H4         31.3154   -6.0000   -2.2464 H         1 HR2         0.0643
     43 H5         38.9841   -6.7047   -4.3881 H         1 HR2         0.0586
     44 H6         32.3544   -6.0921   -0.3551 H         1 HR2         0.0317
     45 H7         34.0211   -6.5372    0.1456 H         1 HR2         0.0317
     46 H8         34.4521   -3.9400    0.0780 H         1 HR2         0.0596
     47 H9         32.7853   -5.4278    2.1607 H         1 HR2         0.0316
     48 H10        33.4315   -3.7736    2.4304 H         1 HR2         0.0316
     49 H11        34.0086   -6.0122    4.1379 H         1 HR2         0.0456
     50 H12        35.0393   -4.5536    4.3298 H         1 HR2         0.0456
     51 H13        29.8707  -10.5603   -6.0207 H         1 HR2         0.0502
     52 H14        36.0788   -7.7749   -0.5270 H         1 HR2         0.0543
     53 H15        38.4818   -7.2726   -0.1682 H         1 HR2         0.0586
     54 H16        34.9334   -5.3254   -1.8151 H         1 HR2         0.0477
     55 H17        33.2664   -4.8816   -2.3160 H         1 HR2         0.0477
     56 H18        32.3671   -3.4743   -0.8207 H         1 HR2         0.2098
     57 H19        35.0653   -6.2814    1.8119 H         1 HR2         0.0612
     58 H20        35.8524   -3.6017    2.3734 H         1 HR2         0.2099
     59 H21        29.4604   -6.5628   -3.7867 H         1 HR2         0.0259
     60 H22        30.3878   -7.9882   -4.3653 H         1 HR2         0.0259
     61 H23        31.0192   -6.3305   -4.6485 H         1 HR2         0.0259
     62 H24        29.4587   -7.4000   -1.4107 H         1 HR2         0.0259
     63 H25        31.0164   -7.7895   -0.6054 H         1 HR2         0.0259
     64 H26        30.3678   -8.8764   -1.8799 H         1 HR2         0.0259
     65 H27        35.0116  -11.2171   -5.9203 H         1 HR2         0.0307
     66 H28        35.4546   -9.4798   -6.0302 H         1 HR2         0.0307
     67 H29        33.1995  -10.3175   -7.0696 H         1 HR2         0.0586
     68 H30        33.2276   -8.7824   -6.1371 H         1 HR2         0.0586
     69 H31        28.6915  -12.6321   -6.6832 H         1 HR2         0.0577
     70 H32        29.8663  -14.8122   -6.5767 H         1 HR2         0.0487
     71 H33        32.2150  -14.9082   -5.7986 H         1 HR2         0.0577
     72 H34        33.3980  -12.8370   -5.1337 H         1 HR2         0.0502
@<TRIPOS>BOND
     1    1    7 1  
     2   20    1 1  
     3    1   34 1  
     4    3    2 1  
     5    2    4 1  
     6    2   34 2  
     7    3   17 1  
     8   20    3 2  
     9    4   30 1  
    10    9    5 ar 
    11    5   16 1  
    12   19    5 ar 
    13    6    9 ar 
    14   17    6 ar 
    15    7   28 1  
    16    7   29 1  
    17    8   32 am 
    18    8   33 2  
    19   34    8 1  
    20   10   15 ar 
    21   32   10 1  
    22   10   38 ar 
    23   11   12 1  
    24   21   11 1  
    25   12   13 1  
    26   12   22 1  
    27   13   23 1  
    28   23   14 1  
    29   14   25 1  
    30   15   35 ar 
    31   17   18 ar 
    32   18   19 ar 
    33   20   21 1  
    34   23   24 1  
    35   25   26 ar 
    36   25   27 ar 
    37   30   31 1  
    38   31   32 1  
    39   35   36 ar 
    40   36   37 ar 
    41   37   38 ar 
    42    4   39 1  
    43    4   40 1  
    44    6   41 1  
    45    7   42 1  
    46    9   43 1  
    47   11   44 1  
    48   11   45 1  
    49   12   46 1  
    50   13   47 1  
    51   13   48 1  
    52   14   49 1  
    53   14   50 1  
    54   15   51 1  
    55   18   52 1  
    56   19   53 1  
    57   21   54 1  
    58   21   55 1  
    59   22   56 1  
    60   23   57 1  
    61   24   58 1  
    62   28   59 1  
    63   28   60 1  
    64   28   61 1  
    65   29   62 1  
    66   29   63 1  
    67   29   64 1  
    68   30   65 1  
    69   30   66 1  
    70   31   67 1  
    71   31   68 1  
    72   35   69 1  
    73   36   70 1  
    74   37   71 1  
    75   38   72 1  
@<TRIPOS>SUBSTRUCTURE
     1 HR2         1

