### 
### Created by X-TOOL on Sun Sep  9 21:50:39 2018
### 

@<TRIPOS>MOLECULE
2q6c_ligand
   73    77     1     0     0
SMALL
GAST_HUCK


@<TRIPOS>ATOM
      1 N1         98.9790   -9.0980   16.7000 N.pl3     1 NON        -0.2510
      2 C4        103.8140  -14.1070   17.6240 C.ar      1 NON        -0.0725
      3 C5         98.7830   -8.3170   18.8750 C.2       1 NON        -0.0162
      4 C6         98.8750   -9.2600   15.2140 C.3       1 NON         0.0609
      5 C7         97.6160   -6.9040   16.9910 C.3       1 NON         0.0117
      6 C8         96.1280   -7.1460   16.9120 C.3       1 NON        -0.0130
      7 C10        93.9800   -5.9010   16.9520 C.3       1 NON         0.0010
      8 C13        99.3400   -8.0220   14.4520 C.3       1 NON        -0.0346
      9 C15        98.7570   -5.8870   21.8020 C.ar      1 NON        -0.0354
     10 C17       101.0240  -14.1650   17.6110 C.ar      1 NON        -0.0337
     11 C20       101.6920  -12.9990   17.9770 C.ar      1 NON         0.0948
     12 C21        97.0520   -7.6440   20.4980 C.ar      1 NON        -0.0672
     13 C22       100.7310  -10.6310   22.3260 C.ar      1 NON        -0.0772
     14 C24        96.5880   -6.9200   21.5890 C.ar      1 NON        -0.0354
     15 C26       103.0890  -12.9710   17.9760 C.ar      1 NON        -0.0337
     16 C28       101.4310  -11.7770   21.9820 C.ar      1 NON        -0.0750
     17 O1        100.5150  -11.5860   16.1550 O.2       1 NON        -0.3895
     18 C3        100.3900  -11.1480   17.3180 C.2       1 NON         0.2580
     19 C2         99.6540   -9.9730   17.5010 C.2       1 NON         0.1395
     20 C14        97.4550   -9.6910   14.8390 C.3       1 NON        -0.0346
     21 C1         99.5600   -9.5470   18.8970 C.2       1 NON        -0.0146
     22 C31       100.2030  -10.2970   20.0010 C.ar      1 NON        -0.0043
     23 C25       100.1140   -9.8880   21.3310 C.ar      1 NON        -0.0692
     24 C16       100.9010  -11.4470   19.6390 C.ar      1 NON         0.0995
     25 C19       101.5200  -12.1860   20.6570 C.ar      1 NON        -0.0354
     26 N2        100.9710  -11.8320   18.3350 N.am      1 NON        -0.1709
     27 C23       103.1440  -15.2730   17.2600 C.ar      1 NON        -0.0748
     28 C29       101.7510  -15.2990   17.2540 C.ar      1 NON        -0.0725
     29 C27        98.3630   -7.4920   20.0460 C.ar      1 NON        -0.0482
     30 C30        97.4420   -6.0420   22.2450 C.ar      1 NON         0.1251
     31 C18        99.2220   -6.6130   20.7010 C.ar      1 NON        -0.0672
     32 F1         96.9800   -5.3450   23.3010 F         1 NON        -0.1890
     33 C12        98.4120   -8.0940   17.4550 C.2       1 NON         0.0630
     34 C9         95.4680   -5.7900   16.6850 C.3       1 NON         0.0599
     35 O4         95.7000   -5.3790   15.3460 O.3       1 NON        -0.3915
     36 C11        93.6880   -5.9130   18.4490 C.3       1 NON         0.0689
     37 O3         94.0020   -4.6550   19.0290 O.3       1 NON        -0.3900
     38 C35        92.2160   -6.2330   18.6440 C.3       1 NON         0.0264
     39 C36        91.9660   -6.5690   20.0890 C.2       1 NON         0.0373
     40 O7         91.3720   -5.7200   20.7850 O.co2     1 NON        -0.5689
     41 O6         92.3630   -7.6760   20.5210 O.co2     1 NON        -0.5689
     42 H1        104.8977  -14.0839   17.6333 H         1 NON         0.0583
     43 H2         99.5507  -10.0791   14.9268 H         1 NON         0.0648
     44 H3         97.7938   -6.0756   17.6925 H         1 NON         0.0479
     45 H4         97.9727   -6.6198   15.9900 H         1 NON         0.0479
     46 H5         95.7668   -7.5895   17.8516 H         1 NON         0.0317
     47 H6         95.8990   -7.8225   16.0754 H         1 NON         0.0317
     48 H7         93.6038   -6.8333   16.5056 H         1 NON         0.0316
     49 H8         93.4680   -5.0422   16.4934 H         1 NON         0.0316
     50 H9         99.2413   -8.1985   13.3707 H         1 NON         0.0260
     51 H10       100.3927   -7.8156   14.6952 H         1 NON         0.0260
     52 H11        98.7211   -7.1597   14.7407 H         1 NON         0.0260
     53 H12        99.4210   -5.2002   22.3143 H         1 NON         0.0587
     54 H13        99.9403  -14.1904   17.6038 H         1 NON         0.0531
     55 H14        96.3876   -8.3351   19.9920 H         1 NON         0.0545
     56 H15       100.6666  -10.3189   23.3621 H         1 NON         0.0503
     57 H16        95.5649   -7.0394   21.9268 H         1 NON         0.0587
     58 H17       103.6108  -12.0613   18.2503 H         1 NON         0.0531
     59 H18       101.9149  -12.3613   22.7562 H         1 NON         0.0561
     60 H19        97.3837   -9.8086   13.7476 H         1 NON         0.0260
     61 H20        96.7392   -8.9254   15.1728 H         1 NON         0.0260
     62 H21        97.2216  -10.6488   15.3269 H         1 NON         0.0260
     63 H22        99.5631   -8.9902   21.5869 H         1 NON         0.0558
     64 H23       102.0730  -13.0845   20.4082 H         1 NON         0.0521
     65 H24       103.7051  -16.1579   16.9821 H         1 NON         0.0507
     66 H25       101.2299  -16.2062   16.9701 H         1 NON         0.0583
     67 H26       100.2438   -6.4925   20.3598 H         1 NON         0.0545
     68 H27        95.9046   -5.0506   17.3725 H         1 NON         0.0596
     69 H28        96.6354   -5.3139   15.1935 H         1 NON         0.2098
     70 H29        94.2975   -6.6906   18.9326 H         1 NON         0.0612
     71 H30        93.4774   -3.9781   18.6177 H         1 NON         0.2099
     72 H31        91.9403   -7.0918   18.0144 H         1 NON         0.0456
     73 H32        91.6097   -5.3603   18.3598 H         1 NON         0.0456
@<TRIPOS>BOND
     1    1    4 1  
     2   19    1 1  
     3    1   33 1  
     4   15    2 ar 
     5    2   27 ar 
     6   21    3 1  
     7    3   29 1  
     8    3   33 2  
     9    4    8 1  
    10    4   20 1  
    11    5    6 1  
    12   33    5 1  
    13    6   34 1  
    14   34    7 1  
    15    7   36 1  
    16   30    9 ar 
    17    9   31 ar 
    18   11   10 ar 
    19   10   28 ar 
    20   11   15 ar 
    21   26   11 1  
    22   12   14 ar 
    23   29   12 ar 
    24   13   16 ar 
    25   23   13 ar 
    26   14   30 ar 
    27   16   25 ar 
    28   18   17 2  
    29   19   18 1  
    30   18   26 am 
    31   21   19 2  
    32   22   21 1  
    33   22   23 ar 
    34   22   24 ar 
    35   24   25 ar 
    36   24   26 1  
    37   27   28 ar 
    38   29   31 ar 
    39   30   32 1  
    40   34   35 1  
    41   36   37 1  
    42   36   38 1  
    43   38   39 1  
    44   39   40 ar 
    45   39   41 ar 
    46    2   42 1  
    47    4   43 1  
    48    5   44 1  
    49    5   45 1  
    50    6   46 1  
    51    6   47 1  
    52    7   48 1  
    53    7   49 1  
    54    8   50 1  
    55    8   51 1  
    56    8   52 1  
    57    9   53 1  
    58   10   54 1  
    59   12   55 1  
    60   13   56 1  
    61   14   57 1  
    62   15   58 1  
    63   16   59 1  
    64   20   60 1  
    65   20   61 1  
    66   20   62 1  
    67   23   63 1  
    68   25   64 1  
    69   27   65 1  
    70   28   66 1  
    71   31   67 1  
    72   34   68 1  
    73   35   69 1  
    74   36   70 1  
    75   37   71 1  
    76   38   72 1  
    77   38   73 1  
@<TRIPOS>SUBSTRUCTURE
     1 NON         1

