### 
### Created by X-TOOL on Mon Sep 10 21:12:58 2018
### 

@<TRIPOS>MOLECULE
2q6f_ligand
   99   101     1     0     0
SMALL
GAST_HUCK


@<TRIPOS>ATOM
      1 N1         31.6620  -68.9700    0.7750 N.2       1 02J        -0.1328
      2 C1         30.6400  -68.1650    0.3190 C.2       1 02J         0.1131
      3 C2         30.8110  -67.8900   -1.0530 C.2       1 02J        -0.0165
      4 C3         31.9660  -68.5700   -1.4120 C.2       1 02J         0.1392
      5 O1         32.5070  -69.2400   -0.3570 O.3       1 02J        -0.1606
      6 C4         29.5490  -67.6280    1.1860 C.2       1 02J         0.2113
      7 O2         29.6760  -66.4700    1.5740 O.2       1 02J        -0.3853
      8 N2         28.5010  -68.3800    1.5360 N.am      1 ALA        -0.2652
      9 C5         27.4400  -67.8820    2.4220 C.3       1 ALA         0.1278
     10 C6         26.3240  -68.9060    2.5370 C.3       1 ALA        -0.0244
     11 C7         27.9630  -67.5810    3.8070 C.2       1 ALA         0.2036
     12 O3         28.9800  -68.1390    4.1740 O.2       1 ALA        -0.3944
     13 N3         27.3000  -66.6790    4.5660 N.am      1 VAL        -0.2635
     14 C8         27.6370  -66.2340    5.9280 C.3       1 VAL         0.1332
     15 C9         28.1010  -64.7570    5.8270 C.3       1 VAL        -0.0063
     16 C10        28.6140  -64.1850    7.1400 C.3       1 VAL        -0.0584
     17 C11        29.1390  -64.5230    4.7350 C.3       1 VAL        -0.0584
     18 C12        26.4090  -66.2980    6.8130 C.2       1 VAL         0.2041
     19 O4         25.3300  -65.8550    6.4420 O.2       1 VAL        -0.3944
     20 N4         26.5470  -66.8180    8.0230 N.am      1 LEU        -0.2637
     21 C13        25.4510  -66.9210    8.9570 C.3       1 LEU         0.1311
     22 C14        26.0050  -67.9630    9.8970 C.3       1 LEU        -0.0101
     23 C15        25.3460  -69.3260   10.0780 C.3       1 LEU        -0.0425
     24 C16        24.5440  -69.9080    8.9140 C.3       1 LEU        -0.0625
     25 C17        26.4780  -70.2620   10.4540 C.3       1 LEU        -0.0625
     26 C19        24.0170  -63.7650   10.4630 C.3       1 PJE         0.0466
     27 C20        23.2770  -63.9880   11.7660 C.3       1 PJE        -0.0115
     28 C21        24.0520  -64.7740   12.8280 C.3       1 PJE         0.0510
     29 C22        23.5630  -64.2790   14.1680 C.2       1 PJE         0.2358
     30 O6         22.6590  -63.4510   14.2110 O.2       1 PJE        -0.3702
     31 O7         24.1910  -64.7400   15.4180 O.3       1 010        -0.2636
     32 C23        24.2150  -66.1010   15.8250 C.3       1 010         0.1108
     33 C24        25.5590  -66.4860   16.4040 C.ar      1 010        -0.0128
     34 C25        23.1960  -62.8430    9.5680 C.3       1 PJE        -0.0099
     35 C26        24.0540  -62.3400    8.4280 C.3       1 PJE         0.0525
     36 C27        25.1030  -61.2980    8.8550 C.3       1 PJE        -0.0129
     37 C28        25.3910  -60.4970    7.5780 C.3       1 PJE         0.0332
     38 N6         24.1110  -60.6680    6.8810 N.am      1 PJE        -0.2866
     39 C29        23.2940  -61.5920    7.3800 C.2       1 PJE         0.1792
     40 O8         22.1410  -61.8080    7.0650 O.2       1 PJE        -0.3968
     41 C30        26.5690  -65.5270   16.5980 C.ar      1 010        -0.0578
     42 C31        27.8040  -65.8910   17.1310 C.ar      1 010        -0.0685
     43 C32        28.0290  -67.2290   17.4600 C.ar      1 010        -0.0687
     44 C33        27.0310  -68.1950   17.2530 C.ar      1 010        -0.0685
     45 C34        25.7880  -67.8250   16.7240 C.ar      1 010        -0.0578
     46 C35        32.5380  -68.5720   -2.8090 C.3       1 02J         0.0097
     47 C18        25.3260  -65.5820    9.6570 C.2       1 LEU         0.2019
     48 O5         26.3210  -64.9850   10.0760 O.2       1 LEU        -0.3945
     49 N5         24.1070  -65.0610    9.7900 N.am      1 PJE        -0.2817
     50 H1         30.1757  -67.2779   -1.6914 H         1 02J         0.0312
     51 H2         28.4368  -69.3134    1.1828 H         1 ALA         0.1877
     52 H3         27.0332  -66.9561    1.9895 H         1 ALA         0.0797
     53 H4         25.5384  -68.5190    3.2027 H         1 ALA         0.0277
     54 H5         26.7267  -69.8423    2.9507 H         1 ALA         0.0277
     55 H6         25.8986  -69.0982    1.5410 H         1 ALA         0.0277
     56 H7         26.4871  -66.2669    4.1544 H         1 VAL         0.1883
     57 H8         28.4364  -66.8622    6.3478 H         1 VAL         0.0802
     58 H9         27.2090  -64.1751    5.5518 H         1 VAL         0.0343
     59 H10        28.9227  -63.1400    6.9890 H         1 VAL         0.0234
     60 H11        29.4754  -64.7754    7.4855 H         1 VAL         0.0234
     61 H12        27.8149  -64.2258    7.8949 H         1 VAL         0.0234
     62 H13        28.7704  -64.9358    3.7843 H         1 VAL         0.0234
     63 H14        30.0801  -65.0213    5.0107 H         1 VAL         0.0234
     64 H15        29.3153  -63.4431    4.6220 H         1 VAL         0.0234
     65 H16        27.4472  -67.1530    8.3012 H         1 LEU         0.1883
     66 H17        24.5011  -67.2236    8.4921 H         1 LEU         0.0800
     67 H18        26.0261  -67.4975   10.8934 H         1 LEU         0.0315
     68 H19        27.0341  -68.1615    9.5632 H         1 LEU         0.0315
     69 H20        24.6496  -69.2447   10.9256 H         1 LEU         0.0298
     70 H21        24.1368  -70.8881    9.2031 H         1 LEU         0.0232
     71 H22        25.2007  -70.0273    8.0396 H         1 LEU         0.0232
     72 H23        23.7174  -69.2275    8.6617 H         1 LEU         0.0232
     73 H24        27.0465  -69.8319   11.2918 H         1 LEU         0.0232
     74 H25        27.1447  -70.3970    9.5895 H         1 LEU         0.0232
     75 H26        26.0642  -71.2361   10.7536 H         1 LEU         0.0232
     76 H27        25.0155  -63.3421   10.6477 H         1 PJE         0.0559
     77 H28        22.3517  -64.5391   11.5422 H         1 PJE         0.0313
     78 H29        23.0249  -63.0037   12.1873 H         1 PJE         0.0313
     79 H30        25.1315  -64.5893   12.7254 H         1 PJE         0.0519
     80 H31        23.8528  -65.8509   12.7248 H         1 PJE         0.0519
     81 H32        24.0064  -66.7381   14.9529 H         1 010         0.0778
     82 H33        23.4390  -66.2590   16.5885 H         1 010         0.0778
     83 H34        22.8344  -61.9879   10.1580 H         1 PJE         0.0315
     84 H35        22.3373  -63.3976    9.1618 H         1 PJE         0.0315
     85 H36        24.5524  -63.2114    7.9784 H         1 PJE         0.0539
     86 H37        26.0162  -61.7920    9.2183 H         1 PJE         0.0312
     87 H38        24.7022  -60.6430    9.6426 H         1 PJE         0.0312
     88 H39        26.2280  -60.9250    7.0068 H         1 PJE         0.0521
     89 H40        25.5993  -59.4393    7.7969 H         1 PJE         0.0521
     90 H41        23.8674  -60.1227    6.0790 H         1 PJE         0.1851
     91 H42        26.3848  -64.4929   16.3299 H         1 010         0.0557
     92 H43        28.5772  -65.1476   17.2876 H         1 010         0.0599
     93 H44        28.9837  -67.5252   17.8795 H         1 010         0.0559
     94 H45        27.2235  -69.2319   17.5038 H         1 010         0.0599
     95 H46        25.0149  -68.5681   16.5654 H         1 010         0.0557
     96 H47        33.4526  -69.1828   -2.8298 H         1 02J         0.0449
     97 H48        32.7787  -67.5412   -3.1082 H         1 02J         0.0449
     98 H49        31.7997  -68.9935   -3.5070 H         1 02J         0.0449
     99 H50        23.2943  -65.5321    9.4470 H         1 PJE         0.1855
@<TRIPOS>BOND
     1    2    1 2  
     2    1    5 1  
     3    2    3 1  
     4    6    2 1  
     5    3    4 2  
     6    4    5 1  
     7    4   46 1  
     8    6    7 2  
     9    8    6 am 
    10    9    8 1  
    11    9   10 1  
    12   11    9 1  
    13   11   12 2  
    14   13   11 am 
    15   14   13 1  
    16   14   15 1  
    17   18   14 1  
    18   15   16 1  
    19   15   17 1  
    20   18   19 2  
    21   20   18 am 
    22   21   20 1  
    23   21   22 1  
    24   47   21 1  
    25   22   23 1  
    26   23   24 1  
    27   23   25 1  
    28   26   27 1  
    29   26   34 1  
    30   49   26 1  
    31   27   28 1  
    32   28   29 1  
    33   29   30 2  
    34   29   31 1  
    35   31   32 1  
    36   32   33 1  
    37   33   41 ar 
    38   33   45 ar 
    39   34   35 1  
    40   35   36 1  
    41   35   39 1  
    42   36   37 1  
    43   38   37 1  
    44   39   38 am 
    45   39   40 2  
    46   41   42 ar 
    47   42   43 ar 
    48   44   43 ar 
    49   45   44 ar 
    50   47   48 2  
    51   47   49 am 
    52    3   50 1  
    53    8   51 1  
    54    9   52 1  
    55   10   53 1  
    56   10   54 1  
    57   10   55 1  
    58   13   56 1  
    59   14   57 1  
    60   15   58 1  
    61   16   59 1  
    62   16   60 1  
    63   16   61 1  
    64   17   62 1  
    65   17   63 1  
    66   17   64 1  
    67   20   65 1  
    68   21   66 1  
    69   22   67 1  
    70   22   68 1  
    71   23   69 1  
    72   24   70 1  
    73   24   71 1  
    74   24   72 1  
    75   25   73 1  
    76   25   74 1  
    77   25   75 1  
    78   26   76 1  
    79   27   77 1  
    80   27   78 1  
    81   28   79 1  
    82   28   80 1  
    83   32   81 1  
    84   32   82 1  
    85   34   83 1  
    86   34   84 1  
    87   35   85 1  
    88   36   86 1  
    89   36   87 1  
    90   37   88 1  
    91   37   89 1  
    92   38   90 1  
    93   41   91 1  
    94   42   92 1  
    95   43   93 1  
    96   44   94 1  
    97   45   95 1  
    98   46   96 1  
    99   46   97 1  
   100   46   98 1  
   101   49   99 1  
@<TRIPOS>SUBSTRUCTURE
     1 02J         1

