### 
### Created by X-TOOL on Mon Sep 10 21:12:55 2018
### 

@<TRIPOS>MOLECULE
2q6h_ligand
   46    48     1     0     0
SMALL
GAST_HUCK


@<TRIPOS>ATOM
      1 C1         25.2970   21.0300   23.3410 C.ar      1 CXX        -0.0326
      2 C2         24.1120   20.3550   23.0060 C.ar      1 CXX         0.0225
      3 C3         24.0040   19.6070   21.8180 C.ar      1 CXX        -0.0671
      4 C4         25.1290   19.5640   20.9850 C.ar      1 CXX        -0.0697
      5 C5         27.4750   20.1140   20.3100 C.3       1 CXX        -0.0136
      6 C6         27.8980   21.4090   19.6050 C.3       1 CXX        -0.0137
      7 C8         29.1030   24.9910   20.4600 C.ar      1 CXX        -0.0811
      8 C9         28.9940   25.0610   21.8380 C.ar      1 CXX        -0.0795
      9 C10        28.5290   23.9690   22.5690 C.ar      1 CXX        -0.0464
     10 C11        28.1500   22.7460   21.9340 C.ar      1 CXX         0.0618
     11 C13        26.3440   20.2270   21.2810 C.ar      1 CXX        -0.0182
     12 C14        26.4340   20.9720   22.4790 C.ar      1 CXX         0.0624
     13 C17        28.6160   18.6680   24.1680 C.3       1 CXX        -0.0303
     14 C18        29.6310   16.5730   24.8290 C.3       1 CXX        -0.0433
     15 C7         28.7430   23.8080   19.7900 C.ar      1 CXX        -0.0704
     16 C12        28.2590   22.6420   20.4530 C.ar      1 CXX        -0.0185
     17 C15        28.6660   21.1440   23.8040 C.3       1 CXX         0.0469
     18 C16        28.2410   20.0300   24.7420 C.3       1 CXX         0.0107
     19 C19        27.2990   16.9560   25.3420 C.3       1 CXX        -0.0433
     20 N1         27.6720   21.6540   22.7910 N.pl3     1 CXX        -0.2667
     21 N2         28.6310   17.6000   25.1900 N.4       1 CXX         0.2310
     22 CL2        22.7570   20.4610   24.0940 Cl        1 CXX        -0.0803
     23 H1         25.3490   21.5999   24.2617 H         1 CXX         0.0511
     24 H2         23.0890   19.0866   21.5592 H         1 CXX         0.0501
     25 H3         25.0660   18.9932   20.0656 H         1 CXX         0.0522
     26 H4         28.3486   19.7293   20.8566 H         1 CXX         0.0422
     27 H5         27.1801   19.3914   19.5348 H         1 CXX         0.0422
     28 H6         27.0667   21.7033   18.9475 H         1 CXX         0.0422
     29 H7         28.7811   21.1690   18.9946 H         1 CXX         0.0422
     30 H8         29.4646   25.8452   19.8990 H         1 CXX         0.0494
     31 H9         29.2727   25.9731   22.3533 H         1 CXX         0.0528
     32 H10        28.4529   24.0495   23.6473 H         1 CXX         0.0506
     33 H11        29.6179   18.7393   23.7196 H         1 CXX         0.0815
     34 H12        27.8847   18.4006   23.3910 H         1 CXX         0.0815
     35 H13        29.6366   15.7820   25.5934 H         1 CXX         0.0777
     36 H14        30.6275   17.0354   24.7725 H         1 CXX         0.0777
     37 H15        29.3731   16.1373   23.8525 H         1 CXX         0.0777
     38 H16        28.8387   23.7811   18.7106 H         1 CXX         0.0521
     39 H17        29.5411   20.7810   23.2450 H         1 CXX         0.0560
     40 H18        28.9596   22.0000   24.4293 H         1 CXX         0.0560
     41 H19        28.7429   20.1636   25.7116 H         1 CXX         0.0340
     42 H20        27.1511   20.0741   24.8841 H         1 CXX         0.0340
     43 H21        26.5521   17.7175   25.6107 H         1 CXX         0.0777
     44 H22        27.3480   16.1948   26.1346 H         1 CXX         0.0777
     45 H23        27.0117   16.4794   24.3931 H         1 CXX         0.0777
     46 H24        28.8895   18.0104   26.0736 H         1 CXX         0.2028
@<TRIPOS>BOND
     1    1    2 ar 
     2   12    1 ar 
     3    2    3 ar 
     4    2   22 1  
     5    4    3 ar 
     6   11    4 ar 
     7    5    6 1  
     8   11    5 1  
     9   16    6 1  
    10    8    7 ar 
    11   15    7 ar 
    12    9    8 ar 
    13   10    9 ar 
    14   10   16 ar 
    15   20   10 1  
    16   12   11 ar 
    17   20   12 1  
    18   18   13 1  
    19   13   21 1  
    20   21   14 1  
    21   16   15 ar 
    22   17   18 1  
    23   17   20 1  
    24   21   19 1  
    25    1   23 1  
    26    3   24 1  
    27    4   25 1  
    28    5   26 1  
    29    5   27 1  
    30    6   28 1  
    31    6   29 1  
    32    7   30 1  
    33    8   31 1  
    34    9   32 1  
    35   13   33 1  
    36   13   34 1  
    37   14   35 1  
    38   14   36 1  
    39   14   37 1  
    40   15   38 1  
    41   17   39 1  
    42   17   40 1  
    43   18   41 1  
    44   18   42 1  
    45   19   43 1  
    46   19   44 1  
    47   19   45 1  
    48   21   46 1  
@<TRIPOS>SUBSTRUCTURE
     1 CXX         1

