### 
### Created by X-TOOL on Mon Sep 10 21:12:56 2018
### 

@<TRIPOS>MOLECULE
2q70_ligand
   39    42     1     0     0
SMALL
GAST_HUCK


@<TRIPOS>ATOM
      1 C4         12.2810   50.2890   59.1620 C.ar      1 DC8         0.0845
      2 C6         10.5620   51.6960   59.9340 C.3       1 DC8         0.1109
      3 C8         11.4110   52.1380   61.1760 C.3       1 DC8         0.0139
      4 C10        11.2730   51.1800   62.3790 C.3       1 DC8         0.0198
      5 C15        12.9320   52.1570   60.8180 C.3       1 DC8         0.0013
      6 C17        13.2840   51.0830   59.7740 C.ar      1 DC8        -0.0179
      7 C20         8.3050   50.5220   60.0900 C.ar      1 DC8        -0.0660
      8 C21         6.9350   50.5270   60.3570 C.ar      1 DC8        -0.0397
      9 C22         6.3100   51.7130   60.7780 C.ar      1 DC8         0.0805
     10 C24         7.0620   52.9010   60.9240 C.ar      1 DC8        -0.0397
     11 C1         14.9850   49.9060   58.4410 C.ar      1 DC8         0.0697
     12 C2         13.9750   49.1260   57.8400 C.ar      1 DC8        -0.0489
     13 C3         12.6390   49.3120   58.1980 C.ar      1 DC8        -0.0478
     14 O5         10.9470   50.3950   59.4550 O.3       1 DC8        -0.3146
     15 C11        12.5430   51.4310   63.1950 C.3       1 DC8         0.2514
     16 F12        12.3120   52.4470   64.1220 F         1 DC8        -0.2055
     17 F13        12.9280   50.2730   63.8650 F         1 DC8        -0.2055
     18 C14        13.6470   51.8440   62.1880 C.3       1 DC8         0.0221
     19 C18        14.6420   50.8900   59.4060 C.ar      1 DC8        -0.0399
     20 C19         9.0630   51.7050   60.2350 C.ar      1 DC8        -0.0208
     21 O23         4.9970   51.7140   61.0400 O.3       1 DC8        -0.3376
     22 C25         8.4330   52.8970   60.6540 C.ar      1 DC8        -0.0660
     23 O26        16.2800   49.7080   58.0850 O.3       1 DC8        -0.3420
     24 H1         10.7505   52.4226   59.1299 H         1 DC8         0.0790
     25 H2         11.0865   53.1453   61.4761 H         1 DC8         0.0373
     26 H3         11.2239   50.1338   62.0429 H         1 DC8         0.0329
     27 H4         10.3754   51.4183   62.9684 H         1 DC8         0.0329
     28 H5         13.2281   53.1458   60.4378 H         1 DC8         0.0444
     29 H6          8.7892   49.6065   59.7700 H         1 DC8         0.0531
     30 H7          6.3550   49.6187   60.2399 H         1 DC8         0.0525
     31 H8          6.5753   53.8148   61.2453 H         1 DC8         0.0525
     32 H9         14.2372   48.3803   57.0982 H         1 DC8         0.0458
     33 H10        11.8689   48.7051   57.7358 H         1 DC8         0.0496
     34 H11        14.1737   52.7386   62.5517 H         1 DC8         0.0345
     35 H12        14.3664   51.0220   62.0589 H         1 DC8         0.0345
     36 H13        15.4177   51.4944   59.8622 H         1 DC8         0.0453
     37 H14         4.8561   51.9653   61.9452 H         1 DC8         0.2458
     38 H15         9.0115   53.8069   60.7660 H         1 DC8         0.0531
     39 H16        16.7829   49.4566   58.8507 H         1 DC8         0.2443
@<TRIPOS>BOND
     1    6    1 ar 
     2    1   13 ar 
     3    1   14 1  
     4    3    2 1  
     5   14    2 1  
     6    2   20 1  
     7    3    4 1  
     8    5    3 1  
     9    4   15 1  
    10    6    5 1  
    11    5   18 1  
    12   19    6 ar 
    13    7    8 ar 
    14   20    7 ar 
    15    8    9 ar 
    16    9   10 ar 
    17    9   21 1  
    18   10   22 ar 
    19   11   12 ar 
    20   11   19 ar 
    21   11   23 1  
    22   12   13 ar 
    23   15   16 1  
    24   15   17 1  
    25   15   18 1  
    26   20   22 ar 
    27    2   24 1  
    28    3   25 1  
    29    4   26 1  
    30    4   27 1  
    31    5   28 1  
    32    7   29 1  
    33    8   30 1  
    34   10   31 1  
    35   12   32 1  
    36   13   33 1  
    37   18   34 1  
    38   18   35 1  
    39   19   36 1  
    40   21   37 1  
    41   22   38 1  
    42   23   39 1  
@<TRIPOS>SUBSTRUCTURE
     1 DC8         1

