### 
### Created by X-TOOL on Mon Sep 10 21:12:56 2018
### 

@<TRIPOS>MOLECULE
2q72_ligand
   46    48     1     0     0
SMALL
GAST_HUCK


@<TRIPOS>ATOM
      1 C11        28.0570   22.6820   22.0300 C.ar      1 IXX         0.0618
      2 C10        28.4390   23.8920   22.6870 C.ar      1 IXX        -0.0464
      3 C9         28.9100   25.0100   21.9700 C.ar      1 IXX        -0.0795
      4 C8         29.0100   24.9490   20.5780 C.ar      1 IXX        -0.0811
      5 C7         28.6500   23.7870   19.8950 C.ar      1 IXX        -0.0704
      6 C2         23.9350   20.3950   22.9450 C.ar      1 IXX        -0.0795
      7 C6         27.8050   21.3990   19.6590 C.3       1 IXX        -0.0138
      8 C5         27.3790   20.1170   20.3540 C.3       1 IXX        -0.0138
      9 N1         27.5730   21.5670   22.8480 N.pl3     1 IXX        -0.2667
     10 C3         23.8880   19.7000   21.7310 C.ar      1 IXX        -0.0811
     11 N2         28.6990   17.6650   25.1850 N.4       1 IXX         0.2310
     12 C4         25.0120   19.6310   20.9280 C.ar      1 IXX        -0.0704
     13 C1         25.1470   21.0270   23.3410 C.ar      1 IXX        -0.0464
     14 C12        28.1710   22.6260   20.5470 C.ar      1 IXX        -0.0185
     15 C13        26.2310   20.2430   21.2890 C.ar      1 IXX        -0.0185
     16 C14        26.3100   20.9490   22.5070 C.ar      1 IXX         0.0618
     17 C15        28.2000   21.3890   24.2140 C.3       1 IXX         0.0470
     18 C16        27.9200   20.0600   24.9640 C.3       1 IXX         0.0107
     19 C17        28.6080   18.8840   24.3110 C.3       1 IXX        -0.0303
     20 C18        29.6650   16.6810   24.6660 C.3       1 IXX        -0.0433
     21 C19        27.3550   17.0210   25.3210 C.3       1 IXX        -0.0433
     22 H1         28.3644   23.9516   23.7668 H         1 IXX         0.0506
     23 H2         29.1937   25.9140   22.4967 H         1 IXX         0.0528
     24 H3         29.3694   25.8095   20.0253 H         1 IXX         0.0494
     25 H4         28.7414   23.7728   18.8150 H         1 IXX         0.0521
     26 H5         23.0565   20.4513   23.5776 H         1 IXX         0.0528
     27 H6         26.9774   21.7057   19.0025 H         1 IXX         0.0421
     28 H7         28.6888   21.1619   19.0485 H         1 IXX         0.0421
     29 H8         28.2402   19.7395   20.9249 H         1 IXX         0.0421
     30 H9         27.1048   19.3869   19.5783 H         1 IXX         0.0421
     31 H10        22.9697   19.2153   21.4198 H         1 IXX         0.0494
     32 H11        29.0082   17.9583   26.0985 H         1 IXX         0.2028
     33 H12        24.9546   19.0892   19.9909 H         1 IXX         0.0521
     34 H13        25.1908   21.5701   24.2781 H         1 IXX         0.0506
     35 H14        27.8387   22.2093   24.8516 H         1 IXX         0.0560
     36 H15        29.2897   21.4737   24.0898 H         1 IXX         0.0560
     37 H16        26.8352   19.8778   24.9702 H         1 IXX         0.0340
     38 H17        28.2821   20.1532   25.9985 H         1 IXX         0.0340
     39 H18        28.0482   18.6170   23.4025 H         1 IXX         0.0815
     40 H19        29.6284   19.1894   24.0365 H         1 IXX         0.0815
     41 H20        29.6967   15.8096   25.3365 H         1 IXX         0.0777
     42 H21        30.6634   17.1398   24.6135 H         1 IXX         0.0777
     43 H22        29.3561   16.3590   23.6606 H         1 IXX         0.0777
     44 H23        26.6339   17.7558   25.7085 H         1 IXX         0.0777
     45 H24        27.4238   16.1724   26.0175 H         1 IXX         0.0777
     46 H25        27.0193   16.6616   24.3371 H         1 IXX         0.0777
@<TRIPOS>BOND
     1    1    2 ar 
     2    9    1 1  
     3    1   14 ar 
     4    2    3 ar 
     5    3    4 ar 
     6    5    4 ar 
     7   14    5 ar 
     8    6   10 ar 
     9   13    6 ar 
    10    8    7 1  
    11   14    7 1  
    12   15    8 1  
    13    9   16 1  
    14   17    9 1  
    15   12   10 ar 
    16   19   11 1  
    17   11   20 1  
    18   11   21 1  
    19   15   12 ar 
    20   16   13 ar 
    21   16   15 ar 
    22   18   17 1  
    23   18   19 1  
    24    2   22 1  
    25    3   23 1  
    26    4   24 1  
    27    5   25 1  
    28    6   26 1  
    29    7   27 1  
    30    7   28 1  
    31    8   29 1  
    32    8   30 1  
    33   10   31 1  
    34   11   32 1  
    35   12   33 1  
    36   13   34 1  
    37   17   35 1  
    38   17   36 1  
    39   18   37 1  
    40   18   38 1  
    41   19   39 1  
    42   19   40 1  
    43   20   41 1  
    44   20   42 1  
    45   20   43 1  
    46   21   44 1  
    47   21   45 1  
    48   21   46 1  
@<TRIPOS>SUBSTRUCTURE
     1 IXX         1

