### 
### Created by X-TOOL on Mon Sep 10 21:12:56 2018
### 

@<TRIPOS>MOLECULE
2q7m_ligand
   75    79     1     0     0
SMALL
GAST_HUCK


@<TRIPOS>ATOM
      1 C1         60.8710   52.3110   42.5250 C.3       1 2CS        -0.0534
      2 C2         62.0850   53.1430   42.0480 C.3       1 2CS         0.0215
      3 C3         62.4080   54.1130   43.1190 C.2       1 2CS         0.0524
      4 O4         61.8280   55.2120   43.2380 O.co2     1 2CS        -0.5474
      5 O5         63.2610   53.9310   44.0160 O.co2     1 2CS        -0.5474
      6 C7         61.7560   53.7760   40.6490 C.3       1 2CS         0.0099
      7 C8         62.1750   55.1520   40.3200 C.2       1 2CS         0.0505
      8 C10        64.4250   54.9360   41.0680 C.3       1 2CS         0.0817
      9 C11        64.8740   54.2090   39.9380 C.ar      1 2CS        -0.0148
     10 C12        64.5890   54.6640   38.6280 C.ar      1 2CS        -0.0572
     11 C13        65.0420   53.9000   37.5650 C.ar      1 2CS        -0.0545
     12 C14        65.5680   53.0760   40.2830 C.ar      1 2CS        -0.0572
     13 C15        66.0210   52.3170   39.2430 C.ar      1 2CS        -0.0545
     14 C16        65.7570   52.7470   37.9470 C.ar      1 2CS         0.0330
     15 C19        64.6280   57.7940   40.2020 C.ar      1 2CS        -0.0532
     16 C20        64.4750   59.0980   39.7300 C.ar      1 2CS        -0.0490
     17 C21        62.2240   57.2770   39.6440 C.ar      1 2CS        -0.0311
     18 C22        62.0740   58.6130   39.1520 C.ar      1 2CS        -0.0527
     19 C27        65.6630   63.2260   38.3100 C.ar      1 2CS        -0.0251
     20 C30        66.5430   61.4110   36.3470 C.ar      1 2CS         0.0363
     21 C31        66.9780   60.4840   35.3540 C.ar      1 2CS        -0.0435
     22 C32        68.1110   60.8440   34.5560 C.ar      1 2CS        -0.0585
     23 C33        68.7750   62.0880   34.7470 C.ar      1 2CS        -0.0581
     24 C34        68.3450   63.0240   35.7330 C.ar      1 2CS        -0.0488
     25 C28        66.7780   63.5630   37.5090 C.ar      1 2CS        -0.0375
     26 C29        67.2260   62.6690   36.5300 C.ar      1 2CS         0.0021
     27 N35        65.4620   61.1220   37.1440 N.ar      1 2CS        -0.2979
     28 C26        65.0220   61.9880   38.1060 C.ar      1 2CS         0.0568
     29 C25        63.8920   61.7330   39.0070 C.3       1 2CS         0.1184
     30 O24        63.1060   60.6680   38.7670 O.3       1 2CS        -0.3116
     31 C23        63.2230   59.4900   39.2130 C.ar      1 2CS         0.0725
     32 C18        63.4820   56.9350   40.1480 C.ar      1 2CS         0.0521
     33 C36        61.3720   56.1170   39.7540 C.2       1 2CS         0.0051
     34 S37        59.7040   55.8150   39.2760 S.3       1 2CS        -0.1366
     35 C38        60.0020   55.4790   37.4530 C.3       1 2CS         0.0123
     36 C41        59.2290   54.2720   36.9390 C.3       1 2CS        -0.0499
     37 C39        59.5480   56.6850   36.6060 C.3       1 2CS        -0.0499
     38 C40        61.4550   55.2530   36.9980 C.3       1 2CS        -0.0499
     39 C6         63.2430   52.1320   41.9190 C.3       1 2CS        -0.0534
     40 N9         63.3780   55.6570   40.5300 N.pl3     1 2CS        -0.2601
     41 CL17       66.3990   51.6950   36.8440 Cl        1 2CS        -0.0771
     42 H1         60.6025   51.5772   41.7508 H         1 2CS         0.0228
     43 H2         60.0172   52.9799   42.7080 H         1 2CS         0.0228
     44 H3         61.1302   51.7843   43.4552 H         1 2CS         0.0228
     45 H4         60.6615   53.7486   40.5429 H         1 2CS         0.0440
     46 H5         62.2141   53.1206   39.8936 H         1 2CS         0.0440
     47 H6         65.2113   55.5989   41.4583 H         1 2CS         0.0755
     48 H7         64.0814   54.2640   41.8682 H         1 2CS         0.0755
     49 H8         64.0343   55.5805   38.4622 H         1 2CS         0.0558
     50 H9         64.8622   54.1658   36.5296 H         1 2CS         0.0606
     51 H10        65.7451   52.8013   41.3166 H         1 2CS         0.0558
     52 H11        66.5730   51.4015   39.4227 H         1 2CS         0.0606
     53 H12        65.5762   57.4444   40.5941 H         1 2CS         0.0515
     54 H13        65.3032   59.7968   39.7602 H         1 2CS         0.0453
     55 H14        61.1293   58.9567   38.7465 H         1 2CS         0.0406
     56 H15        65.3060   63.9107   39.0708 H         1 2CS         0.0661
     57 H16        66.4679   59.5387   35.2084 H         1 2CS         0.0623
     58 H17        68.4681   60.1591   33.7954 H         1 2CS         0.0645
     59 H18        69.6302   62.3305   34.1266 H         1 2CS         0.0622
     60 H19        68.8540   63.9714   35.8686 H         1 2CS         0.0649
     61 H20        67.2843   64.5107   37.6526 H         1 2CS         0.0764
     62 H21        63.2479   62.6243   38.9800 H         1 2CS         0.0819
     63 H22        64.3052   61.6098   40.0189 H         1 2CS         0.0819
     64 H23        59.4439   54.1271   35.8700 H         1 2CS         0.0244
     65 H24        58.1509   54.4413   37.0766 H         1 2CS         0.0244
     66 H25        59.5338   53.3757   37.4990 H         1 2CS         0.0244
     67 H26        59.7284   56.4741   35.5416 H         1 2CS         0.0244
     68 H27        60.1171   57.5777   36.9045 H         1 2CS         0.0244
     69 H28        58.4747   56.8634   36.7677 H         1 2CS         0.0244
     70 H29        61.4753   55.0693   35.9136 H         1 2CS         0.0244
     71 H30        61.8732   54.3828   37.5251 H         1 2CS         0.0244
     72 H31        62.0549   56.1453   37.2300 H         1 2CS         0.0244
     73 H32        63.4619   51.6974   42.9055 H         1 2CS         0.0228
     74 H33        64.1378   52.6460   41.5381 H         1 2CS         0.0228
     75 H34        62.9550   51.3316   41.2215 H         1 2CS         0.0228
@<TRIPOS>BOND
     1    2    1 1  
     2    2    3 1  
     3    6    2 1  
     4    2   39 1  
     5    3    4 ar 
     6    3    5 ar 
     7    7    6 1  
     8   33    7 2  
     9    7   40 1  
    10    8    9 1  
    11   40    8 1  
    12    9   10 ar 
    13    9   12 ar 
    14   10   11 ar 
    15   11   14 ar 
    16   12   13 ar 
    17   13   14 ar 
    18   14   41 1  
    19   16   15 ar 
    20   15   32 ar 
    21   31   16 ar 
    22   18   17 ar 
    23   17   32 ar 
    24   17   33 1  
    25   31   18 ar 
    26   19   25 ar 
    27   28   19 ar 
    28   20   21 ar 
    29   20   26 ar 
    30   27   20 ar 
    31   21   22 ar 
    32   22   23 ar 
    33   24   23 ar 
    34   26   24 ar 
    35   25   26 ar 
    36   28   27 ar 
    37   29   28 1  
    38   30   29 1  
    39   30   31 1  
    40   32   40 1  
    41   33   34 1  
    42   34   35 1  
    43   35   36 1  
    44   35   37 1  
    45   35   38 1  
    46    1   42 1  
    47    1   43 1  
    48    1   44 1  
    49    6   45 1  
    50    6   46 1  
    51    8   47 1  
    52    8   48 1  
    53   10   49 1  
    54   11   50 1  
    55   12   51 1  
    56   13   52 1  
    57   15   53 1  
    58   16   54 1  
    59   18   55 1  
    60   19   56 1  
    61   21   57 1  
    62   22   58 1  
    63   23   59 1  
    64   24   60 1  
    65   25   61 1  
    66   29   62 1  
    67   29   63 1  
    68   36   64 1  
    69   36   65 1  
    70   36   66 1  
    71   37   67 1  
    72   37   68 1  
    73   37   69 1  
    74   38   70 1  
    75   38   71 1  
    76   38   72 1  
    77   39   73 1  
    78   39   74 1  
    79   39   75 1  
@<TRIPOS>SUBSTRUCTURE
     1 2CS         1

