### 
### Created by X-TOOL on Mon Sep 10 21:12:58 2018
### 

@<TRIPOS>MOLECULE
2q7o_ligand
   34    36     1     0     0
SMALL
GAST_HUCK


@<TRIPOS>ATOM
      1 O5'        15.6070   10.1350   59.1990 O.3       1 IMH        -0.3894
      2 C5'        16.0170   11.3330   59.8650 C.3       1 IMH         0.0894
      3 C4'        14.7600   12.1410   59.8960 C.3       1 IMH         0.0313
      4 N4'        13.7720   11.8250   58.8620 N.4       1 IMH         0.2435
      5 C3'        15.2390   13.4920   59.5480 C.3       1 IMH         0.1317
      6 O3'        14.9920   14.2230   60.7600 O.3       1 IMH        -0.3832
      7 C2'        14.4270   13.9530   58.3060 C.3       1 IMH         0.1327
      8 O2'        13.6090   15.1090   58.6080 O.3       1 IMH        -0.3821
      9 C1'        13.5700   12.8090   57.8030 C.3       1 IMH         0.0244
     10 C9         14.1190   12.2240   56.5740 C.2       1 IMH         0.0057
     11 C8         15.0960   12.7470   55.7730 C.2       1 IMH         0.0223
     12 N7         15.3390   11.8460   54.7690 N.pl3     1 IMH        -0.2895
     13 C5         14.5790   10.7690   54.8850 C.2       1 IMH         0.1348
     14 C6         14.4100    9.5290   54.1450 C.2       1 IMH         0.2413
     15 O6         15.1740    9.3100   53.0380 O.2       1 IMH        -0.4013
     16 N1         13.4930    8.6490   54.6020 N.am      1 IMH        -0.2067
     17 C2         12.7650    8.8830   55.7080 C.2       1 IMH         0.1146
     18 N3         12.8570    9.9910   56.4660 N.2       1 IMH        -0.3199
     19 C4         13.7420   10.9120   56.0590 C.2       1 IMH         0.0184
     20 H1         16.3476    9.5443   59.1277 H         1 IMH         0.2097
     21 H2         16.8066   11.8501   59.3001 H         1 IMH         0.0614
     22 H3         16.3750   11.1180   60.8826 H         1 IMH         0.0614
     23 H4         14.2953   12.0941   60.8919 H         1 IMH         0.0900
     24 H5         12.8854   11.6898   59.3221 H         1 IMH         0.2029
     25 H6         14.0580   10.9635   58.4237 H         1 IMH         0.2029
     26 H7         16.3123   13.5027   59.3076 H         1 IMH         0.0680
     27 H8         14.0636   14.1982   60.9598 H         1 IMH         0.2102
     28 H9         15.1362   14.2327   57.5130 H         1 IMH         0.0693
     29 H10        13.1264   15.3657   57.8310 H         1 IMH         0.2103
     30 H11        12.5175   13.1001   57.6709 H         1 IMH         0.0961
     31 H12        15.5920   13.7070   55.9084 H         1 IMH         0.0779
     32 H13        16.0281   11.9896   54.0171 H         1 IMH         0.2273
     33 H14        13.3508    7.7952   54.1013 H         1 IMH         0.2519
     34 H15        12.0492    8.1208   56.0123 H         1 IMH         0.1426
@<TRIPOS>BOND
     1    1    2 1  
     2    2    3 1  
     3    3    4 1  
     4    3    5 1  
     5    4    9 1  
     6    5    6 1  
     7    5    7 1  
     8    7    8 1  
     9    7    9 1  
    10    9   10 1  
    11   10   11 2  
    12   10   19 1  
    13   11   12 1  
    14   12   13 1  
    15   13   14 1  
    16   13   19 2  
    17   14   15 2  
    18   14   16 am 
    19   16   17 am 
    20   17   18 2  
    21   18   19 1  
    22    1   20 1  
    23    2   21 1  
    24    2   22 1  
    25    3   23 1  
    26    4   24 1  
    27    4   25 1  
    28    5   26 1  
    29    6   27 1  
    30    7   28 1  
    31    8   29 1  
    32    9   30 1  
    33   11   31 1  
    34   12   32 1  
    35   16   33 1  
    36   17   34 1  
@<TRIPOS>SUBSTRUCTURE
     1 IMH         1

