### 
### Created by X-TOOL on Sun Sep  9 21:50:33 2018
### 

@<TRIPOS>MOLECULE
2q7q_ligand
   18    18     1     0     0
SMALL
GAST_HUCK


@<TRIPOS>ATOM
      1 N1         54.2170   22.2750   28.3760 N.4       1 NON         0.2309
      2 CB         52.8810   21.6540   28.5660 C.3       1 NON        -0.0015
      3 CG         51.9640   22.2060   29.5990 C.ar      1 NON         0.0015
      4 CD1        50.7820   22.8920   29.2660 C.ar      1 NON        -0.0547
      5 CE1        49.9380   23.4600   30.2370 C.ar      1 NON        -0.0544
      6 CZ         50.2600   23.3640   31.6110 C.ar      1 NON         0.0330
      7 CE2        51.4060   22.7260   32.0040 C.ar      1 NON        -0.0544
      8 CD2        52.3320   22.1080   30.9250 C.ar      1 NON        -0.0547
      9 CL         49.2570   24.0970   32.7780 Cl        1 NON        -0.0771
     10 H1         54.7124   21.7892   27.6448 H         1 NON         0.2008
     11 H2         54.7411   22.2140   29.2348 H         1 NON         0.2008
     12 H3         54.1041   23.2432   28.1193 H         1 NON         0.2008
     13 H4         53.0510   20.5971   28.8191 H         1 NON         0.0980
     14 H5         52.3558   21.7203   27.6018 H         1 NON         0.0980
     15 H6         50.5112   22.9865   28.2206 H         1 NON         0.0559
     16 H7         49.0347   23.9748   29.9304 H         1 NON         0.0606
     17 H8         51.6622   22.6540   33.0548 H         1 NON         0.0606
     18 H9         53.2516   21.6082   31.2072 H         1 NON         0.0559
@<TRIPOS>BOND
     1    1    2 1  
     2    2    3 1  
     3    3    4 ar 
     4    3    8 ar 
     5    4    5 ar 
     6    5    6 ar 
     7    6    7 ar 
     8    6    9 1  
     9    7    8 ar 
    10    1   10 1  
    11    1   11 1  
    12    1   12 1  
    13    2   13 1  
    14    2   14 1  
    15    4   15 1  
    16    5   16 1  
    17    7   17 1  
    18    8   18 1  
@<TRIPOS>SUBSTRUCTURE
     1 NON         1

