### 
### Created by X-TOOL on Fri Sep 26 17:34:41 2014
### 

@<TRIPOS>MOLECULE
2q7y_ligand
  104   104     1     0     0
SMALL
GAST_HUCK


@<TRIPOS>ATOM
      1 C1         -7.5690    1.4740   -5.5570 C.3       1 IGC        -0.0653
      2 C2         -8.7090    2.3070   -4.9650 C.3       1 IGC        -0.0559
      3 C3         -8.1840    3.5990   -4.3180 C.3       1 IGC        -0.0533
      4 C4         -8.7110    4.8520   -5.0310 C.3       1 IGC        -0.0531
      5 C5         -8.7560    6.0810   -4.1200 C.3       1 IGC        -0.0531
      6 C6        -10.1820    6.2870   -3.5660 C.3       1 IGC        -0.0531
      7 C7        -10.2560    5.9690   -2.0820 C.3       1 IGC        -0.0531
      8 C8        -10.7690    7.1730   -1.3000 C.3       1 IGC        -0.0531
      9 C9        -10.7930    6.8650    0.1920 C.3       1 IGC        -0.0531
     10 C10       -12.1870    7.0910    0.7820 C.3       1 IGC        -0.0531
     11 C11       -12.3210    6.4290    2.1390 C.3       1 IGC        -0.0531
     12 C12       -13.6550    5.7070    2.2500 C.3       1 IGC        -0.0531
     13 C13       -14.0810    5.6750    3.7020 C.3       1 IGC        -0.0530
     14 C14       -15.2390    4.9350    3.8540 C.3       1 IGC        -0.0506
     15 C15       -15.4020    4.0160    4.8850 C.3       1 IGC        -0.0246
     16 C16       -16.7530    3.3090    4.8660 C.3       1 IGC         0.0802
     17 O1        -16.6230    1.9280    4.4450 O.3       1 IGC        -0.3894
     18 C17       -17.4660    3.4000    6.2130 C.3       1 IGC         0.0911
     19 C18       -18.8170    2.6910    6.0510 C.3       1 IGC         0.0761
     20 O2        -19.5370    2.3390    7.2250 O.3       1 IGC        -0.3463
     21 C19       -20.7510    1.5420    6.9640 C.3       1 IGC         0.1880
     22 O3        -20.3800    0.1300    6.8150 O.3       1 IGC        -0.3405
     23 C20       -21.5440   -0.7360    7.1260 C.3       1 IGC         0.1130
     24 C21       -21.0910   -2.1960    7.3700 C.3       1 IGC         0.0730
     25 O4        -19.9210   -2.2070    8.2080 O.3       1 IGC        -0.3924
     26 C22       -22.6090   -0.5470    6.0210 C.3       1 IGC         0.1119
     27 O5        -23.7960   -1.3120    6.2840 O.3       1 IGC        -0.3865
     28 C35       -22.9880    0.9470    5.8930 C.3       1 IGC         0.1141
     29 O16       -23.8520    1.1220    4.7580 O.3       1 IGC        -0.3864
     30 C36       -21.7430    1.8770    5.8030 C.3       1 IGC         0.1341
     31 O17       -22.1440    3.2560    5.8410 O.3       1 IGC        -0.3841
     32 N1        -17.6720    4.8220    6.5400 N.am      1 IGC        -0.2792
     33 C37       -17.1740    5.4280    7.6180 C.2       1 IGC         0.1764
     34 O18       -16.4810    4.8630    8.4720 O.2       1 IGC        -0.3971
     35 C38       -17.5450    6.9270    7.7250 C.3       1 IGC         0.0372
     36 C39       -16.4080    7.8220    8.2410 C.3       1 IGC        -0.0361
     37 C40       -15.5340    8.2960    7.0830 C.3       1 IGC        -0.0510
     38 C41       -14.3930    9.2080    7.5600 C.3       1 IGC        -0.0529
     39 C42       -13.4310    9.5740    6.3970 C.3       1 IGC        -0.0533
     40 C43       -12.4520   10.6670    6.8240 C.3       1 IGC        -0.0559
     41 C44       -11.0810   10.5620    6.1240 C.3       1 IGC        -0.0653
     42 H1         -7.9800    0.5598   -6.0101 H         1 IGC         0.0230
     43 H2         -6.8614    1.2020   -4.7600 H         1 IGC         0.0230
     44 H3         -7.0466    2.0616   -6.3263 H         1 IGC         0.0230
     45 H4         -9.2288    1.7101   -4.2011 H         1 IGC         0.0263
     46 H5         -9.4140    2.5698   -5.7674 H         1 IGC         0.0263
     47 H6         -7.0850    3.5990   -4.3650 H         1 IGC         0.0265
     48 H7         -8.5061    3.6264   -3.2666 H         1 IGC         0.0265
     49 H8         -9.7288    4.6471   -5.3945 H         1 IGC         0.0265
     50 H9         -8.0540    5.0722   -5.8853 H         1 IGC         0.0265
     51 H10        -8.4586    6.9701   -4.6955 H         1 IGC         0.0265
     52 H11        -8.0587    5.9367   -3.2816 H         1 IGC         0.0265
     53 H12       -10.8746    5.6261   -4.1078 H         1 IGC         0.0265
     54 H13       -10.4778    7.3350   -3.7218 H         1 IGC         0.0265
     55 H14        -9.2523    5.7031   -1.7188 H         1 IGC         0.0265
     56 H15       -10.9386    5.1203   -1.9277 H         1 IGC         0.0265
     57 H16       -11.7876    7.4167   -1.6363 H         1 IGC         0.0265
     58 H17       -10.1072    8.0325   -1.4822 H         1 IGC         0.0265
     59 H18       -10.0754    7.5218    0.7055 H         1 IGC         0.0265
     60 H19       -10.5042    5.8149    0.3462 H         1 IGC         0.0265
     61 H20       -12.9386    6.6668    0.1000 H         1 IGC         0.0265
     62 H21       -12.3596    8.1718    0.8914 H         1 IGC         0.0265
     63 H22       -12.2586    7.1969    2.9241 H         1 IGC         0.0265
     64 H23       -11.5047    5.7034    2.2700 H         1 IGC         0.0265
     65 H24       -13.5497    4.6786    1.8742 H         1 IGC         0.0265
     66 H25       -14.4124    6.2389    1.6555 H         1 IGC         0.0265
     67 H26       -14.2613    6.7033    4.0485 H         1 IGC         0.0265
     68 H27       -13.2801    5.2204    4.3036 H         1 IGC         0.0265
     69 H28       -15.3684    4.3720    2.9179 H         1 IGC         0.0266
     70 H29       -16.0567    5.6631    3.9600 H         1 IGC         0.0266
     71 H30       -15.3011    4.5469    5.8431 H         1 IGC         0.0291
     72 H31       -14.6110    3.2562    4.8017 H         1 IGC         0.0291
     73 H32       -17.3816    3.8241    4.1248 H         1 IGC         0.0617
     74 H33       -17.4793    1.5166    4.4437 H         1 IGC         0.2099
     75 H34       -16.8714    2.9148    7.0011 H         1 IGC         0.0604
     76 H35       -18.6327    1.7623    5.4910 H         1 IGC         0.0585
     77 H36       -19.4642    3.3542    5.4584 H         1 IGC         0.0585
     78 H37       -21.3470    1.6359    7.8838 H         1 IGC         0.0937
     79 H38       -21.9894   -0.3823    8.0676 H         1 IGC         0.0647
     80 H39       -20.8552   -2.6716    6.4066 H         1 IGC         0.0584
     81 H40       -21.9006   -2.7522    7.8651 H         1 IGC         0.0584
     82 H41       -19.2217   -1.7270    7.7800 H         1 IGC         0.2095
     83 H42       -22.1796   -0.8868    5.0670 H         1 IGC         0.0647
     84 H43       -24.4241   -1.1700    5.5855 H         1 IGC         0.2100
     85 H44       -23.5476    1.2313    6.7963 H         1 IGC         0.0648
     86 H45       -24.6386    0.6028    4.8772 H         1 IGC         0.2100
     87 H46       -21.2341    1.6914    4.8456 H         1 IGC         0.0671
     88 H47       -21.3743    3.8101    5.7853 H         1 IGC         0.2101
     89 H48       -18.2229    5.3698    5.9104 H         1 IGC         0.1856
     90 H49       -18.3984    7.0229    8.4123 H         1 IGC         0.0502
     91 H50       -17.8372    7.2822    6.7258 H         1 IGC         0.0502
     92 H51       -15.7909    7.2507    8.9501 H         1 IGC         0.0290
     93 H52       -16.8385    8.6963    8.7511 H         1 IGC         0.0290
     94 H53       -16.1599    8.8532    6.3704 H         1 IGC         0.0267
     95 H54       -15.1009    7.4177    6.5820 H         1 IGC         0.0267
     96 H55       -13.8236    8.6874    8.3441 H         1 IGC         0.0265
     97 H56       -14.8233   10.1327    7.9720 H         1 IGC         0.0265
     98 H57       -14.0209    9.9331    5.5408 H         1 IGC         0.0265
     99 H58       -12.8647    8.6782    6.1023 H         1 IGC         0.0265
    100 H59       -12.2965   10.5922    7.9104 H         1 IGC         0.0263
    101 H60       -12.8934   11.6453    6.5832 H         1 IGC         0.0263
    102 H61       -10.4272   11.3742    6.4745 H         1 IGC         0.0230
    103 H62       -11.2176   10.6451    5.0357 H         1 IGC         0.0230
    104 H63       -10.6207    9.5919    6.3628 H         1 IGC         0.0230
@<TRIPOS>BOND
     1    1    2 1  
     2    2    3 1  
     3    3    4 1  
     4    4    5 1  
     5    5    6 1  
     6    6    7 1  
     7    7    8 1  
     8    8    9 1  
     9    9   10 1  
    10   10   11 1  
    11   11   12 1  
    12   12   13 1  
    13   13   14 1  
    14   14   15 1  
    15   15   16 1  
    16   16   17 1  
    17   16   18 1  
    18   18   19 1  
    19   18   32 1  
    20   19   20 1  
    21   20   21 1  
    22   21   22 1  
    23   21   30 1  
    24   22   23 1  
    25   23   24 1  
    26   23   26 1  
    27   24   25 1  
    28   26   27 1  
    29   26   28 1  
    30   28   29 1  
    31   28   30 1  
    32   30   31 1  
    33   32   33 am 
    34   33   34 2  
    35   33   35 1  
    36   35   36 1  
    37   36   37 1  
    38   37   38 1  
    39   38   39 1  
    40   39   40 1  
    41   40   41 1  
    42    1   42 1  
    43    1   43 1  
    44    1   44 1  
    45    2   45 1  
    46    2   46 1  
    47    3   47 1  
    48    3   48 1  
    49    4   49 1  
    50    4   50 1  
    51    5   51 1  
    52    5   52 1  
    53    6   53 1  
    54    6   54 1  
    55    7   55 1  
    56    7   56 1  
    57    8   57 1  
    58    8   58 1  
    59    9   59 1  
    60    9   60 1  
    61   10   61 1  
    62   10   62 1  
    63   11   63 1  
    64   11   64 1  
    65   12   65 1  
    66   12   66 1  
    67   13   67 1  
    68   13   68 1  
    69   14   69 1  
    70   14   70 1  
    71   15   71 1  
    72   15   72 1  
    73   16   73 1  
    74   17   74 1  
    75   18   75 1  
    76   19   76 1  
    77   19   77 1  
    78   21   78 1  
    79   23   79 1  
    80   24   80 1  
    81   24   81 1  
    82   25   82 1  
    83   26   83 1  
    84   27   84 1  
    85   28   85 1  
    86   29   86 1  
    87   30   87 1  
    88   31   88 1  
    89   32   89 1  
    90   35   90 1  
    91   35   91 1  
    92   36   92 1  
    93   36   93 1  
    94   37   94 1  
    95   37   95 1  
    96   38   96 1  
    97   38   97 1  
    98   39   98 1  
    99   39   99 1  
   100   40  100 1  
   101   40  101 1  
   102   41  102 1  
   103   41  103 1  
   104   41  104 1  
@<TRIPOS>SUBSTRUCTURE
     1 IGC         1

