### 
### Created by X-TOOL on Mon Sep 10 21:12:59 2018
### 

@<TRIPOS>MOLECULE
2q88_ligand
   19    19     1     0     0
SMALL
GAST_HUCK


@<TRIPOS>ATOM
      1 O          24.0780   41.6350   73.3820 O.co2     1 4CS        -0.5665
      2 C          23.5290   40.8460   72.6130 C.2       1 4CS         0.0612
      3 OXT        24.0220   40.6220   71.5010 O.co2     1 4CS        -0.5665
      4 CA         22.2270   40.1680   73.0190 C.3       1 4CS         0.0983
      5 CB         22.2010   39.7480   74.4760 C.3       1 4CS        -0.0138
      6 CAD        20.8430   39.1210   74.8070 C.3       1 4CS        -0.0217
      7 NAG        20.5780   37.9940   73.8750 N.2       1 4CS        -0.3750
      8 CAI        21.1280   37.9710   72.5840 C.2       1 4CS         0.0901
      9 CAA        20.8530   36.7870   71.6410 C.3       1 4CS         0.0187
     10 N          21.9620   39.0090   72.1470 N.pl3     1 4CS        -0.2736
     11 H1         21.4162   40.8966   72.8719 H         1 4CS         0.0739
     12 H2         22.3622   40.6295   75.1139 H         1 4CS         0.0308
     13 H3         22.9980   39.0123   74.6590 H         1 4CS         0.0308
     14 H4         20.0531   39.8790   74.6998 H         1 4CS         0.0302
     15 H5         20.8541   38.7467   75.8413 H         1 4CS         0.0302
     16 H6         20.1845   36.0693   72.1390 H         1 4CS         0.0525
     17 H7         21.8018   36.2906   71.3894 H         1 4CS         0.0525
     18 H8         20.3760   37.1545   70.7204 H         1 4CS         0.0525
     19 H9         22.3919   38.9620   71.2122 H         1 4CS         0.1956
@<TRIPOS>BOND
     1    1    2 ar 
     2    2    3 ar 
     3    2    4 1  
     4    4    5 1  
     5    4   10 1  
     6    5    6 1  
     7    6    7 1  
     8    7    8 2  
     9    8    9 1  
    10    8   10 1  
    11    4   11 1  
    12    5   12 1  
    13    5   13 1  
    14    6   14 1  
    15    6   15 1  
    16    9   16 1  
    17    9   17 1  
    18    9   18 1  
    19   10   19 1  
@<TRIPOS>SUBSTRUCTURE
     1 4CS         1

