### 
### Created by X-TOOL on Mon Sep 10 21:12:59 2018
### 

@<TRIPOS>MOLECULE
2q89_ligand
   20    20     1     0     0
SMALL
GAST_HUCK


@<TRIPOS>ATOM
      1 O          15.6550   24.2200   32.7830 O.co2     1 6CS        -0.5684
      2 C          16.3760   23.6530   31.9400 C.2       1 6CS         0.0437
      3 OXT        16.5880   24.0770   30.7810 O.co2     1 6CS        -0.5684
      4 CA         17.0450   22.3110   32.3500 C.3       1 6CS         0.0675
      5 N          18.1960   22.0150   31.4680 N.2       1 6CS        -0.3547
      6 CAI        19.2850   21.2470   31.9200 C.2       1 6CS         0.0903
      7 CAA        20.4450   20.9610   30.9830 C.3       1 6CS         0.0187
      8 NAG        19.3380   20.7470   33.2290 N.pl3     1 6CS        -0.2867
      9 CG2        18.2350   20.9940   34.1750 C.3       1 6CS         0.0629
     10 CB         17.4710   22.2800   33.8380 C.3       1 6CS         0.0935
     11 OG1        16.3180   22.2720   34.6690 O.3       1 6CS        -0.3875
     12 H1         16.2990   21.5154   32.2069 H         1 6CS         0.0528
     13 H2         20.2468   21.4204   30.0034 H         1 6CS         0.0525
     14 H3         20.5589   19.8737   30.8617 H         1 6CS         0.0525
     15 H4         21.3696   21.3818   31.4050 H         1 6CS         0.0525
     16 H5         20.1568   20.2010   33.5328 H         1 6CS         0.1932
     17 H6         18.6498   21.0823   35.1900 H         1 6CS         0.0560
     18 H7         17.5367   20.1450   34.1368 H         1 6CS         0.0560
     19 H8         18.0954   23.1590   34.0559 H         1 6CS         0.0637
     20 H9         15.7973   21.5006   34.4788 H         1 6CS         0.2100
@<TRIPOS>BOND
     1    1    2 ar 
     2    2    3 ar 
     3    2    4 1  
     4    4    5 1  
     5    4   10 1  
     6    5    6 2  
     7    6    7 1  
     8    6    8 1  
     9    8    9 1  
    10    9   10 1  
    11   10   11 1  
    12    4   12 1  
    13    7   13 1  
    14    7   14 1  
    15    7   15 1  
    16    8   16 1  
    17    9   17 1  
    18    9   18 1  
    19   10   19 1  
    20   11   20 1  
@<TRIPOS>SUBSTRUCTURE
     1 6CS         1

