### 
### Created by X-TOOL on Mon Sep 10 21:12:56 2018
### 

@<TRIPOS>MOLECULE
2q8g_ligand
   49    50     1     0     0
SMALL
GAST_HUCK


@<TRIPOS>ATOM
      1 F29        -4.4200   40.8940    0.7420 F         1 AZX        -0.1687
      2 C27        -4.3670   40.3270    1.9280 C.3       1 AZX         0.4247
      3 F30        -4.7200   39.0570    1.8500 F         1 AZX        -0.1687
      4 F31        -3.1450   40.3520    2.4670 F         1 AZX        -0.1687
      5 C24        -5.2520   41.1730    2.8510 C.3       1 AZX         0.2428
      6 O25        -4.7350   42.5210    2.7380 O.3       1 AZX        -0.3774
      7 C26        -6.7180   41.2080    2.4590 C.3       1 AZX        -0.0200
      8 C23        -5.0650   40.7130    4.2850 C.2       1 AZX         0.2625
      9 O28        -5.4560   39.6220    4.6620 O.2       1 AZX        -0.3321
     10 N22        -4.4610   41.5610    5.1010 N.am      1 AZX        -0.2294
     11 C18        -4.0520   41.2630    6.3720 C.ar      1 AZX         0.0820
     12 C17        -4.0290   39.9800    6.9500 C.ar      1 AZX        -0.0379
     13 C16        -3.5560   39.8390    8.2760 C.ar      1 AZX        -0.0494
     14 C19        -3.5630   42.4100    7.1950 C.ar      1 AZX         0.0621
     15 CL1        -3.6280   44.0430    6.4730 Cl        1 AZX        -0.0824
     16 C20        -3.1110   42.2210    8.5090 C.ar      1 AZX        -0.0357
     17 C15        -3.0900   40.9230    9.0560 C.ar      1 AZX         0.0798
     18 S12        -2.5880   40.7410   10.6140 S.o2      1 AZX         0.0206
     19 O14        -1.8160   39.5570   10.8740 O.2       1 AZX        -0.1656
     20 O15        -1.7850   41.8860   10.9640 O.2       1 AZX        -0.1656
     21 C1         -3.9490   40.7310   11.4200 C.ar      1 AZX         0.0959
     22 C6         -4.4990   41.9290   11.8930 C.ar      1 AZX        -0.0310
     23 C5         -5.7020   41.9280   12.5980 C.ar      1 AZX        -0.0401
     24 C2         -4.5890   39.5250   11.6030 C.ar      1 AZX        -0.0310
     25 C3         -5.7940   39.5050   12.2910 C.ar      1 AZX        -0.0401
     26 C4         -6.3500   40.7020   12.7880 C.ar      1 AZX         0.0501
     27 C7         -7.6650   40.5970   13.5370 C.2       1 AZX         0.2069
     28 O8         -7.7350   39.6930   14.3860 O.2       1 AZX        -0.3845
     29 N9         -8.7020   41.4370   13.2660 N.am      1 AZX        -0.2785
     30 C11        -8.8390   42.2310   12.0440 C.3       1 AZX         0.0218
     31 C10        -9.8320   41.6260   14.1860 C.3       1 AZX         0.0218
     32 H1         -5.2444   43.1017    3.2909 H         1 AZX         0.2081
     33 H2         -7.2734   41.8344    3.1725 H         1 AZX         0.0246
     34 H3         -7.1258   40.1865    2.4731 H         1 AZX         0.0246
     35 H4         -6.8171   41.6285    1.4474 H         1 AZX         0.0246
     36 H5         -4.2910   42.4872    4.7644 H         1 AZX         0.2279
     37 H6         -4.3674   39.1159    6.3897 H         1 AZX         0.0508
     38 H7         -3.5505   38.8488    8.7170 H         1 AZX         0.0599
     39 H8         -2.7801   43.0677    9.0996 H         1 AZX         0.0603
     40 H9         -3.9848   42.8655   11.7094 H         1 AZX         0.0648
     41 H10        -6.1224   42.8483   12.9869 H         1 AZX         0.0670
     42 H11        -4.1591   38.6080   11.2165 H         1 AZX         0.0648
     43 H12        -6.3104   38.5648   12.4472 H         1 AZX         0.0670
     44 H13        -9.7685   42.8175   12.0901 H         1 AZX         0.0486
     45 H14        -8.8715   41.5604   11.1727 H         1 AZX         0.0486
     46 H15        -7.9801   42.9119   11.9509 H         1 AZX         0.0486
     47 H16        -9.6803   41.0097   15.0844 H         1 AZX         0.0486
     48 H17       -10.7650   41.3242   13.6876 H         1 AZX         0.0486
     49 H18        -9.8965   42.6855   14.4747 H         1 AZX         0.0486
@<TRIPOS>BOND
     1    1    2 1  
     2    2    3 1  
     3    2    4 1  
     4    2    5 1  
     5    5    6 1  
     6    5    7 1  
     7    5    8 1  
     8    8    9 2  
     9    8   10 am 
    10   10   11 1  
    11   11   12 ar 
    12   11   14 ar 
    13   12   13 ar 
    14   13   17 ar 
    15   14   15 1  
    16   14   16 ar 
    17   16   17 ar 
    18   17   18 1  
    19   18   19 2  
    20   18   20 2  
    21   18   21 1  
    22   21   22 ar 
    23   21   24 ar 
    24   22   23 ar 
    25   23   26 ar 
    26   24   25 ar 
    27   25   26 ar 
    28   26   27 1  
    29   27   28 2  
    30   27   29 am 
    31   29   30 1  
    32   29   31 1  
    33    6   32 1  
    34    7   33 1  
    35    7   34 1  
    36    7   35 1  
    37   10   36 1  
    38   12   37 1  
    39   13   38 1  
    40   16   39 1  
    41   22   40 1  
    42   23   41 1  
    43   24   42 1  
    44   25   43 1  
    45   30   44 1  
    46   30   45 1  
    47   30   46 1  
    48   31   47 1  
    49   31   48 1  
    50   31   49 1  
@<TRIPOS>SUBSTRUCTURE
     1 AZX         1

