### 
### Created by X-TOOL on Mon Sep 10 21:12:56 2018
### 

@<TRIPOS>MOLECULE
2q8h_ligand
    7     6     1     0     0
SMALL
GAST_HUCK


@<TRIPOS>ATOM
      1 C1          0.5640   38.7870   -9.6890 C.3       1 TF4         0.1597
      2 C           1.9860   38.4800   -9.2930 C.2       1 TF4         0.0674
      3 O           2.8260   39.3890   -9.2660 O.co2     1 TF4        -0.5663
      4 CL1         0.0510   37.5060  -10.8710 Cl        1 TF4        -0.0875
      5 CL2         0.4830   40.5390  -10.1650 Cl        1 TF4        -0.0875
      6 O2          2.2950   37.3190   -8.9940 O.co2     1 TF4        -0.5663
      7 H1         -0.0838   38.6756   -8.8070 H         1 TF4         0.0804
@<TRIPOS>BOND
     1    1    2 1  
     2    1    4 1  
     3    1    5 1  
     4    2    3 ar 
     5    2    6 ar 
     6    1    7 1  
@<TRIPOS>SUBSTRUCTURE
     1 TF4         1

