### 
### Created by X-TOOL on Mon Sep 10 21:12:56 2018
### 

@<TRIPOS>MOLECULE
2q8i_ligand
   42    44     1     0     0
SMALL
GAST_HUCK


@<TRIPOS>ATOM
      1 C1        -48.8340   21.5200   66.0020 C.2       1 RDC         0.2451
      2 C2        -49.9830   21.3490   66.9130 C.ar      1 RDC         0.0834
      3 C3        -50.7330   22.5800   67.2160 C.ar      1 RDC         0.0971
      4 C4        -51.8400   22.5770   68.0540 C.ar      1 RDC        -0.0045
      5 C5        -52.2250   21.3570   68.5790 C.ar      1 RDC         0.0931
      6 C6        -51.5200   20.0860   68.2780 C.ar      1 RDC         0.0654
      7 C7        -50.3600   20.0250   67.4620 C.ar      1 RDC        -0.0069
      8 C8        -49.7260   18.6810   67.1680 C.3       1 RDC         0.0497
      9 C9        -49.2710   17.8950   68.3810 C.2       1 RDC         0.1176
     10 C10       -48.5860   18.5240   69.5770 C.2       1 RDC        -0.0220
     11 C11       -47.6430   19.4450   69.3540 C.2       1 RDC        -0.0641
     12 C12       -46.9190   20.1300   70.4400 C.2       1 RDC        -0.0558
     13 C13       -46.2860   21.3070   70.2840 C.2       1 RDC        -0.0298
     14 C14       -46.2740   22.0750   68.9770 C.3       1 RDC         0.1255
     15 C15       -45.1850   21.6570   67.9610 C.3       1 RDC         0.1057
     16 C16       -45.4880   22.2520   66.5600 C.3       1 RDC         0.0093
     17 C17       -46.4270   21.3820   65.7310 C.3       1 RDC         0.0858
     18 C18       -45.7410   20.0360   65.4190 C.3       1 RDC        -0.0343
     19 O1        -47.5910   21.0780   66.5160 O.3       1 RDC        -0.2787
     20 O2        -48.9640   22.0170   64.9020 O.2       1 RDC        -0.3725
     21 O3        -50.2380   23.6910   66.6010 O.3       1 RDC        -0.3313
     22 O4        -53.2750   21.2510   69.4170 O.3       1 RDC        -0.3330
     23 CL1       -52.0140   18.5270   68.9210 Cl        1 RDC        -0.0932
     24 O5        -49.4560   16.7000   68.3340 O.2       1 RDC        -0.3923
     25 O6        -45.0380   22.7570   68.8420 O.3       1 RDC        -0.3469
     26 H1        -52.3778   23.4891   68.2861 H         1 RDC         0.0425
     27 H2        -48.8487   18.8530   66.5271 H         1 RDC         0.0645
     28 H3        -50.4625   18.0703   66.6253 H         1 RDC         0.0645
     29 H4        -48.8547   18.2336   70.5916 H         1 RDC         0.0499
     30 H5        -47.3988   19.7006   68.3240 H         1 RDC         0.0706
     31 H6        -46.8952   19.6581   71.4212 H         1 RDC         0.0474
     32 H7        -45.7569   21.7282   71.1376 H         1 RDC         0.0885
     33 H8        -47.2561   22.4708   68.6791 H         1 RDC         0.0863
     34 H9        -44.6203   20.7133   67.9822 H         1 RDC         0.0661
     35 H10       -44.5396   22.3623   66.0139 H         1 RDC         0.0322
     36 H11       -45.9521   23.2405   66.6923 H         1 RDC         0.0322
     37 H12       -46.7061   21.9007   64.8020 H         1 RDC         0.0645
     38 H13       -46.4187   19.4090   64.8211 H         1 RDC         0.0258
     39 H14       -45.4996   19.5206   66.3603 H         1 RDC         0.0258
     40 H15       -44.8156   20.2186   64.8531 H         1 RDC         0.0258
     41 H16       -49.4805   23.4521   66.0798 H         1 RDC         0.2508
     42 H17       -53.6606   22.1091   69.5499 H         1 RDC         0.2502
@<TRIPOS>BOND
     1    1    2 1  
     2    1   19 1  
     3    1   20 2  
     4    2    3 ar 
     5    2    7 ar 
     6    3    4 ar 
     7    3   21 1  
     8    4    5 ar 
     9    5    6 ar 
    10    5   22 1  
    11    6    7 ar 
    12    6   23 1  
    13    7    8 1  
    14    8    9 1  
    15    9   10 1  
    16    9   24 2  
    17   10   11 2  
    18   11   12 1  
    19   12   13 2  
    20   13   14 1  
    21   14   15 1  
    22   14   25 1  
    23   15   16 1  
    24   15   25 1  
    25   16   17 1  
    26   17   18 1  
    27   17   19 1  
    28    4   26 1  
    29    8   27 1  
    30    8   28 1  
    31   10   29 1  
    32   11   30 1  
    33   12   31 1  
    34   13   32 1  
    35   14   33 1  
    36   15   34 1  
    37   16   35 1  
    38   16   36 1  
    39   17   37 1  
    40   18   38 1  
    41   18   39 1  
    42   18   40 1  
    43   21   41 1  
    44   22   42 1  
@<TRIPOS>SUBSTRUCTURE
     1 RDC         1

