### 
### Created by X-TOOL on Mon Sep 10 21:12:59 2018
### 

@<TRIPOS>MOLECULE
2q8s_ligand
   56    59     1     0     0
SMALL
GAST_HUCK


@<TRIPOS>ATOM
      1 O2         18.3630   63.1370   20.2510 O.co2     1 L92        -0.5658
      2 C1         19.1270   62.5230   19.4730 C.2       1 L92         0.0712
      3 O1         20.0590   61.7950   19.8760 O.co2     1 L92        -0.5658
      4 C2         18.9180   62.7010   17.9940 C.3       1 L92         0.1252
      5 N1         19.9660   63.6310   17.4860 N.pl3     1 L92        -0.2661
      6 C13        20.9530   63.3840   16.6100 C.2       1 L92         0.0165
      7 C12        21.6800   64.5350   16.4230 C.2       1 L92        -0.0872
      8 C11        21.1060   65.5040   17.2110 C.2       1 L92        -0.0872
      9 C10        20.0420   64.9150   17.8590 C.2       1 L92         0.0165
     10 C3         18.8670   61.3650   17.2230 C.3       1 L92         0.0209
     11 C4         18.2230   61.6380   15.8770 C.ar      1 L92        -0.0450
     12 C9         18.9360   61.6460   14.6720 C.ar      1 L92        -0.0666
     13 C8         18.2850   61.9270   13.4600 C.ar      1 L92        -0.0668
     14 C7         16.9170   62.1930   13.4490 C.ar      1 L92        -0.0496
     15 C6         16.2230   62.1920   14.6590 C.ar      1 L92        -0.0668
     16 C5         16.8640   61.9110   15.8560 C.ar      1 L92        -0.0666
     17 C14        16.1170   62.5290   12.1990 C.3       1 L92        -0.0212
     18 C15        16.3360   61.6510   10.9780 C.3       1 L92        -0.0390
     19 C16        17.5580   62.0520   10.2080 C.3       1 L92        -0.0248
     20 C17        17.7700   63.3980    9.6150 C.2       1 L92         0.0132
     21 C19        18.8820   63.7720    8.9250 C.2       1 L92         0.1140
     22 C26        20.0820   62.9770    8.5960 C.3       1 L92        -0.0015
     23 O3         18.7590   65.0600    8.5280 O.3       1 L92        -0.2356
     24 C18        17.5340   65.4760    8.9990 C.2       1 L92         0.1880
     25 N2         16.9150   64.4470    9.6740 N.2       1 L92        -0.3130
     26 C20        17.0660   66.7670    8.7760 C.ar      1 L92         0.0316
     27 C25        15.8290   67.1810    9.2570 C.ar      1 L92        -0.0496
     28 C24        15.3850   68.4820    9.0180 C.ar      1 L92        -0.0613
     29 C23        16.1800   69.3710    8.3000 C.ar      1 L92        -0.0620
     30 C22        17.4170   68.9590    7.8160 C.ar      1 L92        -0.0613
     31 C21        17.8580   67.6630    8.0560 C.ar      1 L92        -0.0496
     32 H1         17.9416   63.1868   17.8503 H         1 L92         0.0853
     33 H2         21.1460   62.4275   16.1265 H         1 L92         0.0797
     34 H3         22.5460   64.6564   15.7740 H         1 L92         0.0273
     35 H4         21.4302   66.5394   17.3052 H         1 L92         0.0273
     36 H5         19.3727   65.4121   18.5596 H         1 L92         0.0797
     37 H6         18.2691   60.6310   17.7831 H         1 L92         0.0462
     38 H7         19.8856   60.9753   17.0795 H         1 L92         0.0462
     39 H8         19.9990   61.4336   14.6748 H         1 L92         0.0540
     40 H9         18.8465   61.9370   12.5328 H         1 L92         0.0540
     41 H10        15.1622   62.4152   14.6636 H         1 L92         0.0540
     42 H11        16.2990   61.9048   16.7811 H         1 L92         0.0540
     43 H12        16.3671   63.5614   11.9134 H         1 L92         0.0414
     44 H13        15.0507   62.4695   12.4625 H         1 L92         0.0414
     45 H14        15.4588   61.7336   10.3195 H         1 L92         0.0300
     46 H15        16.4505   60.6077   11.3071 H         1 L92         0.0300
     47 H16        17.6254   61.3442    9.3687 H         1 L92         0.0359
     48 H17        18.4050   61.8922   10.8914 H         1 L92         0.0359
     49 H18        20.7880   63.5979    8.0250 H         1 L92         0.0409
     50 H19        19.7900   62.1048    7.9927 H         1 L92         0.0409
     51 H20        20.5621   62.6361    9.5251 H         1 L92         0.0409
     52 H21        15.2085   66.4920    9.8186 H         1 L92         0.0626
     53 H22        14.4190   68.8011    9.3922 H         1 L92         0.0617
     54 H23        15.8355   70.3826    8.1185 H         1 L92         0.0615
     55 H24        18.0362   69.6475    7.2525 H         1 L92         0.0617
     56 H25        18.8244   67.3456    7.6812 H         1 L92         0.0626
@<TRIPOS>BOND
     1    1    2 ar 
     2    2    3 ar 
     3    2    4 1  
     4    4    5 1  
     5    4   10 1  
     6    5    6 1  
     7    5    9 1  
     8    6    7 2  
     9    7    8 1  
    10    8    9 2  
    11   10   11 1  
    12   11   12 ar 
    13   11   16 ar 
    14   12   13 ar 
    15   13   14 ar 
    16   14   15 ar 
    17   14   17 1  
    18   15   16 ar 
    19   17   18 1  
    20   18   19 1  
    21   19   20 1  
    22   20   21 2  
    23   20   25 1  
    24   21   22 1  
    25   21   23 1  
    26   23   24 1  
    27   24   25 2  
    28   24   26 1  
    29   26   27 ar 
    30   26   31 ar 
    31   27   28 ar 
    32   28   29 ar 
    33   29   30 ar 
    34   30   31 ar 
    35    4   32 1  
    36    6   33 1  
    37    7   34 1  
    38    8   35 1  
    39    9   36 1  
    40   10   37 1  
    41   10   38 1  
    42   12   39 1  
    43   13   40 1  
    44   15   41 1  
    45   16   42 1  
    46   17   43 1  
    47   17   44 1  
    48   18   45 1  
    49   18   46 1  
    50   19   47 1  
    51   19   48 1  
    52   22   49 1  
    53   22   50 1  
    54   22   51 1  
    55   27   52 1  
    56   28   53 1  
    57   29   54 1  
    58   30   55 1  
    59   31   56 1  
@<TRIPOS>SUBSTRUCTURE
     1 L92         1

