### 
### Created by X-TOOL on Mon Sep 10 21:12:58 2018
### 

@<TRIPOS>MOLECULE
2q92_ligand
   23    24     1     0     0
SMALL
GAST_HUCK


@<TRIPOS>ATOM
      1 OAN         1.6660    0.2180    9.3240 O.co2     1 B23        -0.5212
      2 CAE         0.7180    0.0310    8.5300 C.2       1 B23         0.2172
      3 OAO         0.8480   -0.0970    7.2940 O.co2     1 B23        -0.5212
      4 CAA        -0.7030   -0.0560    9.0910 C.2       1 B23         0.3295
      5 OAM        -1.8120   -0.2060    8.3130 O.3       1 B23        -0.0605
      6 CAC        -1.0510    0.0070   10.3720 C.2       1 B23         0.1404
      7 CAD        -2.3760   -0.1010   10.4310 C.2       1 B23         0.1361
      8 CAB        -2.8570   -0.2300    9.1940 C.2       1 B23         0.3261
      9 CAF        -4.1530   -0.4550    8.7470 C.ar      1 B23         0.1906
     10 CAG        -4.3120   -1.2870    7.6480 C.ar      1 B23         0.0319
     11 CAJ        -5.5850   -1.6340    7.1920 C.ar      1 B23         0.0038
     12 CAI        -6.7020   -1.1390    7.8510 C.ar      1 B23         0.0015
     13 CAK        -6.5440   -0.3030    8.9470 C.ar      1 B23         0.0319
     14 CAH        -5.2740    0.0510    9.3970 C.ar      1 B23         0.1699
     15 NAL        -5.1960    0.9700   10.3600 N.2       1 B23        -0.1794
     16 OAQ        -3.9650    1.5750   10.7270 O.2       1 B23        -0.4729
     17 OAP        -6.3890    1.4180   10.9850 O.2       1 B23        -0.4729
     18 H1         -0.3758    0.1253   11.2182 H         1 B23         0.1171
     19 H2         -2.9716   -0.0864   11.3426 H         1 B23         0.1434
     20 H3         -3.4370   -1.6723    7.1372 H         1 B23         0.1075
     21 H4         -5.7001   -2.2836    6.3318 H         1 B23         0.0828
     22 H5         -7.6959   -1.4051    7.5099 H         1 B23         0.1114
     23 H6         -7.4194    0.0793    9.4594 H         1 B23         0.0871
@<TRIPOS>BOND
     1    1    2 ar 
     2    2    3 ar 
     3    2    4 1  
     4    4    5 1  
     5    4    6 2  
     6    5    8 1  
     7    6    7 1  
     8    7    8 2  
     9    8    9 1  
    10    9   10 ar 
    11    9   14 ar 
    12   10   11 ar 
    13   11   12 ar 
    14   12   13 ar 
    15   13   14 ar 
    16   14   15 1  
    17   15   16 2  
    18   15   17 2  
    19    6   18 1  
    20    7   19 1  
    21   10   20 1  
    22   11   21 1  
    23   12   22 1  
    24   13   23 1  
@<TRIPOS>SUBSTRUCTURE
     1 B23         1

