### 
### Created by X-TOOL on Mon Sep 10 21:12:59 2018
### 

@<TRIPOS>MOLECULE
2q93_ligand
   25    26     1     0     0
SMALL
GAST_HUCK


@<TRIPOS>ATOM
      1 CAL        -6.7130    0.5580   10.3940 C.3       1 B21         0.0603
      2 OAP        -5.5430   -0.2640   10.3320 O.3       1 B21        -0.3189
      3 CAH        -5.5330   -0.9980    9.1910 C.ar      1 B21         0.1028
      4 CAK        -6.7030   -1.5420    8.6880 C.ar      1 B21        -0.0329
      5 CAI        -6.6890   -2.3080    7.5280 C.ar      1 B21        -0.0719
      6 CAJ        -5.4820   -2.5300    6.8590 C.ar      1 B21        -0.0738
      7 CAG        -4.3140   -1.9880    7.3590 C.ar      1 B21        -0.0609
      8 CAF        -4.3260   -1.2260    8.5200 C.ar      1 B21         0.0433
      9 CAB        -3.1240   -0.7230    9.0120 C.2       1 B21         0.1213
     10 OAM        -2.0230   -0.6610    8.2080 O.3       1 B21        -0.2522
     11 CAD        -2.7990   -0.3240   10.2330 C.2       1 B21        -0.0531
     12 CAC        -1.5040   -0.0070   10.2550 C.2       1 B21        -0.0490
     13 CAA        -1.0270   -0.2130    9.0240 C.2       1 B21         0.1457
     14 CAE         0.4210   -0.0290    8.5760 C.2       1 B21         0.0905
     15 OAO         0.6760   -0.2470    7.3690 O.co2     1 B21        -0.5617
     16 OAN         1.2720    0.3200    9.4250 O.co2     1 B21        -0.5617
     17 H1         -6.7008    1.1434   11.3252 H         1 B21         0.0580
     18 H2         -7.6099   -0.0785   10.3728 H         1 B21         0.0580
     19 H3         -6.7275    1.2409    9.5318 H         1 B21         0.0580
     20 H4         -7.6401   -1.3686    9.2045 H         1 B21         0.0536
     21 H5         -7.6101   -2.7313    7.1440 H         1 B21         0.0576
     22 H6         -5.4626   -3.1243    5.9526 H         1 B21         0.0522
     23 H7         -3.3780   -2.1593    6.8396 H         1 B21         0.0577
     24 H8         -3.4794   -0.2646   11.0812 H         1 B21         0.0363
     25 H9         -0.9408    0.3524   11.1150 H         1 B21         0.0409
@<TRIPOS>BOND
     1    1    2 1  
     2    2    3 1  
     3    3    4 ar 
     4    3    8 ar 
     5    4    5 ar 
     6    5    6 ar 
     7    6    7 ar 
     8    7    8 ar 
     9    8    9 1  
    10    9   10 1  
    11    9   11 2  
    12   10   13 1  
    13   11   12 1  
    14   12   13 2  
    15   13   14 1  
    16   14   15 ar 
    17   14   16 ar 
    18    1   17 1  
    19    1   18 1  
    20    1   19 1  
    21    4   20 1  
    22    5   21 1  
    23    6   22 1  
    24    7   23 1  
    25   11   24 1  
    26   12   25 1  
@<TRIPOS>SUBSTRUCTURE
     1 B21         1

