### 
### Created by X-TOOL on Mon Sep 10 21:12:58 2018
### 

@<TRIPOS>MOLECULE
2q94_ligand
   25    26     1     0     0
SMALL
GAST_HUCK


@<TRIPOS>ATOM
      1 OAQ         1.6790    0.0990    9.3780 O.co2     1 A04        -0.5617
      2 CAB         0.7460   -0.1430    8.5840 C.2       1 A04         0.0905
      3 OAR         0.8790   -0.2210    7.3420 O.co2     1 A04        -0.5617
      4 CAA        -0.6650   -0.3630    9.1300 C.2       1 A04         0.1457
      5 OAP        -1.7290   -0.6280    8.3190 O.3       1 A04        -0.2522
      6 CAD        -1.0610   -0.3050   10.3970 C.2       1 A04        -0.0490
      7 CAE        -2.3760   -0.5280   10.4130 C.2       1 A04        -0.0531
      8 CAC        -2.7930   -0.7220    9.1630 C.2       1 A04         0.1213
      9 CAG        -4.0590   -0.9830    8.6510 C.ar      1 A04         0.0436
     10 CAK        -4.1510   -1.6380    7.4330 C.ar      1 A04        -0.0609
     11 CAH        -5.3960   -1.9270    6.8790 C.ar      1 A04        -0.0738
     12 CAF        -6.5510   -1.5570    7.5540 C.ar      1 A04        -0.0719
     13 CAI        -6.4580   -0.9000    8.7770 C.ar      1 A04        -0.0325
     14 CAJ        -5.2190   -0.6080    9.3310 C.ar      1 A04         0.1125
     15 OAS        -5.1450    0.0370   10.5270 O.3       1 A04        -0.2231
     16 CAL        -5.2320    1.4670   10.4730 C.3       1 A04         0.5474
     17 FAN        -4.2720    1.9960    9.7220 F         1 A04        -0.1398
     18 FAO        -6.4050    1.8650    9.9900 F         1 A04        -0.1398
     19 FAM        -5.1030    1.9270   11.7130 F         1 A04        -0.1398
     20 H1         -0.4289   -0.1112   11.2623 H         1 A04         0.0409
     21 H2         -3.0051   -0.5481   11.3017 H         1 A04         0.0363
     22 H3         -3.2479   -1.9274    6.9079 H         1 A04         0.0577
     23 H4         -5.4625   -2.4383    5.9255 H         1 A04         0.0522
     24 H5         -7.5233   -1.7794    7.1293 H         1 A04         0.0576
     25 H6         -7.3618   -0.6134    9.3024 H         1 A04         0.0536
@<TRIPOS>BOND
     1    1    2 ar 
     2    2    3 ar 
     3    2    4 1  
     4    4    5 1  
     5    4    6 2  
     6    5    8 1  
     7    6    7 1  
     8    7    8 2  
     9    8    9 1  
    10    9   10 ar 
    11    9   14 ar 
    12   10   11 ar 
    13   11   12 ar 
    14   12   13 ar 
    15   13   14 ar 
    16   14   15 1  
    17   15   16 1  
    18   16   17 1  
    19   16   18 1  
    20   16   19 1  
    21    6   20 1  
    22    7   21 1  
    23   10   22 1  
    24   11   23 1  
    25   12   24 1  
    26   13   25 1  
@<TRIPOS>SUBSTRUCTURE
     1 A04         1

