### 
### Created by X-TOOL on Mon Sep 10 21:12:58 2018
### 

@<TRIPOS>MOLECULE
2q95_ligand
   23    24     1     0     0
SMALL
GAST_HUCK


@<TRIPOS>ATOM
      1 OAN         1.1550    0.2660    9.3500 O.co2     1 A05        -0.5216
      2 CAB         0.2470   -0.0820    8.5610 C.2       1 A05         0.2158
      3 OAO         0.4180   -0.2750    7.3400 O.co2     1 A05        -0.5216
      4 CAA        -1.1670   -0.2800    9.1060 C.2       1 A05         0.3275
      5 OAM        -2.2070   -0.7050    8.3290 O.3       1 A05        -0.0628
      6 CAD        -1.6190   -0.0020   10.5410 C.2       1 A05         0.1384
      7 CAE        -3.0620   -0.5110   10.5420 C.2       1 A05         0.1341
      8 CAC        -3.3500   -0.8030    9.0690 C.2       1 A05         0.3222
      9 CAG        -4.5210   -1.2330    8.4460 C.ar      1 A05         0.1759
     10 CAK        -4.3760   -1.9640    7.2750 C.ar      1 A05         0.0298
     11 CAH        -5.3660   -2.5070    6.4620 C.ar      1 A05         0.0293
     12 CAF        -6.7730   -2.3570    7.0460 C.ar      1 A05         0.1398
     13 NAL        -7.7940   -2.8960    6.3880 N.2       1 A05        -0.1747
     14 OAQ        -7.5650   -3.5850    5.1670 O.2       1 A05        -0.4674
     15 OAP        -9.1120   -2.7740    6.9040 O.2       1 A05        -0.4674
     16 CAI        -7.0600   -1.6090    8.3500 C.ar      1 A05         0.0451
     17 CAJ        -5.7950   -0.9850    8.9430 C.ar      1 A05         0.1387
     18 CLAR       -6.0210    0.0690   10.2960 Cl        1 A05        -0.0147
     19 H1         -1.0548    0.4461   11.3576 H         1 A05         0.1162
     20 H2         -3.7289   -0.6362   11.3938 H         1 A05         0.1425
     21 H3         -3.3558   -2.1345    6.9508 H         1 A05         0.1041
     22 H4         -5.1618   -2.9873    5.5119 H         1 A05         0.0854
     23 H5         -8.0430   -1.5306    8.8002 H         1 A05         0.0853
@<TRIPOS>BOND
     1    1    2 ar 
     2    2    3 ar 
     3    2    4 1  
     4    4    5 1  
     5    4    6 2  
     6    5    8 1  
     7    6    7 1  
     8    7    8 2  
     9    8    9 1  
    10    9   10 ar 
    11    9   17 ar 
    12   10   11 ar 
    13   11   12 ar 
    14   12   13 1  
    15   12   16 ar 
    16   13   14 2  
    17   13   15 2  
    18   16   17 ar 
    19   17   18 1  
    20    6   19 1  
    21    7   20 1  
    22   10   21 1  
    23   11   22 1  
    24   16   23 1  
@<TRIPOS>SUBSTRUCTURE
     1 A05         1

