### 
### Created by X-TOOL on Mon Sep 10 21:12:58 2018
### 

@<TRIPOS>MOLECULE
2q96_ligand
   24    25     1     0     0
SMALL
GAST_HUCK


@<TRIPOS>ATOM
      1 OAN         0.7820   -0.0990    7.3330 O.co2     1 A18        -0.5648
      2 CAE         0.5880   -0.0710    8.5670 C.2       1 A18         0.0823
      3 OAO         1.4880    0.1020    9.4200 O.co2     1 A18        -0.5648
      4 CAA        -0.8540   -0.2460    9.0420 C.2       1 A18         0.1364
      5 OAM        -1.9210   -0.2760    8.1910 O.3       1 A18        -0.2523
      6 CAB        -1.2690   -0.3900   10.2970 C.2       1 A18        -0.0623
      7 CAC        -2.5950   -0.5140   10.2670 C.2       1 A18        -0.0596
      8 CAD        -3.0030   -0.4470    9.0000 C.2       1 A18         0.1125
      9 CAL        -4.4130   -0.5340    8.4160 C.3       1 A18         0.0473
     10 CAK        -5.4450   -0.7820    9.5170 C.ar      1 A18        -0.0142
     11 CAF        -5.9590   -2.0670    9.6360 C.ar      1 A18        -0.0575
     12 CAG        -6.9120   -2.3630   10.6030 C.ar      1 A18        -0.0680
     13 CAH        -7.3580   -1.3680   11.4640 C.ar      1 A18        -0.0680
     14 CAI        -6.8460   -0.0810   11.3510 C.ar      1 A18        -0.0543
     15 CAJ        -5.8960    0.2060   10.3800 C.ar      1 A18         0.0434
     16 CLAP       -5.2750    1.8150   10.2370 Cl        1 A18        -0.0768
     17 H1         -0.6403   -0.4040   11.1861 H         1 A18         0.0369
     18 H2         -3.2393   -0.6480   11.1346 H         1 A18         0.0253
     19 H3         -4.4527   -1.3613    7.6922 H         1 A18         0.0628
     20 H4         -4.6506    0.4112    7.9059 H         1 A18         0.0628
     21 H5         -5.6130   -2.8470    8.9675 H         1 A18         0.0561
     22 H6         -7.3070   -3.3691   10.6855 H         1 A18         0.0601
     23 H7         -8.1013   -1.5943   12.2198 H         1 A18         0.0561
     24 H8         -7.1885    0.6991   12.0212 H         1 A18         0.0605
@<TRIPOS>BOND
     1    1    2 ar 
     2    2    3 ar 
     3    2    4 1  
     4    4    5 1  
     5    4    6 2  
     6    5    8 1  
     7    6    7 1  
     8    7    8 2  
     9    8    9 1  
    10    9   10 1  
    11   10   11 ar 
    12   10   15 ar 
    13   11   12 ar 
    14   12   13 ar 
    15   13   14 ar 
    16   14   15 ar 
    17   15   16 1  
    18    6   17 1  
    19    7   18 1  
    20    9   19 1  
    21    9   20 1  
    22   11   21 1  
    23   12   22 1  
    24   13   23 1  
    25   14   24 1  
@<TRIPOS>SUBSTRUCTURE
     1 A18         1

