### 
### Created by X-TOOL on Mon Sep 10 21:12:56 2018
### 

@<TRIPOS>MOLECULE
2q9m_ligand
   39    40     1     0     0
SMALL
GAST_HUCK


@<TRIPOS>ATOM
      1 C1         17.9720   20.3850   26.5930 C.3       1 LK7        -0.0628
      2 C2         18.7970   19.9090   25.3900 C.3       1 LK7        -0.0351
      3 C3         18.3950   20.0660   24.0840 C.3       1 LK7         0.0532
      4 C4         18.3260   18.8940   23.2360 C.2       1 LK7         0.1044
      5 O1         18.5170   19.0910   22.0420 O.2       1 LK7        -0.3746
      6 C5         18.1610   21.4930   23.5120 C.3       1 LK7         0.0565
      7 N1         18.1160   22.3270   24.7610 N.pl3     1 LK7        -0.3366
      8 C6         17.6110   23.4400   24.3310 C.2       1 LK7         0.0483
      9 C7         17.9630   24.7810   24.9150 C.2       1 LK7         0.0569
     10 O2         18.2050   25.7790   24.2370 O.co2     1 LK7        -0.5692
     11 O3         18.0460   24.8750   26.1570 O.co2     1 LK7        -0.5692
     12 C8         16.7010   23.1810   23.4990 C.2       1 LK7        -0.0182
     13 C9         16.5970   21.8100   23.3560 C.3       1 LK7         0.0090
     14 C10        15.5480   21.1780   24.2550 C.3       1 LK7        -0.0402
     15 C11        14.1920   21.8680   24.0120 C.3       1 LK7        -0.0471
     16 C12        14.3670   23.4220   24.0350 C.3       1 LK7        -0.0188
     17 C13        15.5180   23.9520   23.1500 C.3       1 LK7         0.0831
     18 O4         15.1420   24.1130   21.7860 O.3       1 LK7        -0.3699
     19 C14        14.8120   25.3970   22.0810 C.3       1 LK7         0.0392
     20 H1         18.5074   20.1439   27.5232 H         1 LK7         0.0231
     21 H2         16.9950   19.8796   26.5907 H         1 LK7         0.0231
     22 H3         17.8223   21.4728   26.5276 H         1 LK7         0.0231
     23 H4         18.9401   18.8277   25.5325 H         1 LK7         0.0291
     24 H5         19.7673   20.4209   25.4694 H         1 LK7         0.0291
     25 H6         17.3339   19.9713   24.3581 H         1 LK7         0.0552
     26 H7         18.1178   17.9019   23.6339 H         1 LK7         0.1352
     27 H8         18.8273   21.7748   22.6834 H         1 LK7         0.0587
     28 H9         18.4113   22.0775   25.7157 H         1 LK7         0.1642
     29 H10        16.2911   21.5557   22.3305 H         1 LK7         0.0457
     30 H11        15.8414   21.3035   25.3077 H         1 LK7         0.0289
     31 H12        15.4622   20.1061   24.0235 H         1 LK7         0.0289
     32 H13        13.4857   21.5699   24.8008 H         1 LK7         0.0269
     33 H14        13.7981   21.5609   23.0319 H         1 LK7         0.0269
     34 H15        14.5621   23.7302   25.0728 H         1 LK7         0.0310
     35 H16        13.4285   23.8784   23.6872 H         1 LK7         0.0310
     36 H17        15.7312   24.9762   23.4898 H         1 LK7         0.0731
     37 H18        14.4396   25.8973   21.1749 H         1 LK7         0.0526
     38 H19        15.7005   25.9276   22.4538 H         1 LK7         0.0526
     39 H20        14.0286   25.4061   22.8531 H         1 LK7         0.0526
@<TRIPOS>BOND
     1    1    2 1  
     2    2    3 1  
     3    3    4 1  
     4    3    6 1  
     5    4    5 2  
     6    6    7 1  
     7    6   13 1  
     8    7    8 1  
     9    8    9 1  
    10    8   12 2  
    11    9   10 ar 
    12    9   11 ar 
    13   12   13 1  
    14   12   17 1  
    15   13   14 1  
    16   14   15 1  
    17   15   16 1  
    18   16   17 1  
    19   17   18 1  
    20   18   19 1  
    21    1   20 1  
    22    1   21 1  
    23    1   22 1  
    24    2   23 1  
    25    2   24 1  
    26    3   25 1  
    27    4   26 1  
    28    6   27 1  
    29    7   28 1  
    30   13   29 1  
    31   14   30 1  
    32   14   31 1  
    33   15   32 1  
    34   15   33 1  
    35   16   34 1  
    36   16   35 1  
    37   17   36 1  
    38   19   37 1  
    39   19   38 1  
    40   19   39 1  
@<TRIPOS>SUBSTRUCTURE
     1 LK7         1

