### 
### Created by X-TOOL on Mon Sep 10 21:12:56 2018
### 

@<TRIPOS>MOLECULE
2q9n_ligand
   48    49     1     0     0
SMALL
GAST_HUCK


@<TRIPOS>ATOM
      1 C1         23.0400   26.7730   22.1710 C.3       1 LK5        -0.0652
      2 C3         23.4100   26.8730   23.5330 C.3       1 LK5        -0.0538
      3 C4         22.1440   27.0040   24.3280 C.3       1 LK5        -0.0297
      4 C5         21.8040   25.7580   25.1140 C.3       1 LK5         0.0483
      5 O4         20.8580   24.9690   24.3830 O.3       1 LK5        -0.3731
      6 C6         21.2150   23.5570   24.2660 C.3       1 LK5         0.0790
      7 C7         21.8080   23.3350   22.8880 C.3       1 LK5        -0.0234
      8 C8         20.7310   23.1830   21.8550 C.3       1 LK5        -0.0500
      9 C9         19.9620   21.8930   22.0840 C.3       1 LK5        -0.0458
     10 C10        19.1650   21.9470   23.3790 C.3       1 LK5        -0.0031
     11 C11        19.9570   22.7280   24.4090 C.3       1 LK5         0.0586
     12 C12        19.2630   22.3590   25.6220 C.2       1 LK5         0.0774
     13 C13        19.5880   22.8470   26.9670 C.2       1 LK5         0.1079
     14 O3         19.8380   24.1190   27.1160 O.co2     1 LK5        -0.5471
     15 O2         19.6240   22.0050   27.9000 O.co2     1 LK5        -0.5471
     16 N1         18.7460   21.1110   25.5230 N.2       1 LK5        -0.3233
     17 C14        18.7930   20.6500   24.1370 C.3       1 LK5         0.0397
     18 C15        19.7060   19.4530   23.9720 C.3       1 LK5         0.0432
     19 C16        20.5530   19.0390   25.0430 C.3       1 LK5        -0.0362
     20 C2         21.9610   19.6090   25.4440 C.3       1 LK5        -0.0628
     21 C17        19.4250   18.4390   22.9220 C.2       1 LK5         0.1033
     22 O1         19.2840   18.7480   21.7540 O.2       1 LK5        -0.3746
     23 H1         23.9439   26.6750   21.5518 H         1 LK5         0.0230
     24 H2         22.4881   27.6769   21.8736 H         1 LK5         0.0230
     25 H3         22.4005   25.8894   22.0287 H         1 LK5         0.0230
     26 H4         24.0450   27.7578   23.6871 H         1 LK5         0.0263
     27 H5         23.9574   25.9704   23.8421 H         1 LK5         0.0263
     28 H6         21.3165   27.2173   23.6354 H         1 LK5         0.0287
     29 H7         22.2581   27.8414   25.0321 H         1 LK5         0.0287
     30 H8         21.3698   26.0443   26.0833 H         1 LK5         0.0560
     31 H9         22.7186   25.1702   25.2812 H         1 LK5         0.0560
     32 H10        21.9423   23.2794   25.0431 H         1 LK5         0.0634
     33 H11        22.4220   22.4225   22.9038 H         1 LK5         0.0293
     34 H12        22.4388   24.1969   22.6252 H         1 LK5         0.0293
     35 H13        21.1877   23.1609   20.8546 H         1 LK5         0.0266
     36 H14        20.0391   24.0354   21.9235 H         1 LK5         0.0266
     37 H15        20.6737   21.0559   22.1360 H         1 LK5         0.0271
     38 H16        19.2700   21.7343   21.2438 H         1 LK5         0.0271
     39 H17        18.2281   22.4740   23.1458 H         1 LK5         0.0351
     40 H18        19.3719   23.6476   24.2610 H         1 LK5         0.0603
     41 H19        17.7906   20.3308   23.8156 H         1 LK5         0.0454
     42 H20        20.4828   19.9923   23.4101 H         1 LK5         0.0540
     43 H21        20.7290   17.9687   24.8598 H         1 LK5         0.0291
     44 H22        19.9372   19.1600   25.9464 H         1 LK5         0.0291
     45 H23        22.3417   19.0631   26.3198 H         1 LK5         0.0231
     46 H24        21.8677   20.6771   25.6898 H         1 LK5         0.0231
     47 H25        22.6595   19.4858   24.6032 H         1 LK5         0.0231
     48 H26        19.3431   17.3909   23.2062 H         1 LK5         0.1352
@<TRIPOS>BOND
     1    1    2 1  
     2    2    3 1  
     3    3    4 1  
     4    4    5 1  
     5    5    6 1  
     6    6    7 1  
     7    6   11 1  
     8    7    8 1  
     9    8    9 1  
    10    9   10 1  
    11   10   11 1  
    12   10   17 1  
    13   11   12 1  
    14   12   13 1  
    15   12   16 2  
    16   13   14 ar 
    17   13   15 ar 
    18   16   17 1  
    19   17   18 1  
    20   18   19 1  
    21   18   21 1  
    22   19   20 1  
    23   21   22 2  
    24    1   23 1  
    25    1   24 1  
    26    1   25 1  
    27    2   26 1  
    28    2   27 1  
    29    3   28 1  
    30    3   29 1  
    31    4   30 1  
    32    4   31 1  
    33    6   32 1  
    34    7   33 1  
    35    7   34 1  
    36    8   35 1  
    37    8   36 1  
    38    9   37 1  
    39    9   38 1  
    40   10   39 1  
    41   11   40 1  
    42   17   41 1  
    43   18   42 1  
    44   19   43 1  
    45   19   44 1  
    46   20   45 1  
    47   20   46 1  
    48   20   47 1  
    49   21   48 1  
@<TRIPOS>SUBSTRUCTURE
     1 LK5         1

