### 
### Created by X-TOOL on Mon Sep 10 21:12:58 2018
### 

@<TRIPOS>MOLECULE
2q9y_ligand
   36    36     1     0     0
SMALL
GAST_HUCK


@<TRIPOS>ATOM
      1 N         -39.6830   -3.0680   15.8930 N.4       1 BTM         0.2545
      2 C1        -40.5330   -2.4500   14.7200 C.3       1 BTM         0.0038
      3 C2        -40.5870   -3.5210   17.0960 C.3       1 BTM        -0.0315
      4 C3        -41.2090   -4.9480   17.0920 C.3       1 BTM        -0.0244
      5 C4        -38.7370   -1.9680   16.4410 C.3       1 BTM        -0.0315
      6 C5        -39.3560   -0.6670   17.0100 C.3       1 BTM        -0.0244
      7 C6        -38.7970   -4.2710   15.4800 C.3       1 BTM        -0.0315
      8 C7        -37.8150   -4.0700   14.3130 C.3       1 BTM        -0.0244
      9 C8        -41.6120   -3.2600   13.9910 C.ar      1 BTM         0.0015
     10 C9        -42.9290   -2.7120   13.8810 C.ar      1 BTM        -0.0553
     11 C10       -43.9710   -3.4160   13.2280 C.ar      1 BTM        -0.0684
     12 C11       -43.7150   -4.6900   12.6700 C.ar      1 BTM        -0.0687
     13 C12       -42.4150   -5.2590   12.7620 C.ar      1 BTM        -0.0684
     14 C13       -41.3790   -4.5510   13.4140 C.ar      1 BTM        -0.0553
     15 H1        -39.8134   -2.1318   13.9513 H         1 BTM         0.0981
     16 H2        -41.0387   -1.5666   15.1370 H         1 BTM         0.0981
     17 H3        -41.4225   -2.8079   17.1548 H         1 BTM         0.0812
     18 H4        -39.9729   -3.4421   18.0052 H         1 BTM         0.0812
     19 H5        -41.8065   -5.0900   18.0046 H         1 BTM         0.0281
     20 H6        -40.4052   -5.6983   17.0596 H         1 BTM         0.0281
     21 H7        -41.8548   -5.0641   16.2091 H         1 BTM         0.0281
     22 H8        -38.0701   -1.6751   15.6167 H         1 BTM         0.0812
     23 H9        -38.1444   -2.4238   17.2479 H         1 BTM         0.0812
     24 H10       -38.5528    0.0015   17.3534 H         1 BTM         0.0281
     25 H11       -40.0145   -0.9136   17.8559 H         1 BTM         0.0281
     26 H12       -39.9402   -0.1649   16.2248 H         1 BTM         0.0281
     27 H13       -39.4708   -5.0954   15.2037 H         1 BTM         0.0812
     28 H14       -38.2052   -4.5606   16.3608 H         1 BTM         0.0812
     29 H15       -37.2594   -5.0028   14.1365 H         1 BTM         0.0281
     30 H16       -37.1089   -3.2643   14.5626 H         1 BTM         0.0281
     31 H17       -38.3745   -3.7992   13.4055 H         1 BTM         0.0281
     32 H18       -43.1343   -1.7365   14.3067 H         1 BTM         0.0558
     33 H19       -44.9607   -2.9797   13.1564 H         1 BTM         0.0599
     34 H20       -44.5101   -5.2330   12.1719 H         1 BTM         0.0559
     35 H21       -42.2183   -6.2347   12.3327 H         1 BTM         0.0599
     36 H22       -40.3911   -4.9926   13.4785 H         1 BTM         0.0558
@<TRIPOS>BOND
     1    1    2 1  
     2    1    3 1  
     3    1    5 1  
     4    1    7 1  
     5    2    9 1  
     6    3    4 1  
     7    5    6 1  
     8    7    8 1  
     9    9   10 ar 
    10    9   14 ar 
    11   10   11 ar 
    12   11   12 ar 
    13   12   13 ar 
    14   13   14 ar 
    15    2   15 1  
    16    2   16 1  
    17    3   17 1  
    18    3   18 1  
    19    4   19 1  
    20    4   20 1  
    21    4   21 1  
    22    5   22 1  
    23    5   23 1  
    24    6   24 1  
    25    6   25 1  
    26    6   26 1  
    27    7   27 1  
    28    7   28 1  
    29    8   29 1  
    30    8   30 1  
    31    8   31 1  
    32   10   32 1  
    33   11   33 1  
    34   12   34 1  
    35   13   35 1  
    36   14   36 1  
@<TRIPOS>SUBSTRUCTURE
     1 BTM         1

