### 
### Created by X-TOOL on Mon Sep 10 21:12:58 2018
### 

@<TRIPOS>MOLECULE
2qa8_ligand
   30    32     1     0     0
SMALL
GAST_HUCK


@<TRIPOS>ATOM
      1 C1         -8.5280   -3.6930   17.7920 C.ar      1 GEN        -0.0021
      2 C2         -8.4120   -4.3850   16.5910 C.ar      1 GEN         0.0780
      3 O2         -9.3680   -4.2620   15.6460 O.3       1 GEN        -0.3349
      4 C3         -7.3170   -5.2000   16.3650 C.ar      1 GEN        -0.0082
      5 C4         -6.3310   -5.3220   17.3440 C.ar      1 GEN         0.0942
      6 O4         -5.2580   -6.1090   17.1170 O.3       1 GEN        -0.3324
      7 C5         -6.4390   -4.6460   18.5570 C.ar      1 GEN         0.0811
      8 C6         -5.3890   -4.7740   19.6300 C.2       1 GEN         0.1145
      9 O6         -4.3930   -5.5010   19.4830 O.2       1 GEN        -0.4182
     10 C7         -5.5870   -4.0280   20.9010 C.2       1 GEN         0.0480
     11 C8         -6.7250   -3.2250   21.0020 C.2       1 GEN         0.1185
     12 O9         -7.6910   -3.1470   19.9650 O.3       1 GEN        -0.2397
     13 C10        -7.5470   -3.8240   18.7750 C.ar      1 GEN         0.1339
     14 C11        -4.6380   -3.9970   22.0520 C.ar      1 GEN        -0.0380
     15 C12        -5.1520   -3.7590   23.3200 C.ar      1 GEN        -0.0703
     16 C13        -4.3230   -3.6590   24.4040 C.ar      1 GEN        -0.0379
     17 C14        -2.9410   -3.7540   24.2590 C.ar      1 GEN         0.0833
     18 O14        -2.1640   -3.6250   25.3760 O.3       1 GEN        -0.3358
     19 C15        -2.4000   -3.9470   22.9830 C.ar      1 GEN        -0.0379
     20 C16        -3.2470   -4.0470   21.8820 C.ar      1 GEN        -0.0703
     21 H1         -9.3834   -3.0499   17.9646 H         1 GEN         0.0405
     22 H2         -9.1387   -4.7952   14.8939 H         1 GEN         0.2494
     23 H3         -7.2257   -5.7417   15.4305 H         1 GEN         0.0405
     24 H4         -4.6838   -6.0857   17.8735 H         1 GEN         0.2504
     25 H5         -6.8764   -2.6387   21.9071 H         1 GEN         0.1311
     26 H6         -6.2225   -3.6512   23.4525 H         1 GEN         0.0543
     27 H7         -4.7477   -3.5037   25.3892 H         1 GEN         0.0533
     28 H8         -2.3120   -2.7717   25.7665 H         1 GEN         0.2470
     29 H9         -1.3263   -4.0184   22.8521 H         1 GEN         0.0533
     30 H10        -2.8289   -4.1641   20.8887 H         1 GEN         0.0543
@<TRIPOS>BOND
     1    1    2 ar 
     2    1   13 ar 
     3    2    3 1  
     4    2    4 ar 
     5    4    5 ar 
     6    5    6 1  
     7    5    7 ar 
     8    7    8 1  
     9    7   13 ar 
    10    8    9 2  
    11    8   10 1  
    12   10   11 2  
    13   10   14 1  
    14   11   12 1  
    15   12   13 1  
    16   14   15 ar 
    17   14   20 ar 
    18   15   16 ar 
    19   16   17 ar 
    20   17   18 1  
    21   17   19 ar 
    22   19   20 ar 
    23    1   21 1  
    24    3   22 1  
    25    4   23 1  
    26    6   24 1  
    27   11   25 1  
    28   15   26 1  
    29   16   27 1  
    30   18   28 1  
    31   19   29 1  
    32   20   30 1  
@<TRIPOS>SUBSTRUCTURE
     1 GEN         1

