### 
### Created by X-TOOL on Mon Sep 10 21:12:58 2018
### 

@<TRIPOS>MOLECULE
2qbp_ligand
   60    63     1     0     0
SMALL
GAST_HUCK


@<TRIPOS>ATOM
      1 S1         44.5640   14.2390    0.6740 S.3       1 527        -0.0382
      2 C2         44.7660   15.6490    1.7560 C.2       1 527         0.0813
      3 C3         45.6900   15.3960    2.6670 C.2       1 527         0.1014
      4 C4         46.2550   14.0410    2.5740 C.2       1 527         0.0465
      5 C5         45.8210   13.2870    1.5520 C.2       1 527         0.0450
      6 C6         44.0600   16.8790    1.4690 C.2       1 527         0.0555
      7 O7         43.5980   16.8930    0.3080 O.co2     1 527        -0.5699
      8 O8         43.9340   17.8230    2.2800 O.co2     1 527        -0.5699
      9 C9         46.1250   11.9050    1.1290 C.ar      1 527        -0.0166
     10 C10        47.4420   11.3150    1.3100 C.ar      1 527        -0.0362
     11 C11        47.6400    9.9460    0.9420 C.ar      1 527         0.0383
     12 C12        46.5390    9.1680    0.3780 C.ar      1 527        -0.0440
     13 C13        45.2230    9.7500    0.1790 C.ar      1 527        -0.0722
     14 C14        45.0420   11.1270    0.5390 C.ar      1 527        -0.0655
     15 BR19       47.3890   13.4840    3.9420 Br        1 527        -0.0668
     16 O20        45.9800   16.2840    3.6070 O.3       1 527        -0.3141
     17 C21        47.1930   16.9880    3.4380 C.3       1 527         0.1195
     18 C22        47.4320   17.6890    4.7000 C.2       1 527         0.0648
     19 O25        48.5780   18.1510    4.8510 O.co2     1 527        -0.5663
     20 O26        46.5110   17.7930    5.5420 O.co2     1 527        -0.5663
     21 N29        48.9040    9.4960    1.1630 N.pl3     1 527        -0.3201
     22 C30        49.1900    8.1380    1.5130 C.3       1 527         0.0379
     23 C31        50.7090    7.9840    1.5980 C.3       1 527        -0.0135
     24 C32        51.1460    6.6380    2.1280 C.3       1 527         0.0314
     25 N33        50.3910    6.3890    3.3570 N.am      1 527        -0.2365
     26 C34        48.9270    6.4400    3.3730 C.3       1 527         0.0314
     27 C35        48.4990    7.7770    2.8260 C.3       1 527        -0.0135
     28 S46        51.1020    5.4460    4.5910 S.o2      1 527         0.0512
     29 O47        50.2210    5.5670    5.7300 O.2       1 527        -0.1532
     30 O48        52.4790    5.8920    4.6940 O.2       1 527        -0.1532
     31 C49        50.8960    3.7760    3.9330 C.3       1 527         0.1181
     32 C50        51.2570    2.7890    5.0020 C.ar      1 527        -0.0204
     33 C53        52.6630    2.4580    5.1260 C.ar      1 527        -0.0587
     34 C54        53.0480    1.5950    6.2220 C.ar      1 527        -0.0685
     35 C55        52.0250    1.0640    7.1210 C.ar      1 527        -0.0687
     36 C56        50.6230    1.4160    6.9910 C.ar      1 527        -0.0685
     37 C57        50.2150    2.2910    5.9050 C.ar      1 527        -0.0587
     38 H1         48.2585   11.9012    1.7161 H         1 527         0.0516
     39 H2         46.7081    8.1335    0.1020 H         1 527         0.0521
     40 H3         44.4063    9.1644   -0.2273 H         1 527         0.0585
     41 H4         44.0808   11.5985    0.3690 H         1 527         0.0520
     42 H5         47.1048   17.7084    2.6115 H         1 527         0.0780
     43 H6         48.0151   16.2880    3.2281 H         1 527         0.0780
     44 H7         49.6872   10.1592    1.0750 H         1 527         0.1756
     45 H8         48.8087    7.4719    0.7250 H         1 527         0.0548
     46 H9         51.1022    8.7657    2.2645 H         1 527         0.0303
     47 H10        51.1300    8.1155    0.5903 H         1 527         0.0303
     48 H11        52.2244    6.6506    2.3446 H         1 527         0.0479
     49 H12        50.9298    5.8536    1.3878 H         1 527         0.0479
     50 H13        48.5612    6.3246    4.4039 H         1 527         0.0479
     51 H14        48.5190    5.6331    2.7466 H         1 527         0.0479
     52 H15        47.4127    7.7532    2.6546 H         1 527         0.0303
     53 H16        48.7359    8.5514    3.5704 H         1 527         0.0303
     54 H17        51.5552    3.6371    3.0634 H         1 527         0.0682
     55 H18        49.8500    3.6249    3.6281 H         1 527         0.0682
     56 H19        53.3964    2.8415    4.4259 H         1 527         0.0557
     57 H20        54.0911    1.3433    6.3757 H         1 527         0.0599
     58 H21        52.3235    0.3846    7.9112 H         1 527         0.0559
     59 H22        49.8917    1.0322    7.6931 H         1 527         0.0599
     60 H23        49.1756    2.5661    5.7672 H         1 527         0.0557
@<TRIPOS>BOND
     1    1    2 1  
     2    1    5 1  
     3    2    3 2  
     4    2    6 1  
     5    3    4 1  
     6    3   16 1  
     7    4    5 2  
     8    4   15 1  
     9    5    9 1  
    10    6    7 ar 
    11    6    8 ar 
    12    9   10 ar 
    13    9   14 ar 
    14   10   11 ar 
    15   11   12 ar 
    16   11   21 1  
    17   12   13 ar 
    18   13   14 ar 
    19   16   17 1  
    20   17   18 1  
    21   18   19 ar 
    22   18   20 ar 
    23   21   22 1  
    24   22   23 1  
    25   22   27 1  
    26   23   24 1  
    27   24   25 1  
    28   25   26 1  
    29   25   28 am 
    30   26   27 1  
    31   28   29 2  
    32   28   30 2  
    33   28   31 1  
    34   31   32 1  
    35   32   33 ar 
    36   32   37 ar 
    37   33   34 ar 
    38   34   35 ar 
    39   35   36 ar 
    40   36   37 ar 
    41   10   38 1  
    42   12   39 1  
    43   13   40 1  
    44   14   41 1  
    45   17   42 1  
    46   17   43 1  
    47   21   44 1  
    48   22   45 1  
    49   23   46 1  
    50   23   47 1  
    51   24   48 1  
    52   24   49 1  
    53   26   50 1  
    54   26   51 1  
    55   27   52 1  
    56   27   53 1  
    57   31   54 1  
    58   31   55 1  
    59   33   56 1  
    60   34   57 1  
    61   35   58 1  
    62   36   59 1  
    63   37   60 1  
@<TRIPOS>SUBSTRUCTURE
     1 527         1

