### 
### Created by X-TOOL on Mon Sep 10 21:12:57 2018
### 

@<TRIPOS>MOLECULE
2qbs_ligand
   45    47     1     0     0
SMALL
GAST_HUCK


@<TRIPOS>ATOM
      1 S1         44.6510   14.0740    0.6210 S.3       1 024        -0.0382
      2 C2         44.7900   15.4820    1.5710 C.2       1 024         0.0813
      3 C3         45.6940   15.2460    2.6400 C.2       1 024         0.1014
      4 C4         46.2290   13.9270    2.6200 C.2       1 024         0.0465
      5 C5         45.7340   13.1350    1.5470 C.2       1 024         0.0450
      6 C6         44.0570   16.6430    1.2480 C.2       1 024         0.0555
      7 O7         43.4980   16.6800    0.1500 O.co2     1 024        -0.5699
      8 O8         43.9810   17.5810    2.0360 O.co2     1 024        -0.5699
      9 C9         46.0160   11.7110    1.1830 C.ar      1 024        -0.0166
     10 C10        47.2610   11.0370    1.4450 C.ar      1 024        -0.0362
     11 C11        47.4050    9.6640    1.0720 C.ar      1 024         0.0383
     12 C12        46.3290    8.9560    0.4400 C.ar      1 024        -0.0440
     13 C13        45.0950    9.6130    0.1730 C.ar      1 024        -0.0722
     14 C14        44.9490   10.9800    0.5490 C.ar      1 024        -0.0655
     15 BR19       47.4770   13.3320    3.9450 Br        1 024        -0.0668
     16 O20        46.0630   16.1740    3.6490 O.3       1 024        -0.3141
     17 C21        47.2490   16.9320    3.4120 C.3       1 024         0.1195
     18 C22        47.6510   17.5920    4.7270 C.2       1 024         0.0648
     19 O25        46.8770   17.5250    5.6970 O.co2     1 024        -0.5663
     20 O26        48.7320   18.1660    4.7830 O.co2     1 024        -0.5663
     21 N27        48.6210    8.9650    1.3420 N.pl3     1 024        -0.3202
     22 C28        49.1550    7.7650    1.8570 C.3       1 024         0.0350
     23 C30        50.6800    7.8220    2.0380 C.3       1 024        -0.0307
     24 C31        51.1580    6.4520    2.5800 C.3       1 024        -0.0510
     25 C32        50.4280    6.0460    3.8930 C.3       1 024        -0.0529
     26 C33        48.8790    6.1190    3.7780 C.3       1 024        -0.0510
     27 C34        48.4240    7.4700    3.1930 C.3       1 024        -0.0307
     28 H1         48.0803   11.5646    1.9198 H         1 024         0.0516
     29 H2         46.4565    7.9154    0.1644 H         1 024         0.0521
     30 H3         44.2807    9.0831   -0.3078 H         1 024         0.0585
     31 H4         44.0093   11.4833    0.3525 H         1 024         0.0520
     32 H5         47.0551   17.7020    2.6508 H         1 024         0.0780
     33 H6         48.0544   16.2680    3.0651 H         1 024         0.0780
     34 H7         49.4059    9.5646    1.0498 H         1 024         0.1756
     35 H8         48.9345    6.9529    1.1486 H         1 024         0.0547
     36 H9         50.9401    8.6160    2.7534 H         1 024         0.0287
     37 H10        51.1618    8.0277    1.0708 H         1 024         0.0287
     38 H11        52.2383    6.5084    2.7794 H         1 024         0.0266
     39 H12        50.9656    5.6835    1.8168 H         1 024         0.0266
     40 H13        50.7515    6.7233    4.6971 H         1 024         0.0265
     41 H14        50.7118    5.0139    4.1465 H         1 024         0.0265
     42 H15        48.4392    5.9955    4.7786 H         1 024         0.0266
     43 H16        48.5298    5.3085    3.1214 H         1 024         0.0266
     44 H17        47.3396    7.4376    3.0114 H         1 024         0.0287
     45 H18        48.6515    8.2699    3.9130 H         1 024         0.0287
@<TRIPOS>BOND
     1    1    2 1  
     2    1    5 1  
     3    2    3 2  
     4    2    6 1  
     5    3    4 1  
     6    3   16 1  
     7    4    5 2  
     8    4   15 1  
     9    5    9 1  
    10    6    7 ar 
    11    6    8 ar 
    12    9   10 ar 
    13    9   14 ar 
    14   10   11 ar 
    15   11   12 ar 
    16   11   21 1  
    17   12   13 ar 
    18   13   14 ar 
    19   16   17 1  
    20   17   18 1  
    21   18   19 ar 
    22   18   20 ar 
    23   21   22 1  
    24   22   23 1  
    25   22   27 1  
    26   23   24 1  
    27   24   25 1  
    28   25   26 1  
    29   26   27 1  
    30   10   28 1  
    31   12   29 1  
    32   13   30 1  
    33   14   31 1  
    34   17   32 1  
    35   17   33 1  
    36   21   34 1  
    37   22   35 1  
    38   23   36 1  
    39   23   37 1  
    40   24   38 1  
    41   24   39 1  
    42   25   40 1  
    43   25   41 1  
    44   26   42 1  
    45   26   43 1  
    46   27   44 1  
    47   27   45 1  
@<TRIPOS>SUBSTRUCTURE
     1 024         1

