### 
### Created by X-TOOL on Mon Sep 10 21:12:58 2018
### 

@<TRIPOS>MOLECULE
2qbu_ligand
   46    48     1     0     0
SMALL
GAST_HUCK


@<TRIPOS>ATOM
      1 N         -23.9480   37.0590    1.5440 N.4       1 SAH         0.2327
      2 CA        -24.1450   37.4690    0.1270 C.3       1 SAH         0.0291
      3 CB        -23.3240   36.5830   -0.8190 C.3       1 SAH         0.0114
      4 CG        -21.8440   36.9270   -0.9690 C.3       1 SAH         0.0005
      5 SD        -21.0200   35.7910   -2.1240 S.3       1 SAH        -0.1578
      6 C         -25.6320   37.3640   -0.2130 C.2       1 SAH         0.0844
      7 O         -26.4350   36.9130    0.5730 O.co2     1 SAH        -0.5643
      8 OXT       -26.0730   37.7170   -1.2930 O.co2     1 SAH        -0.5643
      9 C5'       -20.6820   37.0290   -3.4100 C.3       1 SAH         0.0226
     10 C4'       -21.5490   36.7020   -4.6100 C.3       1 SAH         0.0995
     11 O4'       -22.8610   37.1320   -4.3130 O.3       1 SAH        -0.3383
     12 C3'       -21.1630   37.3380   -5.9390 C.3       1 SAH         0.1132
     13 O3'       -20.2190   36.5700   -6.6580 O.3       1 SAH        -0.3864
     14 C2'       -22.5120   37.3730   -6.6410 C.3       1 SAH         0.1385
     15 O2'       -22.8050   36.1490   -7.3200 O.3       1 SAH        -0.3836
     16 C1'       -23.5010   37.5790   -5.4900 C.3       1 SAH         0.2009
     17 N9        -23.9040   39.0040   -5.2880 N.pl3     1 SAH        -0.1919
     18 C8        -23.7890   39.7480   -4.1380 C.2       1 SAH         0.1123
     19 N7        -24.2980   40.9890   -4.3490 N.2       1 SAH        -0.2958
     20 C5        -24.7040   41.0510   -5.6240 C.ar      1 SAH         0.1045
     21 C6        -25.2890   42.0690   -6.3540 C.ar      1 SAH         0.1298
     22 N6        -25.5290   43.2510   -5.7810 N.pl3     1 SAH        -0.3152
     23 N1        -25.6270   41.8140   -7.6600 N.ar      1 SAH        -0.2698
     24 C2        -25.3980   40.5970   -8.2590 C.ar      1 SAH         0.0533
     25 N3        -24.8180   39.5900   -7.5310 N.ar      1 SAH        -0.2714
     26 C4        -24.4820   39.8150   -6.2270 C.ar      1 SAH         0.1613
     27 H1        -22.9701   37.1243    1.7798 H         1 SAH         0.2010
     28 H2        -24.2601   36.1082    1.6652 H         1 SAH         0.2010
     29 H3        -24.4802   37.6668    2.1468 H         1 SAH         0.2010
     30 H4        -23.8191   38.5127    0.0067 H         1 SAH         0.1024
     31 H5        -23.7834   36.6452   -1.8165 H         1 SAH         0.0347
     32 H6        -23.3900   35.5493   -0.4487 H         1 SAH         0.0347
     33 H7        -21.3571   36.8543    0.0147 H         1 SAH         0.0379
     34 H8        -21.7511   37.9550   -1.3491 H         1 SAH         0.0379
     35 H9        -19.6202   36.9919   -3.6948 H         1 SAH         0.0402
     36 H10       -20.9263   38.0339   -3.0351 H         1 SAH         0.0402
     37 H11       -21.5368   35.6103   -4.7439 H         1 SAH         0.0632
     38 H12       -20.7622   38.3517   -5.7917 H         1 SAH         0.0647
     39 H13       -20.5836   35.7120   -6.8406 H         1 SAH         0.2100
     40 H14       -22.5556   38.2070   -7.3570 H         1 SAH         0.0676
     41 H15       -23.6535   36.2174   -7.7417 H         1 SAH         0.2101
     42 H16       -24.4034   36.9799   -5.6817 H         1 SAH         0.0996
     43 H17       -23.3566   39.3965   -3.2024 H         1 SAH         0.1349
     44 H18       -25.9649   44.0085   -6.3260 H         1 SAH         0.1820
     45 H19       -25.2782   43.4052   -4.7940 H         1 SAH         0.1820
     46 H20       -25.6730   40.4358   -9.2951 H         1 SAH         0.0996
@<TRIPOS>BOND
     1    1    2 1  
     2    2    3 1  
     3    2    6 1  
     4    3    4 1  
     5    4    5 1  
     6    5    9 1  
     7    6    7 ar 
     8    6    8 ar 
     9    9   10 1  
    10   10   11 1  
    11   10   12 1  
    12   11   16 1  
    13   12   13 1  
    14   12   14 1  
    15   14   15 1  
    16   14   16 1  
    17   16   17 1  
    18   17   18 1  
    19   17   26 1  
    20   18   19 2  
    21   19   20 1  
    22   20   21 ar 
    23   20   26 ar 
    24   21   22 1  
    25   21   23 ar 
    26   23   24 ar 
    27   24   25 ar 
    28   25   26 ar 
    29    1   27 1  
    30    1   28 1  
    31    1   29 1  
    32    2   30 1  
    33    3   31 1  
    34    3   32 1  
    35    4   33 1  
    36    4   34 1  
    37    9   35 1  
    38    9   36 1  
    39   10   37 1  
    40   12   38 1  
    41   13   39 1  
    42   14   40 1  
    43   15   41 1  
    44   16   42 1  
    45   18   43 1  
    46   22   44 1  
    47   22   45 1  
    48   24   46 1  
@<TRIPOS>SUBSTRUCTURE
     1 SAH         1

