### 
### Created by X-TOOL on Mon Sep 10 21:12:57 2018
### 

@<TRIPOS>MOLECULE
2qbw_ligand
  125   128     1     0     0
SMALL
GAST_HUCK


@<TRIPOS>ATOM
      1 N          -6.0850  -17.3670   -5.4480 N.4       1 PRO         0.2461
      2 CA         -4.7150  -17.8410   -5.5790 C.3       1 PRO         0.0672
      3 C          -3.6840  -16.8240   -5.0900 C.2       1 PRO         0.2292
      4 O          -3.9490  -15.6110   -5.0420 O.2       1 PRO        -0.3905
      5 CB         -4.5680  -18.0850   -7.0830 C.3       1 PRO         0.0127
      6 CG         -5.7110  -17.3700   -7.7320 C.3       1 PRO        -0.0053
      7 CD         -6.8010  -17.3790   -6.7350 C.3       1 PRO        -0.0313
      8 N          -2.5150  -17.3310   -4.7140 N.am      1 GLN        -0.2465
      9 CA         -1.4050  -16.4990   -4.3330 C.3       1 GLN         0.1688
     10 C          -0.9660  -15.6510   -5.5250 C.2       1 GLN         0.2229
     11 O          -1.1050  -16.0440   -6.7050 O.2       1 GLN        -0.3897
     12 CB         -0.2430  -17.3200   -3.7920 C.2       1 GLN        -0.0156
     13 CG          0.5350  -18.0050   -4.8620 C.2       1 GLN         0.0018
     14 CD          1.6870  -18.8730   -4.3710 C.2       1 GLN         0.1744
     15 OE1         1.9070  -19.0750   -3.1680 O.2       1 GLN        -0.4009
     16 NE2         2.4370  -19.3770   -5.3200 N.am      1 GLN        -0.3055
     17 N          -0.4620  -14.4540   -5.2170 N.am      1 PRO        -0.2475
     18 CA         -0.0630  -13.5790   -6.2910 C.3       1 PRO         0.1340
     19 C           1.2010  -14.0750   -6.9900 C.2       1 PRO         0.2041
     20 O           2.0170  -14.7890   -6.4090 O.2       1 PRO        -0.3944
     21 CB          0.2010  -12.2570   -5.5720 C.3       1 PRO        -0.0104
     22 CG          0.6000  -12.6200   -4.2260 C.3       1 PRO        -0.0281
     23 CD         -0.2160  -13.8530   -3.8920 C.3       1 PRO         0.0371
     24 N           1.3750  -13.6520   -8.2300 N.am      1 VAL        -0.2635
     25 CA          2.6130  -13.9610   -8.9720 C.3       1 VAL         0.1333
     26 C           3.3660  -12.6980   -9.3910 C.2       1 VAL         0.2042
     27 O           4.3860  -12.7850  -10.0710 O.2       1 VAL        -0.3944
     28 CB          2.3670  -14.8940  -10.1710 C.3       1 VAL        -0.0063
     29 CG1         1.6850  -16.1820   -9.6920 C.3       1 VAL        -0.0584
     30 CG2         1.5410  -14.2360  -11.2420 C.3       1 VAL        -0.0584
     31 N           2.8940  -11.5420   -8.9180 N.am      1 ASP        -0.2622
     32 CA          3.4460  -10.2450   -9.3190 C.3       1 ASP         0.1423
     33 C           3.9420   -9.3930   -8.1660 C.2       1 ASP         0.2057
     34 O           3.5320   -9.5640   -7.0040 O.2       1 ASP        -0.3943
     35 CB          2.4340   -9.4460  -10.1760 C.3       1 ASP         0.0406
     36 CG          1.1770   -9.0240   -9.4470 C.2       1 ASP         0.0393
     37 OD1         0.7850   -9.6800   -8.4550 O.co2     1 ASP        -0.5688
     38 OD2         0.5320   -8.0100   -9.9370 O.co2     1 ASP        -0.5688
     39 N           4.8290   -8.4510   -8.5050 N.am      1 SER        -0.2615
     40 CA          5.4330   -7.5590   -7.5510 C.3       1 SER         0.1539
     41 C           5.4320   -6.1530   -8.1360 C.2       1 SER         0.2063
     42 O           5.8090   -5.9900   -9.3000 O.2       1 SER        -0.3943
     43 CB          6.8760   -7.9700   -7.2390 C.3       1 SER         0.0843
     44 OG          6.9580   -9.2970   -6.7390 O.3       1 SER        -0.3903
     45 N           5.0840   -5.1720   -7.3170 N.am      1 TRP        -0.2626
     46 CA          5.0620   -3.7630   -7.7410 C.3       1 TRP         0.1351
     47 C           6.4150   -3.1120   -7.6620 C.2       1 TRP         0.2046
     48 O           7.1820   -3.3230   -6.7010 O.2       1 TRP        -0.3943
     49 CB          4.0040   -3.0040   -6.8980 C.3       1 TRP         0.0042
     50 CG          2.6200   -3.4080   -7.3230 C.2       1 TRP        -0.0418
     51 CD1         1.8900   -4.5060   -6.9140 C.2       1 TRP         0.0167
     52 CD2         1.8130   -2.7500   -8.3000 C.ar      1 TRP        -0.0214
     53 NE1         0.7110   -4.5510   -7.5600 N.pl3     1 TRP        -0.2890
     54 CE2         0.6240   -3.4850   -8.4200 C.ar      1 TRP         0.0603
     55 CE3         1.9750   -1.5880   -9.0770 C.ar      1 TRP        -0.0747
     56 CZ2        -0.3850   -3.1220   -9.3030 C.ar      1 TRP        -0.0443
     57 CZ3         0.9680   -1.2280   -9.9420 C.ar      1 TRP        -0.0792
     58 CH2        -0.1930   -1.9780  -10.0480 C.ar      1 TRP        -0.0768
     59 N           6.6780   -2.2610   -8.6660 N.am      1 VAL        -0.2691
     60 CA          7.9340   -1.5990   -8.8140 C.3       1 VAL         0.0967
     61 C           7.6290   -0.1250   -9.0870 C.2       1 VAL         0.0603
     62 O           8.5670    0.6670   -8.9940 O.co2     1 VAL        -0.5666
     63 CB          8.8280   -2.2350   -9.9250 C.3       1 VAL        -0.0118
     64 CG1         9.2280   -3.6580   -9.4960 C.3       1 VAL        -0.0590
     65 CG2         8.1590   -2.2630  -11.3060 C.3       1 VAL        -0.0590
     66 OXT         6.4570    0.2250   -9.3570 O.co2     1 VAL        -0.5666
     67 H1         -6.0700  -16.4236   -5.0933 H         1 PRO         0.2035
     68 H2         -6.5743  -17.9625   -4.7984 H         1 PRO         0.2035
     69 H3         -4.5813  -18.7781   -5.0187 H         1 PRO         0.1099
     70 H4         -4.6174  -19.1619   -7.3019 H         1 PRO         0.0347
     71 H5         -3.6106  -17.6810   -7.4437 H         1 PRO         0.0347
     72 H6         -6.0229  -17.8950   -8.6469 H         1 PRO         0.0320
     73 H7         -5.4265  -16.3370   -7.9808 H         1 PRO         0.0320
     74 H8         -7.4378  -16.4882   -6.8397 H         1 PRO         0.0814
     75 H9         -7.4178  -18.2844   -6.8341 H         1 PRO         0.0814
     76 H10        -2.4029  -18.3245   -4.6952 H         1 GLN         0.1920
     77 H11        -1.7422  -15.8230   -3.5334 H         1 GLN         0.1022
     78 H12        -0.0050  -17.3985   -2.7322 H         1 GLN         0.0889
     79 H13         0.2975  -17.8934   -5.9189 H         1 GLN         0.0483
     80 H14         3.2157  -19.9590   -5.0859 H         1 GLN         0.1795
     81 H15         2.2306  -19.1796   -6.2784 H         1 GLN         0.1795
     82 H16        -0.8703  -13.4734   -7.0306 H         1 PRO         0.0802
     83 H17        -0.7112  -11.6427   -5.5499 H         1 PRO         0.0313
     84 H18         1.0058  -11.7003   -6.0744 H         1 PRO         0.0313
     85 H19         0.3737  -11.8049   -3.5229 H         1 PRO         0.0287
     86 H20         1.6757  -12.8473   -4.1900 H         1 PRO         0.0287
     87 H21         0.3504  -14.5391   -3.2451 H         1 PRO         0.0524
     88 H22        -1.1610  -13.5806   -3.3993 H         1 PRO         0.0524
     89 H23         0.6570  -13.1144   -8.6722 H         1 VAL         0.1883
     90 H24         3.2682  -14.5058   -8.2764 H         1 VAL         0.0802
     91 H25         3.3425  -15.1563  -10.6065 H         1 VAL         0.0343
     92 H26         1.5109  -16.8461  -10.5514 H         1 VAL         0.0234
     93 H27         0.7231  -15.9338   -9.2197 H         1 VAL         0.0234
     94 H28         2.3320  -16.6897   -8.9615 H         1 VAL         0.0234
     95 H29         2.0406  -13.3148  -11.5763 H         1 VAL         0.0234
     96 H30         0.5477  -13.9889  -10.8391 H         1 VAL         0.0234
     97 H31         1.4306  -14.9230  -12.0939 H         1 VAL         0.0234
     98 H32         2.1359  -11.5620   -8.2661 H         1 ASP         0.1884
     99 H33         4.3183  -10.4583   -9.9542 H         1 ASP         0.0819
    100 H34         2.1395  -10.0729  -11.0305 H         1 ASP         0.0478
    101 H35         2.9373   -8.5392  -10.5427 H         1 ASP         0.0478
    102 H36         5.0847   -8.3624   -9.4677 H         1 SER         0.1884
    103 H37         4.8460   -7.5731   -6.6208 H         1 SER         0.0823
    104 H38         7.2858   -7.2813   -6.4856 H         1 SER         0.0606
    105 H39         7.4716   -7.9012   -8.1612 H         1 SER         0.0606
    106 H40         7.8660   -9.5109   -6.5592 H         1 SER         0.2097
    107 H41         4.8271   -5.3968   -6.3771 H         1 TRP         0.1884
    108 H42         4.7452   -3.7317   -8.7939 H         1 TRP         0.0815
    109 H43         4.1288   -1.9212   -7.0464 H         1 TRP         0.0397
    110 H44         4.1436   -3.2469   -5.8343 H         1 TRP         0.0397
    111 H45         2.2215   -5.2325   -6.1736 H         1 TRP         0.0795
    112 H46        -0.0128   -5.2722   -7.4297 H         1 TRP         0.2216
    113 H47         2.8748   -0.9890   -8.9955 H         1 TRP         0.0540
    114 H48        -1.2873   -3.7145   -9.4023 H         1 TRP         0.0541
    115 H49         1.0846   -0.3402  -10.5529 H         1 TRP         0.0510
    116 H50        -0.9690   -1.6571  -10.7335 H         1 TRP         0.0530
    117 H51         5.9618   -2.0827   -9.3408 H         1 VAL         0.1875
    118 H52         8.4835   -1.6747   -7.8641 H         1 VAL         0.0729
    119 H53         9.7412   -1.6278  -10.0107 H         1 VAL         0.0336
    120 H54         9.8584   -4.1121  -10.2747 H         1 VAL         0.0234
    121 H55         8.3227   -4.2669   -9.3559 H         1 VAL         0.0234
    122 H56         9.7889   -3.6120   -8.5509 H         1 VAL         0.0234
    123 H57         7.8792   -1.2402  -11.5986 H         1 VAL         0.0234
    124 H58         7.2575   -2.8920  -11.2641 H         1 VAL         0.0234
    125 H59         8.8608   -2.6768  -12.0451 H         1 VAL         0.0234
@<TRIPOS>BOND
     1    1    2 1  
     2    1    7 1  
     3    2    3 1  
     4    2    5 1  
     5    3    4 2  
     6    3    8 am 
     7    5    6 1  
     8    6    7 1  
     9    8    9 1  
    10    9   10 1  
    11    9   12 1  
    12   10   11 2  
    13   10   17 am 
    14   12   13 2  
    15   13   14 1  
    16   14   15 2  
    17   14   16 am 
    18   17   18 1  
    19   17   23 1  
    20   18   19 1  
    21   18   21 1  
    22   19   20 2  
    23   19   24 am 
    24   21   22 1  
    25   22   23 1  
    26   24   25 1  
    27   25   26 1  
    28   25   28 1  
    29   26   27 2  
    30   26   31 am 
    31   28   29 1  
    32   28   30 1  
    33   31   32 1  
    34   32   33 1  
    35   32   35 1  
    36   33   34 2  
    37   33   39 am 
    38   35   36 1  
    39   36   37 ar 
    40   36   38 ar 
    41   39   40 1  
    42   40   41 1  
    43   40   43 1  
    44   41   42 2  
    45   41   45 am 
    46   43   44 1  
    47   45   46 1  
    48   46   47 1  
    49   46   49 1  
    50   47   48 2  
    51   47   59 am 
    52   49   50 1  
    53   50   51 2  
    54   50   52 1  
    55   51   53 1  
    56   52   54 ar 
    57   52   55 ar 
    58   53   54 1  
    59   54   56 ar 
    60   55   57 ar 
    61   56   58 ar 
    62   57   58 ar 
    63   59   60 1  
    64   60   61 1  
    65   60   63 1  
    66   61   62 ar 
    67   61   66 ar 
    68   63   64 1  
    69   63   65 1  
    70    1   67 1  
    71    1   68 1  
    72    2   69 1  
    73    5   70 1  
    74    5   71 1  
    75    6   72 1  
    76    6   73 1  
    77    7   74 1  
    78    7   75 1  
    79    8   76 1  
    80    9   77 1  
    81   12   78 1  
    82   13   79 1  
    83   16   80 1  
    84   16   81 1  
    85   18   82 1  
    86   21   83 1  
    87   21   84 1  
    88   22   85 1  
    89   22   86 1  
    90   23   87 1  
    91   23   88 1  
    92   24   89 1  
    93   25   90 1  
    94   28   91 1  
    95   29   92 1  
    96   29   93 1  
    97   29   94 1  
    98   30   95 1  
    99   30   96 1  
   100   30   97 1  
   101   31   98 1  
   102   32   99 1  
   103   35  100 1  
   104   35  101 1  
   105   39  102 1  
   106   40  103 1  
   107   43  104 1  
   108   43  105 1  
   109   44  106 1  
   110   45  107 1  
   111   46  108 1  
   112   49  109 1  
   113   49  110 1  
   114   51  111 1  
   115   53  112 1  
   116   55  113 1  
   117   56  114 1  
   118   57  115 1  
   119   58  116 1  
   120   59  117 1  
   121   60  118 1  
   122   63  119 1  
   123   64  120 1  
   124   64  121 1  
   125   64  122 1  
   126   65  123 1  
   127   65  124 1  
   128   65  125 1  
@<TRIPOS>SUBSTRUCTURE
     1 PRO         1

