### 
### Created by X-TOOL on Mon Sep 10 21:12:58 2018
### 

@<TRIPOS>MOLECULE
2qc6_ligand
   21    22     1     0     0
SMALL
GAST_HUCK


@<TRIPOS>ATOM
      1 BR2        20.6500    8.4710   20.9160 Br        1 G12        -0.0725
      2 C9         21.6920    7.9380   19.4270 C.2       1 G12         0.0772
      3 C8         22.6210    6.7740   19.4650 C.2       1 G12         0.2516
      4 O15        22.7870    6.0880   20.4980 O.2       1 G12        -0.3894
      5 O7         23.3140    6.4420   18.3370 O.3       1 G12        -0.2144
      6 C10        21.5510    8.6930   18.1730 C.2       1 G12        -0.0191
      7 C13        20.6180    9.8670   18.0820 C.3       1 G12        -0.0220
      8 C5         22.3540    8.2480   17.0190 C.ar      1 G12         0.0309
      9 C6         23.1930    7.1450   17.1660 C.ar      1 G12         0.1475
     10 C4         23.9390    6.7120   16.0900 C.ar      1 G12         0.0826
     11 BR1        25.0610    5.2040   16.3110 Br        1 G12        -0.0633
     12 C1         22.2670    8.9130   15.8060 C.ar      1 G12        -0.0540
     13 C2         23.0180    8.4700   14.7310 C.ar      1 G12        -0.0305
     14 C3         23.8530    7.3710   14.8820 C.ar      1 G12         0.0996
     15 O11        24.5830    6.9360   13.8450 O.3       1 G12        -0.3279
     16 H1         20.1250   10.0196   19.0534 H         1 G12         0.0450
     17 H2         19.8575    9.6722   17.3115 H         1 G12         0.0450
     18 H3         21.1883   10.7688   17.8146 H         1 G12         0.0450
     19 H4         21.6160    9.7732   15.7001 H         1 G12         0.0654
     20 H5         22.9546    8.9786   13.7758 H         1 G12         0.0505
     21 H6         24.0043    6.6893   13.1332 H         1 G12         0.2527
@<TRIPOS>BOND
     1    1    2 1  
     2    2    3 1  
     3    2    6 2  
     4    3    4 2  
     5    3    5 1  
     6    5    9 1  
     7    6    7 1  
     8    6    8 1  
     9    8    9 ar 
    10    8   12 ar 
    11    9   10 ar 
    12   10   11 1  
    13   10   14 ar 
    14   12   13 ar 
    15   13   14 ar 
    16   14   15 1  
    17    7   16 1  
    18    7   17 1  
    19    7   18 1  
    20   12   19 1  
    21   13   20 1  
    22   15   21 1  
@<TRIPOS>SUBSTRUCTURE
     1 G12         1

