### 
### Created by X-TOOL on Mon Sep 10 21:12:57 2018
### 

@<TRIPOS>MOLECULE
2qci_ligand
   76    80     1     0     0
SMALL
GAST_HUCK


@<TRIPOS>ATOM
      1 C2         20.8400   27.7190   14.8590 C.ar      1 065         0.1233
      2 O39        21.6910   28.7780   14.7140 O.3       1 065        -0.2910
      3 C40        22.8830   28.3380   15.2960 C.3       1 065         0.1868
      4 O41        22.7950   27.0160   15.6590 O.3       1 065        -0.2909
      5 C3         21.4950   26.6740   15.5020 C.ar      1 065         0.1250
      6 C4         20.8310   25.4920   15.8160 C.ar      1 065        -0.0149
      7 C5         19.4920   25.4100   15.5140 C.ar      1 065         0.0885
      8 C6         18.8300   26.4640   14.9140 C.ar      1 065        -0.0554
      9 C7         19.4910   27.6260   14.5510 C.ar      1 065        -0.0395
     10 S8         18.5740   23.9820   15.9900 S.o2      1 065         0.0633
     11 O9         17.4610   23.8250   15.0450 O.2       1 065        -0.1517
     12 O10        19.5680   22.8740   16.1660 O.2       1 065        -0.1517
     13 N11        17.9300   24.2880   17.4810 N.am      1 065        -0.2326
     14 C12        18.8760   24.6140   18.5330 C.3       1 065         0.0319
     15 C13        18.5550   23.9310   19.8740 C.3       1 065        -0.0296
     16 C14        18.6020   22.4090   19.7060 C.3       1 065        -0.0612
     17 C15        19.5810   24.3970   20.9050 C.3       1 065        -0.0612
     18 C16        16.6630   24.9780   17.5220 C.3       1 065         0.0578
     19 C17        15.5430   24.0880   18.0700 C.3       1 065         0.0967
     20 O18        14.3940   24.9240   18.3420 O.3       1 065        -0.3877
     21 C19        15.1500   22.9820   17.0800 C.3       1 065         0.0807
     22 N20        14.2320   22.0960   17.8230 N.am      1 065        -0.2550
     23 C21        14.5290   20.8540   18.1790 C.2       1 065         0.3203
     24 O22        15.6110   20.2990   17.9270 O.2       1 065        -0.3775
     25 O23        13.5420   20.2390   18.8530 O.3       1 065        -0.2578
     26 C24        13.7100   18.8430   19.0980 C.3       1 065         0.1189
     27 C25        13.0490   18.5810   20.4530 C.3       1 065         0.0815
     28 O26        11.6250   18.6180   20.2230 O.3       1 065        -0.3480
     29 C27        11.4250   18.0190   18.9200 C.3       1 065         0.1648
     30 O28        10.4990   18.8570   18.2260 O.3       1 065        -0.3509
     31 C29        11.1900   19.5520   17.1940 C.3       1 065         0.0512
     32 C30        12.4200   18.7000   16.8530 C.3       1 065        -0.0191
     33 C31        12.7440   18.0470   18.1970 C.3       1 065         0.0449
     34 C32        14.4090   23.5000   15.8530 C.3       1 065         0.0064
     35 C33        12.6770   21.9440   14.7860 C.ar      1 065        -0.0603
     36 C34        12.3100   20.8880   13.9760 C.ar      1 065        -0.0686
     37 C35        13.2880   20.1540   13.3220 C.ar      1 065        -0.0687
     38 C36        14.6070   20.5540   13.4630 C.ar      1 065        -0.0686
     39 C37        14.9840   21.6270   14.2710 C.ar      1 065        -0.0603
     40 C38        14.0140   22.3400   14.9510 C.ar      1 065        -0.0408
     41 H1         23.0916   28.9434   16.1904 H         1 065         0.0973
     42 H2         23.7026   28.4585   14.5723 H         1 065         0.0973
     43 H3         21.3518   24.6638   16.2829 H         1 065         0.0528
     44 H4         17.7664   26.3795   14.7225 H         1 065         0.0514
     45 H5         18.9730   28.4327   14.0450 H         1 065         0.0509
     46 H6         18.8670   25.7034   18.6852 H         1 065         0.0480
     47 H7         19.8789   24.2969   18.2111 H         1 065         0.0480
     48 H8         17.5477   24.2242   20.2046 H         1 065         0.0311
     49 H9         18.3718   21.9267   20.6675 H         1 065         0.0233
     50 H10        19.6070   22.1074   19.3759 H         1 065         0.0233
     51 H11        17.8609   22.1000   18.9541 H         1 065         0.0233
     52 H12        19.5274   25.4909   21.0071 H         1 065         0.0233
     53 H13        20.5898   24.1086   20.5747 H         1 065         0.0233
     54 H14        19.3647   23.9272   21.8758 H         1 065         0.0233
     55 H15        16.3980   25.2951   16.5026 H         1 065         0.0504
     56 H16        16.7613   25.8632   18.1675 H         1 065         0.0504
     57 H17        15.8844   23.6192   19.0047 H         1 065         0.0634
     58 H18        14.1132   25.3456   17.5383 H         1 065         0.2100
     59 H19        16.0484   22.4351   16.7578 H         1 065         0.0604
     60 H20        13.3323   22.4542   18.0727 H         1 065         0.1873
     61 H21        14.7593   18.5211   19.0250 H         1 065         0.0675
     62 H22        13.3385   19.3590   21.1748 H         1 065         0.0590
     63 H23        13.3471   17.5946   20.8378 H         1 065         0.0590
     64 H24        11.0445   16.9904   19.0044 H         1 065         0.0913
     65 H25        11.5009   20.5466   17.5462 H         1 065         0.0561
     66 H26        10.5449   19.6612   16.3098 H         1 065         0.0561
     67 H27        13.2539   19.3259   16.5025 H         1 065         0.0293
     68 H28        12.1825   17.9445   16.0896 H         1 065         0.0293
     69 H29        13.1424   17.0346   18.0350 H         1 065         0.0380
     70 H30        15.0632   24.1870   15.2963 H         1 065         0.0449
     71 H31        13.5034   24.0355   16.1742 H         1 065         0.0449
     72 H32        11.9032   22.4884   15.3150 H         1 065         0.0557
     73 H33        11.2635   20.6341   13.8520 H         1 065         0.0599
     74 H34        13.0281   19.2922   12.7179 H         1 065         0.0559
     75 H35        15.3760   20.0121   12.9245 H         1 065         0.0599
     76 H36        16.0290   21.8995   14.3649 H         1 065         0.0557
@<TRIPOS>BOND
     1    1    2 1  
     2    5    1 ar 
     3    9    1 ar 
     4    2    3 1  
     5    4    3 1  
     6    5    4 1  
     7    6    5 ar 
     8    7    6 ar 
     9    7    8 ar 
    10   10    7 1  
    11    8    9 ar 
    12   10   11 2  
    13   10   12 2  
    14   13   10 am 
    15   13   14 1  
    16   18   13 1  
    17   14   15 1  
    18   15   16 1  
    19   15   17 1  
    20   19   18 1  
    21   19   20 1  
    22   21   19 1  
    23   21   22 1  
    24   34   21 1  
    25   22   23 am 
    26   23   24 2  
    27   23   25 1  
    28   25   26 1  
    29   26   27 1  
    30   26   33 1  
    31   27   28 1  
    32   29   28 1  
    33   29   30 1  
    34   33   29 1  
    35   31   30 1  
    36   32   31 1  
    37   33   32 1  
    38   40   34 1  
    39   35   36 ar 
    40   35   40 ar 
    41   36   37 ar 
    42   37   38 ar 
    43   38   39 ar 
    44   39   40 ar 
    45    3   41 1  
    46    3   42 1  
    47    6   43 1  
    48    8   44 1  
    49    9   45 1  
    50   14   46 1  
    51   14   47 1  
    52   15   48 1  
    53   16   49 1  
    54   16   50 1  
    55   16   51 1  
    56   17   52 1  
    57   17   53 1  
    58   17   54 1  
    59   18   55 1  
    60   18   56 1  
    61   19   57 1  
    62   20   58 1  
    63   21   59 1  
    64   22   60 1  
    65   26   61 1  
    66   27   62 1  
    67   27   63 1  
    68   29   64 1  
    69   31   65 1  
    70   31   66 1  
    71   32   67 1  
    72   32   68 1  
    73   33   69 1  
    74   34   70 1  
    75   34   71 1  
    76   35   72 1  
    77   36   73 1  
    78   37   74 1  
    79   38   75 1  
    80   39   76 1  
@<TRIPOS>SUBSTRUCTURE
     1 065         1

