### 
### Created by X-TOOL on Mon Sep 10 21:12:57 2018
### 

@<TRIPOS>MOLECULE
2qd6_ligand
   76    80     1     0     0
SMALL
GAST_HUCK


@<TRIPOS>ATOM
      1 C2         20.7040   27.8150   14.8190 C.ar      1 065         0.1233
      2 O39        21.5710   28.8840   14.8050 O.3       1 065        -0.2910
      3 C40        22.7630   28.3600   15.2250 C.3       1 065         0.1868
      4 O41        22.6470   27.0410   15.6020 O.3       1 065        -0.2909
      5 C3         21.3410   26.7170   15.3790 C.ar      1 065         0.1250
      6 C4         20.6470   25.5580   15.6510 C.ar      1 065        -0.0149
      7 C5         19.2910   25.5100   15.3500 C.ar      1 065         0.0885
      8 C6         18.6640   26.5800   14.7410 C.ar      1 065        -0.0554
      9 C7         19.3640   27.7480   14.4680 C.ar      1 065        -0.0395
     10 S8         18.3430   24.1200   15.8120 S.o2      1 065         0.0633
     11 O9         17.2290   23.9410   14.8760 O.2       1 065        -0.1517
     12 O10        19.2850   22.9470   15.8840 O.2       1 065        -0.1517
     13 N11        17.7370   24.3310   17.3220 N.am      1 065        -0.2326
     14 C12        18.6720   24.6690   18.3860 C.3       1 065         0.0319
     15 C13        18.3590   24.0140   19.7370 C.3       1 065        -0.0296
     16 C14        18.3610   22.4870   19.6520 C.3       1 065        -0.0612
     17 C15        19.4110   24.4580   20.7680 C.3       1 065        -0.0612
     18 C16        16.4790   25.0530   17.3940 C.3       1 065         0.0578
     19 C17        15.3580   24.1980   17.9770 C.3       1 065         0.0967
     20 O18        14.1930   24.9630   18.2960 O.3       1 065        -0.3877
     21 C19        14.9060   23.0750   17.0330 C.3       1 065         0.0807
     22 N20        14.0350   22.1560   17.7600 N.am      1 065        -0.2550
     23 C21        14.3470   20.9060   18.1100 C.2       1 065         0.3203
     24 O22        15.3850   20.3300   17.7660 O.2       1 065        -0.3775
     25 O23        13.3650   20.3480   18.8650 O.3       1 065        -0.2578
     26 C24        13.4940   18.9400   19.1000 C.3       1 065         0.1189
     27 C25        12.8650   18.6970   20.4760 C.3       1 065         0.0815
     28 O26        11.4570   18.6830   20.2470 O.3       1 065        -0.3480
     29 C27        11.2130   18.1780   18.9500 C.3       1 065         0.1648
     30 O28        10.3050   19.0360   18.2460 O.3       1 065        -0.3509
     31 C29        11.0060   19.6830   17.1850 C.3       1 065         0.0512
     32 C30        12.1800   18.7660   16.8490 C.3       1 065        -0.0191
     33 C31        12.5370   18.1600   18.2020 C.3       1 065         0.0449
     34 C32        14.1450   23.5660   15.7960 C.3       1 065         0.0064
     35 C33        12.4210   21.9600   14.7350 C.ar      1 065        -0.0603
     36 C34        12.0880   20.8690   13.9240 C.ar      1 065        -0.0686
     37 C35        13.0880   20.1660   13.2600 C.ar      1 065        -0.0687
     38 C36        14.3970   20.5960   13.4140 C.ar      1 065        -0.0686
     39 C37        14.7190   21.7070   14.1880 C.ar      1 065        -0.0603
     40 C38        13.7420   22.3960   14.8850 C.ar      1 065        -0.0408
     41 H1         23.1233   28.9438   16.0848 H         1 065         0.0973
     42 H2         23.4904   28.4308   14.4029 H         1 065         0.0973
     43 H3         21.1476   24.7026   16.0900 H         1 065         0.0528
     44 H4         17.6160   26.5072   14.4738 H         1 065         0.0514
     45 H5         18.8737   28.5889   13.9910 H         1 065         0.0509
     46 H6         18.6587   25.7605   18.5217 H         1 065         0.0480
     47 H7         19.6776   24.3505   18.0742 H         1 065         0.0480
     48 H8         17.3639   24.3470   20.0670 H         1 065         0.0311
     49 H9         18.1324   22.0644   20.6415 H         1 065         0.0233
     50 H10        19.3520   22.1392   19.3249 H         1 065         0.0233
     51 H11        17.6000   22.1590   18.9286 H         1 065         0.0233
     52 H12        19.4170   25.5559   20.8362 H         1 065         0.0233
     53 H13        20.4042   24.1048   20.4538 H         1 065         0.0233
     54 H14        19.1640   24.0309   21.7511 H         1 065         0.0233
     55 H15        16.1930   25.3690   16.3799 H         1 065         0.0504
     56 H16        16.6153   25.9402   18.0298 H         1 065         0.0504
     57 H17        15.7411   23.7421   18.9019 H         1 065         0.0634
     58 H18        13.8636   25.3796   17.5083 H         1 065         0.2100
     59 H19        15.8020   22.5341   16.6945 H         1 065         0.0604
     60 H20        13.1286   22.4910   18.0174 H         1 065         0.1873
     61 H21        14.5366   18.5994   19.0162 H         1 065         0.0675
     62 H22        13.1345   19.5055   21.1715 H         1 065         0.0590
     63 H23        13.1983   17.7329   20.8876 H         1 065         0.0590
     64 H24        10.7951   17.1625   19.0136 H         1 065         0.0913
     65 H25        11.3698   20.6689   17.5102 H         1 065         0.0561
     66 H26        10.3509   19.8043   16.3098 H         1 065         0.0561
     67 H27        13.0240   19.3385   16.4368 H         1 065         0.0293
     68 H28        11.8810   17.9865   16.1328 H         1 065         0.0293
     69 H29        12.9225   17.1398   18.0585 H         1 065         0.0380
     70 H30        14.7888   24.2551   15.2298 H         1 065         0.0449
     71 H31        13.2373   24.0956   16.1210 H         1 065         0.0449
     72 H32        11.6317   22.4829   15.2628 H         1 065         0.0557
     73 H33        11.0514   20.5720   13.8134 H         1 065         0.0599
     74 H34        12.8510   19.3082   12.6411 H         1 065         0.0559
     75 H35        15.1921   20.0516   12.9176 H         1 065         0.0599
     76 H36        15.7498   22.0373   14.2457 H         1 065         0.0557
@<TRIPOS>BOND
     1    1    2 1  
     2    5    1 ar 
     3    9    1 ar 
     4    2    3 1  
     5    4    3 1  
     6    5    4 1  
     7    6    5 ar 
     8    7    6 ar 
     9    7    8 ar 
    10   10    7 1  
    11    8    9 ar 
    12   10   11 2  
    13   10   12 2  
    14   13   10 am 
    15   13   14 1  
    16   18   13 1  
    17   14   15 1  
    18   15   16 1  
    19   15   17 1  
    20   19   18 1  
    21   19   20 1  
    22   21   19 1  
    23   21   22 1  
    24   34   21 1  
    25   22   23 am 
    26   23   24 2  
    27   23   25 1  
    28   25   26 1  
    29   26   27 1  
    30   26   33 1  
    31   27   28 1  
    32   29   28 1  
    33   29   30 1  
    34   33   29 1  
    35   31   30 1  
    36   32   31 1  
    37   33   32 1  
    38   40   34 1  
    39   35   36 ar 
    40   35   40 ar 
    41   36   37 ar 
    42   37   38 ar 
    43   38   39 ar 
    44   39   40 ar 
    45    3   41 1  
    46    3   42 1  
    47    6   43 1  
    48    8   44 1  
    49    9   45 1  
    50   14   46 1  
    51   14   47 1  
    52   15   48 1  
    53   16   49 1  
    54   16   50 1  
    55   16   51 1  
    56   17   52 1  
    57   17   53 1  
    58   17   54 1  
    59   18   55 1  
    60   18   56 1  
    61   19   57 1  
    62   20   58 1  
    63   21   59 1  
    64   22   60 1  
    65   26   61 1  
    66   27   62 1  
    67   27   63 1  
    68   29   64 1  
    69   31   65 1  
    70   31   66 1  
    71   32   67 1  
    72   32   68 1  
    73   33   69 1  
    74   34   70 1  
    75   34   71 1  
    76   35   72 1  
    77   36   73 1  
    78   37   74 1  
    79   38   75 1  
    80   39   76 1  
@<TRIPOS>SUBSTRUCTURE
     1 065         1

