### 
### Created by X-TOOL on Mon Sep 10 21:12:57 2018
### 

@<TRIPOS>MOLECULE
2qd7_ligand
   76    80     1     0     0
SMALL
GAST_HUCK


@<TRIPOS>ATOM
      1 C2         15.7990   34.9010   17.7930 C.ar      1 065         0.1233
      2 O39        15.2650   35.8150   18.6450 O.3       1 065        -0.2910
      3 C40        15.8940   37.0150   18.3890 C.3       1 065         0.1868
      4 O41        16.7990   36.8680   17.3670 O.3       1 065        -0.2909
      5 C3         16.7810   35.5430   17.0400 C.ar      1 065         0.1250
      6 C4         17.5590   34.8700   16.1090 C.ar      1 065        -0.0149
      7 C5         17.2820   33.5300   15.9640 C.ar      1 065         0.0885
      8 C6         16.3260   32.9060   16.7240 C.ar      1 065        -0.0554
      9 C7         15.4960   33.5800   17.6090 C.ar      1 065        -0.0395
     10 S8         18.3310   32.5530   14.9410 S.o2      1 065         0.0633
     11 O9         17.5450   31.4520   14.4340 O.2       1 065        -0.1517
     12 O10        18.9800   33.4600   14.0140 O.2       1 065        -0.1517
     13 N11        19.5450   31.9210   15.8580 N.am      1 065        -0.2326
     14 C12        20.4050   32.8770   16.5370 C.3       1 065         0.0319
     15 C13        21.8880   32.5200   16.5770 C.3       1 065        -0.0296
     16 C14        22.4580   32.4660   15.1510 C.3       1 065        -0.0612
     17 C15        22.6430   33.5450   17.4220 C.3       1 065        -0.0612
     18 C16        19.2780   30.6780   16.5480 C.3       1 065         0.0578
     19 C17        20.1130   29.5170   15.9900 C.3       1 065         0.0967
     20 O18        20.0080   28.4050   16.9070 O.3       1 065        -0.3877
     21 C19        19.7050   29.0580   14.6090 C.3       1 065         0.0807
     22 N20        20.6950   28.1640   14.0840 N.am      1 065        -0.2550
     23 C21        21.5680   28.4800   13.1080 C.2       1 065         0.3203
     24 O22        21.6490   29.5530   12.5210 O.2       1 065        -0.3775
     25 O23        22.3930   27.4380   12.8720 O.3       1 065        -0.2578
     26 C24        23.2150   27.5130   11.6860 C.3       1 065         0.1189
     27 C25        24.5420   26.8680   12.0230 C.3       1 065         0.0815
     28 O26        24.2740   25.4600   11.9680 O.3       1 065        -0.3480
     29 C27        23.3070   25.2350   10.9570 C.3       1 065         0.1648
     30 O28        22.2570   24.4470   11.5030 O.3       1 065        -0.3509
     31 C29        21.0310   25.1440   11.5490 C.3       1 065         0.0512
     32 C30        21.2000   26.3740   10.6240 C.3       1 065        -0.0191
     33 C31        22.6950   26.5770   10.5860 C.3       1 065         0.0449
     34 C32        18.3500   28.3800   14.5140 C.3       1 065         0.0064
     35 C33        17.8930   26.5890   12.7950 C.ar      1 065        -0.0603
     36 C34        17.6510   26.2220   11.4790 C.ar      1 065        -0.0686
     37 C35        17.4620   27.1500   10.4950 C.ar      1 065        -0.0687
     38 C36        17.6060   28.5090   10.7860 C.ar      1 065        -0.0686
     39 C37        17.8720   28.8930   12.1120 C.ar      1 065        -0.0603
     40 C38        18.0130   27.9390   13.1060 C.ar      1 065        -0.0408
     41 H1         16.4205   37.3497   19.2950 H         1 065         0.0973
     42 H2         15.1423   37.7655   18.1033 H         1 065         0.0973
     43 H3         18.3328   35.3663   15.5346 H         1 065         0.0528
     44 H4         16.2129   31.8321   16.6287 H         1 065         0.0514
     45 H5         14.6695   33.0957   18.1164 H         1 065         0.0509
     46 H6         20.0521   32.9719   17.5745 H         1 065         0.0480
     47 H7         20.3041   33.8455   16.0253 H         1 065         0.0480
     48 H8         22.0023   31.5284   17.0392 H         1 065         0.0311
     49 H9         23.5265   32.2080   15.1928 H         1 065         0.0233
     50 H10        22.3364   33.4478   14.6701 H         1 065         0.0233
     51 H11        21.9192   31.7035   14.5694 H         1 065         0.0233
     52 H12        22.2193   33.5670   18.4369 H         1 065         0.0233
     53 H13        22.5476   34.5402   16.9632 H         1 065         0.0233
     54 H14        23.7057   33.2657   17.4744 H         1 065         0.0233
     55 H15        18.2114   30.4329   16.4375 H         1 065         0.0504
     56 H16        19.5163   30.8059   17.6142 H         1 065         0.0504
     57 H17        21.1617   29.8452   15.9401 H         1 065         0.0634
     58 H18        19.0975   28.1454   16.9852 H         1 065         0.2100
     59 H19        19.6685   29.9525   13.9699 H         1 065         0.0604
     60 H20        20.7407   27.2422   14.4689 H         1 065         0.1873
     61 H21        23.3145   28.5514   11.3371 H         1 065         0.0675
     62 H22        24.8744   27.1626   13.0293 H         1 065         0.0590
     63 H23        25.3098   27.1478   11.2866 H         1 065         0.0590
     64 H24        23.7591   24.7453   10.0819 H         1 065         0.0913
     65 H25        20.8142   25.4673   12.5778 H         1 065         0.0561
     66 H26        20.2139   24.5032   11.1861 H         1 065         0.0561
     67 H27        20.6932   27.2554   11.0439 H         1 065         0.0293
     68 H28        20.8047   26.1681    9.6184 H         1 065         0.0293
     69 H29        23.0104   26.9248    9.5912 H         1 065         0.0380
     70 H30        17.5788   29.0862   14.8552 H         1 065         0.0449
     71 H31        18.3527   27.4957   15.1682 H         1 065         0.0449
     72 H32        17.9870   25.8353   13.5684 H         1 065         0.0557
     73 H33        17.6108   25.1690   11.2247 H         1 065         0.0599
     74 H34        17.2012   26.8333    9.4916 H         1 065         0.0559
     75 H35        17.5143   29.2537   10.0036 H         1 065         0.0599
     76 H36        17.9675   29.9443   12.3584 H         1 065         0.0557
@<TRIPOS>BOND
     1    1    2 1  
     2    5    1 ar 
     3    9    1 ar 
     4    2    3 1  
     5    4    3 1  
     6    5    4 1  
     7    6    5 ar 
     8    7    6 ar 
     9    7    8 ar 
    10   10    7 1  
    11    8    9 ar 
    12   10   11 2  
    13   10   12 2  
    14   13   10 am 
    15   13   14 1  
    16   18   13 1  
    17   14   15 1  
    18   15   16 1  
    19   15   17 1  
    20   19   18 1  
    21   19   20 1  
    22   21   19 1  
    23   21   22 1  
    24   34   21 1  
    25   22   23 am 
    26   23   24 2  
    27   23   25 1  
    28   25   26 1  
    29   26   27 1  
    30   26   33 1  
    31   27   28 1  
    32   29   28 1  
    33   29   30 1  
    34   33   29 1  
    35   31   30 1  
    36   32   31 1  
    37   33   32 1  
    38   40   34 1  
    39   35   36 ar 
    40   35   40 ar 
    41   36   37 ar 
    42   37   38 ar 
    43   38   39 ar 
    44   39   40 ar 
    45    3   41 1  
    46    3   42 1  
    47    6   43 1  
    48    8   44 1  
    49    9   45 1  
    50   14   46 1  
    51   14   47 1  
    52   15   48 1  
    53   16   49 1  
    54   16   50 1  
    55   16   51 1  
    56   17   52 1  
    57   17   53 1  
    58   17   54 1  
    59   18   55 1  
    60   18   56 1  
    61   19   57 1  
    62   20   58 1  
    63   21   59 1  
    64   22   60 1  
    65   26   61 1  
    66   27   62 1  
    67   27   63 1  
    68   29   64 1  
    69   31   65 1  
    70   31   66 1  
    71   32   67 1  
    72   32   68 1  
    73   33   69 1  
    74   34   70 1  
    75   34   71 1  
    76   35   72 1  
    77   36   73 1  
    78   37   74 1  
    79   38   75 1  
    80   39   76 1  
@<TRIPOS>SUBSTRUCTURE
     1 065         1

