### 
### Created by X-TOOL on Mon Sep 10 21:12:57 2018
### 

@<TRIPOS>MOLECULE
2qd8_ligand
   76    80     1     0     0
SMALL
GAST_HUCK


@<TRIPOS>ATOM
      1 C2         20.7090   27.7160   14.8540 C.ar      1 065         0.1233
      2 O39        21.5860   28.7490   14.7200 O.3       1 065        -0.2910
      3 C40        22.8190   28.2580   15.1430 C.3       1 065         0.1868
      4 O41        22.6870   26.9580   15.5850 O.3       1 065        -0.2909
      5 C3         21.3650   26.6280   15.4210 C.ar      1 065         0.1250
      6 C4         20.6830   25.4480   15.6980 C.ar      1 065        -0.0149
      7 C5         19.3350   25.4000   15.4050 C.ar      1 065         0.0885
      8 C6         18.6950   26.4650   14.7960 C.ar      1 065        -0.0554
      9 C7         19.3760   27.6400   14.5180 C.ar      1 065        -0.0395
     10 S8         18.4100   23.9910   15.8940 S.o2      1 065         0.0633
     11 O9         17.2920   23.8100   14.9690 O.2       1 065        -0.1517
     12 O10        19.3530   22.8500   16.0300 O.2       1 065        -0.1517
     13 N11        17.7780   24.2250   17.3930 N.am      1 065        -0.2326
     14 C12        18.7330   24.4620   18.4530 C.3       1 065         0.0319
     15 C13        18.3290   23.8850   19.8230 C.3       1 065        -0.0296
     16 C14        18.2060   22.3750   19.7590 C.3       1 065        -0.0612
     17 C15        19.4010   24.2830   20.8460 C.3       1 065        -0.0612
     18 C16        16.5280   24.9640   17.4540 C.3       1 065         0.0578
     19 C17        15.3760   24.0910   17.9560 C.3       1 065         0.0967
     20 O18        14.2200   24.8620   18.2540 O.3       1 065        -0.3877
     21 C19        14.9920   22.9510   17.0200 C.3       1 065         0.0807
     22 N20        14.1330   22.0470   17.7640 N.am      1 065        -0.2550
     23 C21        14.4210   20.7930   18.0960 C.2       1 065         0.3203
     24 O22        15.4840   20.2190   17.8230 O.2       1 065        -0.3775
     25 O23        13.4160   20.1810   18.7560 O.3       1 065        -0.2578
     26 C24        13.6080   18.7930   19.0350 C.3       1 065         0.1189
     27 C25        13.0130   18.5840   20.4330 C.3       1 065         0.0815
     28 O26        11.5790   18.5830   20.2550 O.3       1 065        -0.3480
     29 C27        11.3230   18.0010   18.9890 C.3       1 065         0.1648
     30 O28        10.3890   18.8400   18.2990 O.3       1 065        -0.3509
     31 C29        11.0500   19.4490   17.2120 C.3       1 065         0.0512
     32 C30        12.2280   18.5370   16.8290 C.3       1 065        -0.0191
     33 C31        12.6220   17.9720   18.1950 C.3       1 065         0.0449
     34 C32        14.2230   23.4030   15.7760 C.3       1 065         0.0064
     35 C33        12.5820   21.7530   14.7410 C.ar      1 065        -0.0603
     36 C34        12.2640   20.6450   13.9600 C.ar      1 065        -0.0686
     37 C35        13.2560   19.9650   13.3040 C.ar      1 065        -0.0687
     38 C36        14.5520   20.4170   13.4440 C.ar      1 065        -0.0686
     39 C37        14.8770   21.5280   14.2140 C.ar      1 065        -0.0603
     40 C38        13.8760   22.2150   14.8920 C.ar      1 065        -0.0408
     41 H1         23.1974   28.8844   15.9642 H         1 065         0.0973
     42 H2         23.5289   28.2861   14.3033 H         1 065         0.0973
     43 H3         21.1931   24.5944   16.1296 H         1 065         0.0528
     44 H4         17.6469   26.3793   14.5327 H         1 065         0.0514
     45 H5         18.8722   28.4771   14.0484 H         1 065         0.0509
     46 H6         18.8604   25.5490   18.5630 H         1 065         0.0480
     47 H7         19.6910   24.0084   18.1591 H         1 065         0.0480
     48 H8         17.3599   24.3092   20.1243 H         1 065         0.0311
     49 H9         17.9172   21.9884   20.7475 H         1 065         0.0233
     50 H10        19.1724   21.9406   19.4634 H         1 065         0.0233
     51 H11        17.4391   22.1006   19.0197 H         1 065         0.0233
     52 H12        19.4820   25.3793   20.8845 H         1 065         0.0233
     53 H13        20.3692   23.8540   20.5483 H         1 065         0.0233
     54 H14        19.1204   23.9011   21.8386 H         1 065         0.0233
     55 H15        16.2827   25.3327   16.4471 H         1 065         0.0504
     56 H16        16.6518   25.8174   18.1369 H         1 065         0.0504
     57 H17        15.7189   23.6328   18.8954 H         1 065         0.0634
     58 H18        13.9320   25.3147   17.4701 H         1 065         0.2100
     59 H19        15.9063   22.4286   16.7019 H         1 065         0.0604
     60 H20        13.2433   22.4005   18.0529 H         1 065         0.1873
     61 H21        14.6557   18.4755   18.9281 H         1 065         0.0675
     62 H22        13.3150   19.4017   21.1039 H         1 065         0.0590
     63 H23        13.3475   17.6235   20.8519 H         1 065         0.0590
     64 H24        10.9194   16.9843   19.1047 H         1 065         0.0913
     65 H25        11.4216   20.4420   17.5050 H         1 065         0.0561
     66 H26        10.3606   19.5519   16.3610 H         1 065         0.0561
     67 H27        13.0511   19.1099   16.3770 H         1 065         0.0293
     68 H28        11.9134   17.7404   16.1388 H         1 065         0.0293
     69 H29        13.0101   16.9501   18.0720 H         1 065         0.0380
     70 H30        14.8446   24.1079   15.2045 H         1 065         0.0449
     71 H31        13.2943   23.9030   16.0884 H         1 065         0.0449
     72 H32        11.7812   22.2752   15.2520 H         1 065         0.0557
     73 H33        11.2334   20.3210   13.8712 H         1 065         0.0599
     74 H34        13.0296   19.0983   12.6936 H         1 065         0.0559
     75 H35        15.3473   19.8855   12.9341 H         1 065         0.0599
     76 H36        15.9072   21.8576   14.2856 H         1 065         0.0557
@<TRIPOS>BOND
     1    1    2 1  
     2    5    1 ar 
     3    9    1 ar 
     4    2    3 1  
     5    4    3 1  
     6    5    4 1  
     7    6    5 ar 
     8    7    6 ar 
     9    7    8 ar 
    10   10    7 1  
    11    8    9 ar 
    12   10   11 2  
    13   10   12 2  
    14   13   10 am 
    15   13   14 1  
    16   18   13 1  
    17   14   15 1  
    18   15   16 1  
    19   15   17 1  
    20   19   18 1  
    21   19   20 1  
    22   21   19 1  
    23   21   22 1  
    24   34   21 1  
    25   22   23 am 
    26   23   24 2  
    27   23   25 1  
    28   25   26 1  
    29   26   27 1  
    30   26   33 1  
    31   27   28 1  
    32   29   28 1  
    33   29   30 1  
    34   33   29 1  
    35   31   30 1  
    36   32   31 1  
    37   33   32 1  
    38   40   34 1  
    39   35   36 ar 
    40   35   40 ar 
    41   36   37 ar 
    42   37   38 ar 
    43   38   39 ar 
    44   39   40 ar 
    45    3   41 1  
    46    3   42 1  
    47    6   43 1  
    48    8   44 1  
    49    9   45 1  
    50   14   46 1  
    51   14   47 1  
    52   15   48 1  
    53   16   49 1  
    54   16   50 1  
    55   16   51 1  
    56   17   52 1  
    57   17   53 1  
    58   17   54 1  
    59   18   55 1  
    60   18   56 1  
    61   19   57 1  
    62   20   58 1  
    63   21   59 1  
    64   22   60 1  
    65   26   61 1  
    66   27   62 1  
    67   27   63 1  
    68   29   64 1  
    69   31   65 1  
    70   31   66 1  
    71   32   67 1  
    72   32   68 1  
    73   33   69 1  
    74   34   70 1  
    75   34   71 1  
    76   35   72 1  
    77   36   73 1  
    78   37   74 1  
    79   38   75 1  
    80   39   76 1  
@<TRIPOS>SUBSTRUCTURE
     1 065         1

