### 
### Created by X-TOOL on Mon Sep 10 21:12:56 2018
### 

@<TRIPOS>MOLECULE
2qd9_ligand
   64    69     1     0     0
SMALL
GAST_HUCK


@<TRIPOS>ATOM
      1 C13        -5.1970    0.8110   16.0660 C.ar      1 LGF         0.1314
      2 C18        -1.1390   -1.6720   24.8540 C.ar      1 LGF         0.0937
      3 C16        -1.6310   -2.2060   23.4880 C.2       1 LGF         0.2050
      4 C15        -3.1990    1.7070   17.1910 C.ar      1 LGF        -0.0533
      5 C19        -1.9510   -1.8190   25.9190 C.ar      1 LGF        -0.0377
      6 C21         0.1860   -0.9190   24.9690 C.ar      1 LGF         0.1696
      7 C22        -0.2310   -0.6320   27.1240 C.ar      1 LGF         0.1324
      8 C23        -1.3700   -1.2650   27.1320 C.ar      1 LGF         0.0150
      9 C24        -1.9240   -1.2560   28.5060 C.2       1 LGF         0.0512
     10 C11        -5.1530    0.8710   18.3680 C.ar      1 LGF         0.1438
     11 C12        -5.8630    0.5360   17.1740 C.ar      1 LGF         0.0067
     12 C27        -3.1870   -1.8730   29.0110 C.2       1 LGF         0.2135
     13 F33        -5.7360    0.3790   14.9510 F         1 LGF        -0.1838
     14 C14        -3.9000    1.3950   16.0670 C.ar      1 LGF        -0.0311
     15 F32        -5.7910    0.5110   19.5240 F         1 LGF        -0.1820
     16 C10        -3.8760    1.3600   18.4250 C.ar      1 LGF         0.0514
     17 C9         -3.2220    1.5840   19.7610 C.2       1 LGF         0.1285
     18 N8         -2.7010    2.6700   20.2160 N.2       1 LGF        -0.3398
     19 N5         -2.8910    0.5150   20.6160 N.pl3     1 LGF        -0.2405
     20 C6         -2.2000    1.0350   21.6110 C.2       1 LGF         0.0790
     21 C7         -2.0610    2.3530   21.4570 C.2       1 LGF        -0.0228
     22 C4         -1.6440    0.2260   22.6970 C.3       1 LGF         0.0895
     23 N3         -1.9080   -1.1750   22.4590 N.am      1 LGF        -0.2580
     24 C2         -2.0920   -1.7360   21.0890 C.3       1 LGF         0.0628
     25 C1         -3.2270   -0.9140   20.4330 C.3       1 LGF         0.0774
     26 O17        -1.7520   -3.3570   23.1670 O.2       1 LGF        -0.3910
     27 N26         0.0150   -0.2090   28.3880 N.pl3     1 LGF        -0.2583
     28 C25        -1.0250   -0.5800   29.2420 C.2       1 LGF         0.0515
     29 N20         0.5780   -0.4660   26.0620 N.ar      1 LGF        -0.2564
     30 O34         0.9070   -0.7750   23.8330 O.3       1 LGF        -0.3027
     31 C35         2.1800   -0.0500   23.9140 C.3       1 LGF         0.0635
     32 O28        -3.8580   -2.6410   28.3010 O.2       1 LGF        -0.3588
     33 C29        -3.6340   -1.6020   30.4450 C.2       1 LGF         0.2635
     34 O31        -3.4460   -0.4910   30.9570 O.2       1 LGF        -0.3615
     35 N30        -4.2140   -2.5750   31.2580 N.am      1 LGF        -0.2610
     36 C36        -3.6840   -3.8920   31.4860 C.3       1 LGF         0.0607
     37 C37        -5.0400   -4.5980   31.4630 C.3       1 LGF         0.0775
     38 O40        -5.5640   -4.6960   30.1400 O.3       1 LGF        -0.3897
     39 C38        -5.8970   -3.7630   32.4010 C.3       1 LGF        -0.0043
     40 C39        -5.4650   -2.3350   31.9840 C.3       1 LGF         0.0372
     41 H1         -2.2209    2.1737   17.1658 H         1 LGF         0.0605
     42 H2         -2.9241   -2.2948   25.8768 H         1 LGF         0.0715
     43 H3         -6.8544    0.0976   17.1767 H         1 LGF         0.0591
     44 H4         -3.4392    1.6056   15.1087 H         1 LGF         0.0573
     45 H5         -1.5635    3.0448   22.1351 H         1 LGF         0.0354
     46 H6         -2.1070    0.5268   23.6484 H         1 LGF         0.0711
     47 H7         -0.5572    0.3872   22.7510 H         1 LGF         0.0711
     48 H8         -2.3747   -2.7975   21.1467 H         1 LGF         0.0551
     49 H9         -1.1635   -1.6348   20.5079 H         1 LGF         0.0551
     50 H10        -3.2938   -1.1516   19.3611 H         1 LGF         0.0634
     51 H11        -4.1870   -1.1412   20.9195 H         1 LGF         0.0634
     52 H12         0.8535    0.3140   28.6783 H         1 LGF         0.2354
     53 H13        -1.0950   -0.3622   30.3067 H         1 LGF         0.1062
     54 H14         2.6464   -0.0157   22.9184 H         1 LGF         0.0585
     55 H15         2.8517   -0.5658   24.6159 H         1 LGF         0.0585
     56 H16         1.9963    0.9750   24.2683 H         1 LGF         0.0585
     57 H17        -3.1703   -3.9844   32.4543 H         1 LGF         0.0549
     58 H18        -3.0133   -4.2281   30.6815 H         1 LGF         0.0549
     59 H19        -4.9398   -5.6170   31.8650 H         1 LGF         0.0614
     60 H20        -6.4042   -5.1387   30.1653 H         1 LGF         0.2099
     61 H21        -5.6610   -3.9666   33.4559 H         1 LGF         0.0310
     62 H22        -6.9702   -3.9295   32.2266 H         1 LGF         0.0310
     63 H23        -6.2180   -1.8673   31.3327 H         1 LGF         0.0525
     64 H24        -5.2963   -1.6986   32.8652 H         1 LGF         0.0525
@<TRIPOS>BOND
     1   11    1 ar 
     2    1   13 1  
     3   14    1 ar 
     4    3    2 1  
     5    2    5 ar 
     6    2    6 ar 
     7   23    3 am 
     8    3   26 2  
     9    4   14 ar 
    10   16    4 ar 
    11    5    8 ar 
    12    6   29 ar 
    13    6   30 1  
    14    8    7 ar 
    15    7   27 1  
    16   29    7 ar 
    17    8    9 1  
    18    9   12 1  
    19    9   28 2  
    20   10   11 ar 
    21   10   15 1  
    22   16   10 ar 
    23   12   32 2  
    24   12   33 1  
    25   17   16 1  
    26   18   17 2  
    27   19   17 1  
    28   21   18 1  
    29   20   19 1  
    30   19   25 1  
    31   20   21 2  
    32   22   20 1  
    33   22   23 1  
    34   23   24 1  
    35   24   25 1  
    36   27   28 1  
    37   30   31 1  
    38   33   34 2  
    39   33   35 am 
    40   35   36 1  
    41   35   40 1  
    42   36   37 1  
    43   37   38 1  
    44   37   39 1  
    45   39   40 1  
    46    4   41 1  
    47    5   42 1  
    48   11   43 1  
    49   14   44 1  
    50   21   45 1  
    51   22   46 1  
    52   22   47 1  
    53   24   48 1  
    54   24   49 1  
    55   25   50 1  
    56   25   51 1  
    57   27   52 1  
    58   28   53 1  
    59   31   54 1  
    60   31   55 1  
    61   31   56 1  
    62   36   57 1  
    63   36   58 1  
    64   37   59 1  
    65   38   60 1  
    66   39   61 1  
    67   39   62 1  
    68   40   63 1  
    69   40   64 1  
@<TRIPOS>SUBSTRUCTURE
     1 LGF         1

