### 
### Created by X-TOOL on Mon Sep 10 21:12:55 2018
### 

@<TRIPOS>MOLECULE
2qdt_ligand
   21    20     1     0     0
SMALL
GAST_HUCK


@<TRIPOS>ATOM
      1 S          12.9820   31.5080   31.6640 S.3       1 I38        -0.1759
      2 C1         13.5230   30.4940   30.4480 C.3       1 I38         0.0075
      3 C2         12.5450   29.3450   30.2370 C.3       1 I38         0.0461
      4 C3         12.4230   28.4640   31.4650 C.2       1 I38         0.1784
      5 O3         12.9710   27.4010   31.4110 O.2       1 I38        -0.3969
      6 N4         11.7410   28.8910   32.5400 N.am      1 I38        -0.2716
      7 C5         11.4840   28.1320   33.7660 C.3       1 I38         0.0915
      8 C51         9.9690   28.0440   33.9450 C.3       1 I38        -0.0300
      9 C6         12.1340   28.7300   35.0060 C.2       1 I38         0.0598
     10 O62        12.5230   29.9380   34.9390 O.co2     1 I38        -0.5666
     11 O61        12.2670   28.0220   36.0600 O.co2     1 I38        -0.5666
     12 H1         13.6402   32.2610   31.7896 H         1 I38         0.1018
     13 H2         14.5057   30.0862   30.7271 H         1 I38         0.0398
     14 H3         13.6156   31.0667   29.5135 H         1 I38         0.0398
     15 H4         12.8959   28.7313   29.3942 H         1 I38         0.0510
     16 H5         11.5549   29.7615   30.0001 H         1 I38         0.0510
     17 H6         11.3719   29.8195   32.4995 H         1 I38         0.1875
     18 H7         11.8871   27.1171   33.6339 H         1 I38         0.0723
     19 H8          9.7402   27.4781   34.8601 H         1 I38         0.0270
     20 H9          9.5263   27.5328   33.0774 H         1 I38         0.0270
     21 H10         9.5499   29.0577   34.0265 H         1 I38         0.0270
@<TRIPOS>BOND
     1    1    2 1  
     2    2    3 1  
     3    3    4 1  
     4    4    5 2  
     5    4    6 am 
     6    6    7 1  
     7    7    8 1  
     8    7    9 1  
     9    9   10 ar 
    10    9   11 ar 
    11    1   12 1  
    12    2   13 1  
    13    2   14 1  
    14    3   15 1  
    15    3   16 1  
    16    6   17 1  
    17    7   18 1  
    18    8   19 1  
    19    8   20 1  
    20    8   21 1  
@<TRIPOS>SUBSTRUCTURE
     1 I38         1

