### 
### Created by X-TOOL on Mon Sep 10 21:12:56 2018
### 

@<TRIPOS>MOLECULE
2qe2_ligand
   38    39     1     0     0
SMALL
GAST_HUCK


@<TRIPOS>ATOM
      1 C1        -21.4520   -1.9140   11.4110 C.3       1 452         0.0083
      2 C2        -20.0180   -1.7770   10.9480 C.2       1 452         0.1208
      3 O1        -19.3240   -0.7910   11.3020 O.2       1 452        -0.3868
      4 C3        -19.4170   -2.8700   10.0660 C.ar      1 452         0.0481
      5 C4        -20.2920   -3.8840    9.5080 C.ar      1 452        -0.0203
      6 C5        -19.7590   -4.9380    8.6800 C.ar      1 452         0.1380
      7 C6        -18.3590   -4.9810    8.4010 C.ar      1 452         0.0673
      8 C7        -17.5190   -3.9830    8.9350 C.ar      1 452        -0.0252
      9 C8        -17.9970   -2.8980    9.7800 C.ar      1 452         0.0570
     10 N1        -17.1370   -1.8910   10.3240 N.pl3     1 452        -0.3017
     11 C9        -15.6860   -1.7200   10.1180 C.3       1 452         0.1206
     12 C10       -14.8480   -2.6840   10.9710 C.2       1 452         0.2270
     13 O2        -13.6350   -2.6810   10.8640 O.2       1 452        -0.3819
     14 N2        -15.6210   -3.4730   11.8330 N.am      1 452        -0.2290
     15 C11       -15.2180   -4.5090   12.7690 C.ar      1 452         0.0814
     16 C12       -13.9460   -5.1950   12.6800 C.ar      1 452        -0.0372
     17 C13       -13.5770   -6.2010   13.5970 C.ar      1 452        -0.0728
     18 C14       -14.4540   -6.5730   14.6300 C.ar      1 452        -0.0734
     19 C15       -15.7120   -5.9430   14.7540 C.ar      1 452        -0.0611
     20 C16       -16.1300   -4.9100   13.8420 C.ar      1 452         0.0304
     21 C17       -17.5100   -4.3020   14.0580 C.2       1 452         0.0547
     22 O3        -18.1400   -4.6540   15.1100 O.co2     1 452        -0.5656
     23 O4        -17.9400   -3.4950   13.1760 O.co2     1 452        -0.5656
     24 CL1       -17.6590   -6.2270    7.4400 Cl        1 452        -0.0709
     25 F1        -20.6130   -5.8790    8.1670 F         1 452        -0.1924
     26 H1        -21.8845   -2.8367   10.9967 H         1 452         0.0446
     27 H2        -22.0340   -1.0479   11.0631 H         1 452         0.0446
     28 H3        -21.4800   -1.9572   12.5098 H         1 452         0.0446
     29 H4        -21.3555   -3.8492    9.7152 H         1 452         0.0623
     30 H5        -16.4607   -4.0256    8.7042 H         1 452         0.0525
     31 H6        -17.5887   -1.1976   10.9373 H         1 452         0.1800
     32 H7        -15.4124   -0.6879   10.3822 H         1 452         0.0763
     33 H8        -15.4577   -1.8998    9.0571 H         1 452         0.0763
     34 H9        -16.6045   -3.2953   11.7988 H         1 452         0.2276
     35 H10       -13.2579   -4.9278   11.8861 H         1 452         0.0511
     36 H11       -12.6135   -6.6890   13.5046 H         1 452         0.0598
     37 H12       -14.1643   -7.3453   15.3334 H         1 452         0.0496
     38 H13       -16.3783   -6.2441   15.5543 H         1 452         0.0611
@<TRIPOS>BOND
     1    1    2 1  
     2    2    3 2  
     3    2    4 1  
     4    4    5 ar 
     5    4    9 ar 
     6    5    6 ar 
     7    6    7 ar 
     8    6   25 1  
     9    7    8 ar 
    10    7   24 1  
    11    8    9 ar 
    12    9   10 1  
    13   10   11 1  
    14   11   12 1  
    15   12   13 2  
    16   12   14 am 
    17   14   15 1  
    18   15   16 ar 
    19   15   20 ar 
    20   16   17 ar 
    21   17   18 ar 
    22   18   19 ar 
    23   19   20 ar 
    24   20   21 1  
    25   21   22 ar 
    26   21   23 ar 
    27    1   26 1  
    28    1   27 1  
    29    1   28 1  
    30    5   29 1  
    31    8   30 1  
    32   10   31 1  
    33   11   32 1  
    34   11   33 1  
    35   14   34 1  
    36   16   35 1  
    37   17   36 1  
    38   18   37 1  
    39   19   38 1  
@<TRIPOS>SUBSTRUCTURE
     1 452         1

