### 
### Created by X-TOOL on Mon Sep 10 21:12:56 2018
### 

@<TRIPOS>MOLECULE
2qe4_ligand
   46    49     1     0     0
SMALL
GAST_HUCK


@<TRIPOS>ATOM
      1 C1         -6.4620    8.4360   26.6260 C.ar      1 JJ3         0.0636
      2 C2         -5.7230    8.3090   25.4190 C.ar      1 JJ3        -0.0449
      3 C3         -5.8470    7.1600   24.6240 C.ar      1 JJ3        -0.0028
      4 C4         -6.7340    6.0980   25.0240 C.ar      1 JJ3         0.0879
      5 O5         -6.8220    4.9660   24.1960 O.3       1 JJ3        -0.3185
      6 C6         -8.0640    4.2460   24.3750 C.3       1 JJ3         0.1090
      7 C8         -8.3130    3.8660   25.8760 C.3       1 JJ3         0.0079
      8 C10        -7.1390    3.0300   26.4960 C.3       1 JJ3        -0.0440
      9 C11        -7.0820    3.4560   27.9870 C.3       1 JJ3        -0.0506
     10 C12        -8.0280    4.6520   28.1620 C.3       1 JJ3        -0.0418
     11 C13        -8.4400    5.1430   26.7400 C.3       1 JJ3        -0.0060
     12 C15        -7.4740    6.2350   26.2470 C.ar      1 JJ3        -0.0246
     13 C16        -7.3310    7.4070   27.0320 C.ar      1 JJ3        -0.0468
     14 C17        -8.1190    2.9810   23.5130 C.ar      1 JJ3        -0.0211
     15 C18        -7.0150    2.5600   22.7320 C.ar      1 JJ3        -0.0660
     16 C19        -7.1120    1.3840   21.9550 C.ar      1 JJ3        -0.0397
     17 C20        -8.3140    0.6290   21.9650 C.ar      1 JJ3         0.0805
     18 O21        -8.4260   -0.5050   21.2310 O.3       1 JJ3        -0.3376
     19 C22        -9.4020    1.0510   22.7380 C.ar      1 JJ3        -0.0397
     20 C23        -9.3070    2.2150   23.5050 C.ar      1 JJ3        -0.0660
     21 C24        -5.0390    7.0700   23.3360 C.3       1 JJ3         0.0757
     22 O25        -5.9120    6.8010   22.2240 O.3       1 JJ3        -0.3728
     23 C26        -6.0140    8.0040   21.4600 C.3       1 JJ3         0.0387
     24 O27        -6.3330    9.5520   27.3890 O.3       1 JJ3        -0.3436
     25 H1         -5.0576    9.1070   25.1099 H         1 JJ3         0.0399
     26 H2         -8.8797    4.9106   24.0543 H         1 JJ3         0.0787
     27 H3         -9.2437    3.2829   25.9369 H         1 JJ3         0.0371
     28 H4         -6.1900    3.2637   25.9912 H         1 JJ3         0.0272
     29 H5         -7.3446    1.9528   26.4099 H         1 JJ3         0.0272
     30 H6         -6.0557    3.7467   28.2555 H         1 JJ3         0.0267
     31 H7         -7.4069    2.6233   28.6281 H         1 JJ3         0.0267
     32 H8         -7.5140    5.4602   28.7030 H         1 JJ3         0.0287
     33 H9         -8.9212    4.3439   28.7252 H         1 JJ3         0.0287
     34 H10        -9.4706    5.5274   26.7332 H         1 JJ3         0.0440
     35 H11        -7.8954    7.5109   27.9517 H         1 JJ3         0.0398
     36 H12        -6.0982    3.1384   22.7304 H         1 JJ3         0.0531
     37 H13        -6.2710    1.0593   21.3530 H         1 JJ3         0.0525
     38 H14        -9.2908   -0.8777   21.3560 H         1 JJ3         0.2458
     39 H15       -10.3196    0.4739   22.7416 H         1 JJ3         0.0525
     40 H16       -10.1543    2.5344   24.1009 H         1 JJ3         0.0531
     41 H17        -4.3017    6.2585   23.4246 H         1 JJ3         0.0697
     42 H18        -4.5167    8.0231   23.1665 H         1 JJ3         0.0697
     43 H19        -6.6763    7.8358   20.5980 H         1 JJ3         0.0525
     44 H20        -5.0157    8.2978   21.1035 H         1 JJ3         0.0525
     45 H21        -6.4286    8.8046   22.0902 H         1 JJ3         0.0525
     46 H22        -5.7136   10.1446   26.9792 H         1 JJ3         0.2442
@<TRIPOS>BOND
     1    1    2 ar 
     2    1   13 ar 
     3    1   24 1  
     4    2    3 ar 
     5    3    4 ar 
     6    3   21 1  
     7    4    5 1  
     8    4   12 ar 
     9    5    6 1  
    10    6    7 1  
    11    6   14 1  
    12    7    8 1  
    13    7   11 1  
    14    8    9 1  
    15    9   10 1  
    16   10   11 1  
    17   11   12 1  
    18   12   13 ar 
    19   14   15 ar 
    20   14   20 ar 
    21   15   16 ar 
    22   16   17 ar 
    23   17   18 1  
    24   17   19 ar 
    25   19   20 ar 
    26   21   22 1  
    27   22   23 1  
    28    2   25 1  
    29    6   26 1  
    30    7   27 1  
    31    8   28 1  
    32    8   29 1  
    33    9   30 1  
    34    9   31 1  
    35   10   32 1  
    36   10   33 1  
    37   11   34 1  
    38   13   35 1  
    39   15   36 1  
    40   16   37 1  
    41   18   38 1  
    42   19   39 1  
    43   20   40 1  
    44   21   41 1  
    45   21   42 1  
    46   23   43 1  
    47   23   44 1  
    48   23   45 1  
    49   24   46 1  
@<TRIPOS>SUBSTRUCTURE
     1 JJ3         1

