### 
### Created by X-TOOL on Mon Sep 10 21:12:56 2018
### 

@<TRIPOS>MOLECULE
2qe5_ligand
   32    33     1     0     0
SMALL
GAST_HUCK


@<TRIPOS>ATOM
      1 C7          3.2820   73.7520  143.0960 C.2       1 617         0.0547
      2 C1          2.2760   70.0090  142.8700 C.ar      1 617        -0.0734
      3 C8          0.3760   73.5760  146.2990 C.2       1 617         0.2359
      4 O2          3.1090   74.7360  143.8940 O.co2     1 617        -0.5656
      5 O1          4.0090   73.7910  142.0630 O.co2     1 617        -0.5656
      6 C3          1.1850   70.9230  144.8390 C.ar      1 617        -0.0372
      7 N1          1.4540   73.3190  145.4130 N.am      1 617        -0.2284
      8 C2          1.4380   69.8410  143.9810 C.ar      1 617        -0.0728
      9 O3         -0.5980   72.8700  146.5920 O.2       1 617        -0.3811
     10 C4          1.7260   72.2170  144.5830 C.ar      1 617         0.0814
     11 C5          2.6060   72.4050  143.4460 C.ar      1 617         0.0304
     12 C6          2.8350   71.2790  142.5830 C.ar      1 617        -0.0611
     13 C9          0.5620   74.9580  146.9320 C.3       1 617         0.1652
     14 O4          1.7550   75.6410  146.5180 O.3       1 617        -0.2967
     15 C10         2.9980   75.4010  147.1320 C.ar      1 617         0.0947
     16 C11         3.3880   74.2600  147.9460 C.ar      1 617        -0.0322
     17 C12         4.6950   74.1670  148.4900 C.ar      1 617        -0.0567
     18 C13         5.6220   75.2010  148.2420 C.ar      1 617         0.0285
     19 C14         5.2530   76.3320  147.4500 C.ar      1 617        -0.0567
     20 C15         3.9580   76.4340  146.8990 C.ar      1 617        -0.0322
     21 CL1         7.1990   75.0940  148.8920 Cl        1 617        -0.0810
     22 H1          2.4973   69.1641  142.2279 H         1 617         0.0496
     23 H2          0.5649   70.7713  145.7151 H         1 617         0.0511
     24 H3          2.1383   74.0471  145.3717 H         1 617         0.2276
     25 H4          0.9854   68.8758  144.1776 H         1 617         0.0598
     26 H5          3.4464   71.4034  141.6965 H         1 617         0.0611
     27 H6          0.5970   74.8348  148.0245 H         1 617         0.0865
     28 H7         -0.3033   75.5806  146.6607 H         1 617         0.0865
     29 H8          2.6706   73.4706  148.1394 H         1 617         0.0543
     30 H9          4.9784   73.3100  149.0902 H         1 617         0.0595
     31 H10         5.9757   77.1198  147.2707 H         1 617         0.0595
     32 H11         3.6911   77.2962  146.2987 H         1 617         0.0543
@<TRIPOS>BOND
     1    1    4 ar 
     2    1    5 ar 
     3   11    1 1  
     4    8    2 ar 
     5    2   12 ar 
     6    7    3 am 
     7    3    9 2  
     8    3   13 1  
     9    6    8 ar 
    10   10    6 ar 
    11   10    7 1  
    12   10   11 ar 
    13   11   12 ar 
    14   13   14 1  
    15   14   15 1  
    16   15   16 ar 
    17   15   20 ar 
    18   16   17 ar 
    19   17   18 ar 
    20   18   19 ar 
    21   18   21 1  
    22   19   20 ar 
    23    2   22 1  
    24    6   23 1  
    25    7   24 1  
    26    8   25 1  
    27   12   26 1  
    28   13   27 1  
    29   13   28 1  
    30   16   29 1  
    31   17   30 1  
    32   19   31 1  
    33   20   32 1  
@<TRIPOS>SUBSTRUCTURE
     1 617         1

