### 
### Created by X-TOOL on Mon Sep 10 21:12:59 2018
### 

@<TRIPOS>MOLECULE
2qf6_ligand
   29    31     1     0     0
SMALL
GAST_HUCK


@<TRIPOS>ATOM
      1 C1         18.6200   36.8770    9.1510 C.ar      1 A56        -0.0584
      2 C2         18.3500   38.1660    8.6320 C.ar      1 A56        -0.0504
      3 C3         18.2110   38.3420    7.2170 C.ar      1 A56        -0.0113
      4 C4         18.3410   37.2110    6.3240 C.ar      1 A56        -0.0088
      5 C5         18.6130   35.9200    6.8580 C.ar      1 A56        -0.0500
      6 C6         18.7510   35.7610    8.2650 C.ar      1 A56        -0.0583
      7 C7         17.9420   39.6250    6.6630 C.ar      1 A56        -0.0403
      8 C8         17.8060   39.7810    5.2610 C.ar      1 A56         0.0286
      9 C9         17.9300   38.6800    4.3750 C.ar      1 A56         0.0289
     10 C10        18.1980   37.3930    4.9100 C.ar      1 A56        -0.0337
     11 BR1        17.4550   41.5280    4.6950 Br        1 A56        -0.0463
     12 C12        17.7950   38.7780    2.8950 C.ar      1 A56         0.1074
     13 N13        18.4670   39.6890    2.1290 N.ar      1 A56        -0.2422
     14 C14        18.2720   39.6990    0.8140 C.ar      1 A56         0.1817
     15 N15        17.4610   38.8880    0.1250 N.ar      1 A56        -0.2210
     16 C16        16.8320   38.0220    0.9210 C.ar      1 A56         0.1817
     17 N17        16.9480   37.9250    2.2400 N.ar      1 A56        -0.2422
     18 N18        15.9900   37.1520    0.3550 N.pl3     1 A56        -0.3007
     19 N19        18.9590   40.6160    0.1300 N.pl3     1 A56        -0.3007
     20 H1         18.7276   36.7352   10.2203 H         1 A56         0.0636
     21 H2         18.2492   39.0136    9.3002 H         1 A56         0.0636
     22 H3         18.7141   35.0656    6.1986 H         1 A56         0.0642
     23 H4         18.9588   34.7783    8.6726 H         1 A56         0.0630
     24 H5         17.8409   40.4851    7.3150 H         1 A56         0.0668
     25 H6         18.2951   36.5426    4.2448 H         1 A56         0.0707
     26 H7         15.8456   37.1640   -0.6648 H         1 A56         0.1860
     27 H8         15.4855   36.4695    0.9386 H         1 A56         0.1860
     28 H9         19.5938   41.2589    0.6247 H         1 A56         0.1860
     29 H10        18.8545   40.6809   -0.8926 H         1 A56         0.1860
@<TRIPOS>BOND
     1    1    2 ar 
     2    1    6 ar 
     3    2    3 ar 
     4    3    4 ar 
     5    3    7 ar 
     6    4    5 ar 
     7    4   10 ar 
     8    5    6 ar 
     9    7    8 ar 
    10    8    9 ar 
    11    8   11 1  
    12    9   10 ar 
    13    9   12 1  
    14   12   13 ar 
    15   12   17 ar 
    16   13   14 ar 
    17   14   15 ar 
    18   14   19 1  
    19   15   16 ar 
    20   16   17 ar 
    21   16   18 1  
    22    1   20 1  
    23    2   21 1  
    24    5   22 1  
    25    6   23 1  
    26    7   24 1  
    27   10   25 1  
    28   18   26 1  
    29   18   27 1  
    30   19   28 1  
    31   19   29 1  
@<TRIPOS>SUBSTRUCTURE
     1 A56         1

