### 
### Created by X-TOOL on Fri Sep 26 17:34:42 2014
### 

@<TRIPOS>MOLECULE
2qfo_ligand
   18    18     1     0     0
SMALL
GAST_HUCK


@<TRIPOS>ATOM
      1 C1          3.7970   34.4890   51.0460 C.ar      1 A13         0.0610
      2 C2          2.3320   34.1810   50.7500 C.ar      1 A13         0.0093
      3 C3          2.1180   33.4950   49.4390 C.ar      1 A13         0.1171
      4 N4          3.1850   33.2100   48.6380 N.ar      1 A13        -0.2384
      5 C5          4.4230   33.5490   49.0330 C.ar      1 A13         0.2073
      6 N6          4.7820   34.1590   50.1800 N.ar      1 A13        -0.2219
      7 N7          5.3960   33.2370   48.1900 N.pl3     1 A13        -0.2995
      8 C8          4.1920   35.1710   52.3280 C.3       1 A13        -0.0051
      9 C9          0.7200   33.1180   48.9980 C.3       1 A13         0.4008
     10 F10         0.6900   31.7980   48.9320 F         1 A13        -0.2065
     11 F11         0.5120   33.6560   47.8110 F         1 A13        -0.2065
     12 F12        -0.1440   33.5330   49.9030 F         1 A13        -0.2065
     13 H1          1.5236   34.4354   51.4259 H         1 A13         0.0879
     14 H2          5.1754   32.7696   47.2991 H         1 A13         0.1830
     15 H3          6.3732   33.4618   48.4254 H         1 A13         0.1830
     16 H4          5.2838   35.3026   52.3520 H         1 A13         0.0451
     17 H5          3.8782   34.5544   53.1832 H         1 A13         0.0451
     18 H6          3.7028   36.1545   52.3859 H         1 A13         0.0451
@<TRIPOS>BOND
     1    1    2 ar 
     2    1    6 ar 
     3    1    8 1  
     4    2    3 ar 
     5    3    4 ar 
     6    3    9 1  
     7    4    5 ar 
     8    5    6 ar 
     9    5    7 1  
    10    9   10 1  
    11    9   11 1  
    12    9   12 1  
    13    2   13 1  
    14    7   14 1  
    15    7   15 1  
    16    8   16 1  
    17    8   17 1  
    18    8   18 1  
@<TRIPOS>SUBSTRUCTURE
     1 A13         1

