### 
### Created by X-TOOL on Mon Sep 10 21:12:59 2018
### 

@<TRIPOS>MOLECULE
2qg0_ligand
   46    48     1     0     0
SMALL
GAST_HUCK


@<TRIPOS>ATOM
      1 C1         18.8160   26.6520   15.4480 C.ar      1 A94         0.0192
      2 N2         17.5640   26.9740   15.8660 N.ar      1 A94        -0.2658
      3 C3         17.2520   26.6100   17.1260 C.ar      1 A94         0.1697
      4 N4         18.0640   25.9690   17.9700 N.ar      1 A94        -0.2639
      5 C5         19.3150   25.6510   17.5380 C.ar      1 A94         0.0406
      6 C6         19.7440   25.9880   16.2410 C.ar      1 A94        -0.0213
      7 C7         19.1590   27.0040   14.1830 C.3       1 A94        -0.0147
      8 N8         16.0300   26.9110   17.5770 N.pl3     1 A94        -0.3063
      9 C9         20.2210   24.9170   18.5060 C.3       1 A94         0.0762
     10 N10        21.1560   23.9730   17.8570 N.am      1 A94        -0.2325
     11 S11        20.6880   22.3130   17.5740 S.o2      1 A94         0.0677
     12 O12        19.9920   21.8740   18.7510 O.2       1 A94        -0.1503
     13 O13        21.9350   21.7020   17.2350 O.2       1 A94        -0.1503
     14 C14        20.5300   25.7330    8.7650 C.3       1 A94         0.0787
     15 C15        20.7050   24.8060    9.9410 C.3       1 A94         0.0010
     16 C16        19.3820   24.4720   10.4760 C.2       1 A94         0.0399
     17 C17        18.4280   25.0010    9.4880 C.2       1 A94         0.2313
     18 O18        19.0930   25.7050    8.5470 O.3       1 A94        -0.2833
     19 O19        17.2440   24.8260    9.5160 O.2       1 A94        -0.3804
     20 C20        18.9670   23.8430   11.5660 C.2       1 A94         0.0359
     21 N21        19.8210   23.2670   12.6190 N.pl3     1 A94        -0.2773
     22 C22        19.3000   22.8470   13.8220 C.ar      1 A94         0.0635
     23 C23        17.8930   22.4780   13.9610 C.ar      1 A94        -0.0386
     24 C24        17.3740   22.0490   15.2340 C.ar      1 A94        -0.0700
     25 C25        18.2550   21.9910   16.3720 C.ar      1 A94        -0.0472
     26 C26        19.6390   22.3560   16.2270 C.ar      1 A94         0.0986
     27 C27        20.1510   22.7780   14.9650 C.ar      1 A94        -0.0122
     28 H1         20.7376   25.7446   15.8824 H         1 A94         0.0538
     29 H2         20.1918   26.6839   13.9806 H         1 A94         0.0440
     30 H3         19.0855   28.0961   14.0736 H         1 A94         0.0440
     31 H4         18.4778   26.5173   13.4695 H         1 A94         0.0440
     32 H5         15.3632   27.4053   16.9671 H         1 A94         0.1824
     33 H6         15.7553   26.6486   18.5344 H         1 A94         0.1824
     34 H7         19.5910   24.3517   19.2085 H         1 A94         0.0689
     35 H8         20.8109   25.6619   19.0602 H         1 A94         0.0689
     36 H9         22.0635   24.2869   17.5778 H         1 A94         0.1706
     37 H10        21.0722   25.3615    7.8830 H         1 A94         0.0624
     38 H11        20.8748   26.7493    9.0063 H         1 A94         0.0624
     39 H12        21.3040   25.3029   10.7183 H         1 A94         0.0374
     40 H13        21.2155   23.8875    9.6158 H         1 A94         0.0374
     41 H14        17.8905   23.7422   11.6959 H         1 A94         0.0982
     42 H15        20.8331   23.1762   12.4510 H         1 A94         0.2142
     43 H16        17.2357   22.5275   13.1004 H         1 A94         0.0533
     44 H17        16.3307   21.7725   15.3347 H         1 A94         0.0587
     45 H18        17.8758   21.6728   17.3364 H         1 A94         0.0535
     46 H19        21.1966   23.0489   14.8731 H         1 A94         0.0553
@<TRIPOS>BOND
     1    1    2 ar 
     2    6    1 ar 
     3    1    7 1  
     4    3    2 ar 
     5    4    3 ar 
     6    3    8 1  
     7    5    4 ar 
     8    5    6 ar 
     9    9    5 1  
    10   10    9 1  
    11   11   10 am 
    12   11   12 2  
    13   11   13 2  
    14   26   11 1  
    15   15   14 1  
    16   18   14 1  
    17   16   15 1  
    18   16   17 1  
    19   20   16 2  
    20   17   18 1  
    21   17   19 2  
    22   21   20 1  
    23   22   21 1  
    24   23   22 ar 
    25   22   27 ar 
    26   24   23 ar 
    27   25   24 ar 
    28   25   26 ar 
    29   26   27 ar 
    30    6   28 1  
    31    7   29 1  
    32    7   30 1  
    33    7   31 1  
    34    8   32 1  
    35    8   33 1  
    36    9   34 1  
    37    9   35 1  
    38   10   36 1  
    39   14   37 1  
    40   14   38 1  
    41   15   39 1  
    42   15   40 1  
    43   20   41 1  
    44   21   42 1  
    45   23   43 1  
    46   24   44 1  
    47   25   45 1  
    48   27   46 1  
@<TRIPOS>SUBSTRUCTURE
     1 A94         1

