### 
### Created by X-TOOL on Mon Sep 10 21:12:58 2018
### 

@<TRIPOS>MOLECULE
2qh6_ligand
   55    58     1     0     0
SMALL
GAST_HUCK


@<TRIPOS>ATOM
      1 CAI       -16.0730    3.9730   33.6620 C.ar      1 ODE        -0.0660
      2 CAN       -17.2540    3.8790   34.4220 C.ar      1 ODE        -0.0346
      3 CAV       -17.1130    3.6530   35.7880 C.ar      1 ODE         0.0867
      4 OAZ       -18.1940    3.4970   36.5770 O.3       1 ODE        -0.3336
      5 CAO       -15.8600    3.5390   36.3760 C.ar      1 ODE        -0.0346
      6 CAL       -14.6990    3.6560   35.6230 C.ar      1 ODE        -0.0660
      7 CAF       -14.8030    3.8830   34.2630 C.ar      1 ODE        -0.0367
      8 CAA       -13.6380    3.9870   33.4980 C.2       1 ODE        -0.0146
      9 CAC       -13.4640    4.5750   32.0950 C.3       1 ODE         0.1111
     10 OBC       -12.5590    3.4780   31.6400 O.3       1 ODE        -0.3479
     11 CAD       -12.5480    5.7600   31.7890 C.3       1 ODE         0.1186
     12 CAR       -12.6430    6.6620   32.9420 C.2       1 ODE         0.2440
     13 OBD       -12.2660    6.2250   34.0400 O.2       1 ODE        -0.3696
     14 OBA       -13.1080    7.9340   32.7610 O.3       1 ODE        -0.2766
     15 CAJ       -12.7630    8.4750   31.5050 C.3       1 ODE         0.0740
     16 CAU       -13.1080    9.8940   32.0030 C.3       1 ODE        -0.0371
     17 CAK       -11.1350    5.0980   31.7920 C.3       1 ODE         0.1186
     18 CAQ        -9.9520    6.0270   32.2700 C.2       1 ODE         0.2440
     19 OAY       -10.1730    7.1660   32.6550 O.2       1 ODE        -0.3696
     20 OBB        -8.6030    5.7210   32.2390 O.3       1 ODE        -0.2766
     21 CAS        -8.3160    4.3640   32.6660 C.3       1 ODE         0.0740
     22 CAG        -8.9470    3.3810   31.6630 C.3       1 ODE        -0.0371
     23 CAE       -11.4580    3.7470   32.5370 C.3       1 ODE         0.1111
     24 CAB       -12.3680    3.4740   33.7830 C.2       1 ODE        -0.0146
     25 CAH       -11.9400    2.6520   34.8160 C.ar      1 ODE        -0.0367
     26 CAM       -10.9410    2.9990   35.7150 C.ar      1 ODE        -0.0660
     27 CAW       -10.4770    2.0760   36.6680 C.ar      1 ODE        -0.0346
     28 CAT       -11.0180    0.7990   36.7040 C.ar      1 ODE         0.0867
     29 OBE       -10.5710   -0.0600   37.6360 O.3       1 ODE        -0.3336
     30 CAX       -12.0050    0.4200   35.7810 C.ar      1 ODE        -0.0346
     31 CAP       -12.4450    1.3430   34.8350 C.ar      1 ODE        -0.0660
     32 H1        -16.1429    4.1179   32.5900 H         1 ODE         0.0571
     33 H2        -18.2311    3.9783   33.9632 H         1 ODE         0.0542
     34 H3        -18.6977    2.7491   36.2779 H         1 ODE         0.2483
     35 H4        -15.7869    3.3554   37.4418 H         1 ODE         0.0542
     36 H5        -13.7264    3.5707   36.0941 H         1 ODE         0.0571
     37 H6        -14.4286    4.6819   31.5772 H         1 ODE         0.0764
     38 H7        -12.7853    6.2666   30.8419 H         1 ODE         0.0632
     39 H8        -13.3984    8.1251   30.6781 H         1 ODE         0.0610
     40 H9        -11.7048    8.3409   31.2363 H         1 ODE         0.0610
     41 H10       -12.9338   10.6189   31.1942 H         1 ODE         0.0255
     42 H11       -12.4712   10.1454   32.8640 H         1 ODE         0.0255
     43 H12       -14.1649    9.9295   32.3058 H         1 ODE         0.0255
     44 H13       -10.8742    4.8397   30.7551 H         1 ODE         0.0632
     45 H14        -8.7408    4.1941   33.6663 H         1 ODE         0.0610
     46 H15        -7.2274    4.2098   32.6989 H         1 ODE         0.0610
     47 H16        -8.7347    2.3488   31.9783 H         1 ODE         0.0255
     48 H17        -8.5218    3.5537   30.6633 H         1 ODE         0.0255
     49 H18       -10.0352    3.5381   31.6308 H         1 ODE         0.0255
     50 H19       -10.5794    3.0852   32.5427 H         1 ODE         0.0764
     51 H20       -10.5133    3.9945   35.6817 H         1 ODE         0.0571
     52 H21        -9.7016    2.3600   37.3702 H         1 ODE         0.0542
     53 H22       -11.0251   -0.8894   37.5444 H         1 ODE         0.2483
     54 H23       -12.4207   -0.5809   35.8040 H         1 ODE         0.0542
     55 H24       -13.1877    1.0459   34.1035 H         1 ODE         0.0571
@<TRIPOS>BOND
     1    1    2 ar 
     2    1    7 ar 
     3    2    3 ar 
     4    3    4 1  
     5    3    5 ar 
     6    5    6 ar 
     7    6    7 ar 
     8    7    8 1  
     9    8    9 1  
    10    8   24 2  
    11    9   10 1  
    12    9   11 1  
    13   10   23 1  
    14   11   12 1  
    15   11   17 1  
    16   12   13 2  
    17   12   14 1  
    18   14   15 1  
    19   15   16 1  
    20   17   18 1  
    21   17   23 1  
    22   18   19 2  
    23   18   20 1  
    24   20   21 1  
    25   21   22 1  
    26   23   24 1  
    27   24   25 1  
    28   25   26 ar 
    29   25   31 ar 
    30   26   27 ar 
    31   27   28 ar 
    32   28   29 1  
    33   28   30 ar 
    34   30   31 ar 
    35    1   32 1  
    36    2   33 1  
    37    4   34 1  
    38    5   35 1  
    39    6   36 1  
    40    9   37 1  
    41   11   38 1  
    42   15   39 1  
    43   15   40 1  
    44   16   41 1  
    45   16   42 1  
    46   16   43 1  
    47   17   44 1  
    48   21   45 1  
    49   21   46 1  
    50   22   47 1  
    51   22   48 1  
    52   22   49 1  
    53   23   50 1  
    54   26   51 1  
    55   27   52 1  
    56   29   53 1  
    57   30   54 1  
    58   31   55 1  
@<TRIPOS>SUBSTRUCTURE
     1 ODE         1

