### 
### Created by X-TOOL on Mon Sep 10 21:12:57 2018
### 

@<TRIPOS>MOLECULE
2qhc_ligand
   94    97     1     0     0
SMALL
GAST_HUCK


@<TRIPOS>ATOM
      1 C1        -14.6170   58.9170   10.9060 C.3       1 AB1         0.0330
      2 C2        -14.9180   56.6930    9.6780 C.3       1 AB1         0.0388
      3 N1        -13.4650   56.7080    9.4710 N.am      1 AB1        -0.2377
      4 C3        -12.6670   57.6800    9.8870 C.2       1 AB1         0.2622
      5 N2        -13.2170   58.6980   10.5600 N.am      1 AB1        -0.2728
      6 C4        -12.9540   51.0240    3.7080 C.ar      1 AB1        -0.0408
      7 C5        -12.5850   50.0330    2.7930 C.ar      1 AB1        -0.0603
      8 C6        -13.5170   49.0920    2.3400 C.ar      1 AB1        -0.0686
      9 C7        -14.8260   49.1410    2.8020 C.ar      1 AB1        -0.0687
     10 C8        -15.1930   50.1230    3.7250 C.ar      1 AB1        -0.0686
     11 C9        -14.2710   51.0660    4.1780 C.ar      1 AB1        -0.0603
     12 O1        -11.4670   57.6290    9.6740 O.2       1 AB1        -0.4005
     13 C10       -12.9170   55.5820    8.6970 C.3       1 AB1         0.1362
     14 C11       -13.3970   55.7490    7.2770 C.2       1 AB1         0.2023
     15 N3        -12.5230   56.3260    6.4370 N.am      1 AB1        -0.2800
     16 C12       -12.8350   56.5810    5.0280 C.3       1 AB1         0.0540
     17 C13       -13.3000   54.2100    9.2810 C.3       1 AB1        -0.0063
     18 C14       -12.8490   53.0460    8.4060 C.3       1 AB1        -0.0584
     19 C15       -12.7500   53.9950   10.6880 C.3       1 AB1        -0.0584
     20 O2        -14.5330   55.3970    6.9640 O.2       1 AB1        -0.3945
     21 C16       -16.0270   59.5560    6.2880 C.ar      1 AB1        -0.0686
     22 C17       -15.5640   60.3360    7.3470 C.ar      1 AB1        -0.0687
     23 C18       -14.1970   60.3960    7.6000 C.ar      1 AB1        -0.0686
     24 C19       -13.3150   59.6720    6.7890 C.ar      1 AB1        -0.0603
     25 C20       -13.7810   58.8810    5.7300 C.ar      1 AB1        -0.0408
     26 C21       -15.1520   58.8360    5.4780 C.ar      1 AB1        -0.0603
     27 C22       -12.7890   58.1080    4.8660 C.3       1 AB1         0.0040
     28 C23       -11.7220   55.9580    4.1660 C.3       1 AB1         0.0004
     29 C24       -11.3400   54.4980    4.4610 C.3       1 AB1         0.0821
     30 C25       -12.3670   53.4660    3.9830 C.3       1 AB1         0.0774
     31 N4        -12.5260   53.5790    2.5330 N.am      1 AB1        -0.2772
     32 C26       -13.6880   54.0170    2.0320 C.2       1 AB1         0.2068
     33 C27       -13.8340   54.1130    0.5290 C.3       1 AB1         0.1556
     34 O3        -12.6990   53.5740   -0.1450 O.3       1 AB1        -0.3054
     35 C28       -12.8110   53.1830   -1.4520 C.ar      1 AB1         0.0966
     36 O4        -10.0960   54.2220    3.8470 O.3       1 AB1        -0.3893
     37 C29       -11.9130   52.0240    4.1880 C.3       1 AB1         0.0064
     38 O5        -14.6300   54.3510    2.7390 O.2       1 AB1        -0.3941
     39 C30       -12.9250   54.1510   -2.4480 C.ar      1 AB1        -0.0230
     40 C31       -13.0420   53.7690   -3.7890 C.ar      1 AB1        -0.0759
     41 C32       -13.0500   52.4230   -4.1400 C.ar      1 AB1        -0.0862
     42 C33       -12.9320   51.4590   -3.1360 C.ar      1 AB1        -0.0759
     43 C34       -12.8120   51.8340   -1.7970 C.ar      1 AB1        -0.0230
     44 C35       -12.6960   50.7570   -0.7500 C.3       1 AB1        -0.0348
     45 C36       -12.9210   55.6170   -2.0870 C.3       1 AB1        -0.0348
     46 C37       -15.2250   57.5110   10.9490 C.3       1 AB1        -0.0125
     47 H1        -15.1147   59.5328   10.1424 H         1 AB1         0.0517
     48 H2        -14.7032   59.4082   11.8865 H         1 AB1         0.0517
     49 H3        -15.2664   55.6576    9.8069 H         1 AB1         0.0522
     50 H4        -15.4235   57.1448    8.8118 H         1 AB1         0.0522
     51 H5        -12.5808   59.4055   10.8678 H         1 AB1         0.1845
     52 H6        -11.5644   49.9930    2.4300 H         1 AB1         0.0557
     53 H7        -13.2183   48.3280    1.6314 H         1 AB1         0.0599
     54 H8        -15.5571   48.4227    2.4490 H         1 AB1         0.0559
     55 H9        -16.2114   50.1526    4.0953 H         1 AB1         0.0599
     56 H10       -14.5726   51.8263    4.8894 H         1 AB1         0.0557
     57 H11       -11.8193   55.6517    8.7083 H         1 AB1         0.0802
     58 H12       -11.6245   56.5920    6.7862 H         1 AB1         0.1856
     59 H13       -13.8196   56.1758    4.7517 H         1 AB1         0.0579
     60 H14       -14.3980   54.1812    9.3399 H         1 AB1         0.0342
     61 H15       -13.1502   52.0972    8.8741 H         1 AB1         0.0234
     62 H16       -11.7545   53.0706    8.2986 H         1 AB1         0.0234
     63 H17       -13.3168   53.1302    7.4140 H         1 AB1         0.0234
     64 H18       -13.0652   54.8262   11.3359 H         1 AB1         0.0234
     65 H19       -11.6514   53.9559   10.6502 H         1 AB1         0.0234
     66 H20       -13.1370   53.0480   11.0922 H         1 AB1         0.0234
     67 H21       -17.0918   59.5089    6.0907 H         1 AB1         0.0599
     68 H22       -16.2609   60.8893    7.9661 H         1 AB1         0.0559
     69 H23       -13.8183   60.9981    8.4180 H         1 AB1         0.0599
     70 H24       -12.2500   59.7242    6.9841 H         1 AB1         0.0557
     71 H25       -15.5350   58.2432    4.6552 H         1 AB1         0.0557
     72 H26       -12.9978   58.3453    3.8124 H         1 AB1         0.0448
     73 H27       -11.7752   58.4477    5.1245 H         1 AB1         0.0448
     74 H28       -10.8179   56.5702    4.2995 H         1 AB1         0.0315
     75 H29       -12.0480   56.0094    3.1167 H         1 AB1         0.0315
     76 H30       -11.2341   54.3896    5.5505 H         1 AB1         0.0619
     77 H31       -13.3220   53.6409    4.5001 H         1 AB1         0.0604
     78 H32       -11.7741   53.3315    1.9219 H         1 AB1         0.1857
     79 H33       -13.9466   55.1706    0.2483 H         1 AB1         0.0853
     80 H34       -14.7302   53.5544    0.2212 H         1 AB1         0.0853
     81 H35        -9.8116   53.3484    4.0889 H         1 AB1         0.2099
     82 H36       -10.9805   51.8624    3.6273 H         1 AB1         0.0449
     83 H37       -11.7297   51.8586    5.2599 H         1 AB1         0.0449
     84 H38       -13.1270   54.5269   -4.5594 H         1 AB1         0.0471
     85 H39       -13.1465   52.1263   -5.1781 H         1 AB1         0.0489
     86 H40       -12.9336   50.4076   -3.3999 H         1 AB1         0.0471
     87 H41       -12.6099   51.2199    0.2441 H         1 AB1         0.0366
     88 H42       -11.8026   50.1469   -0.9490 H         1 AB1         0.0366
     89 H43       -13.5908   50.1179   -0.7806 H         1 AB1         0.0366
     90 H44       -12.8218   55.7259   -0.9969 H         1 AB1         0.0366
     91 H45       -13.8632   56.0786   -2.4173 H         1 AB1         0.0366
     92 H46       -12.0750   56.1146   -2.5836 H         1 AB1         0.0366
     93 H47       -16.3161   57.6020   11.0543 H         1 AB1         0.0304
     94 H48       -14.8159   56.9767   11.8191 H         1 AB1         0.0304
@<TRIPOS>BOND
     1    5    1 1  
     2   46    1 1  
     3    3    2 1  
     4    2   46 1  
     5    3    4 am 
     6   13    3 1  
     7    4    5 am 
     8    4   12 2  
     9    6    7 ar 
    10    6   11 ar 
    11   37    6 1  
    12    7    8 ar 
    13    8    9 ar 
    14   10    9 ar 
    15   11   10 ar 
    16   14   13 1  
    17   13   17 1  
    18   15   14 am 
    19   14   20 2  
    20   16   15 1  
    21   16   27 1  
    22   28   16 1  
    23   17   18 1  
    24   17   19 1  
    25   21   22 ar 
    26   26   21 ar 
    27   23   22 ar 
    28   24   23 ar 
    29   25   24 ar 
    30   25   26 ar 
    31   27   25 1  
    32   29   28 1  
    33   30   29 1  
    34   29   36 1  
    35   30   31 1  
    36   30   37 1  
    37   31   32 am 
    38   32   33 1  
    39   32   38 2  
    40   33   34 1  
    41   34   35 1  
    42   35   39 ar 
    43   35   43 ar 
    44   39   40 ar 
    45   39   45 1  
    46   40   41 ar 
    47   41   42 ar 
    48   42   43 ar 
    49   43   44 1  
    50    1   47 1  
    51    1   48 1  
    52    2   49 1  
    53    2   50 1  
    54    5   51 1  
    55    7   52 1  
    56    8   53 1  
    57    9   54 1  
    58   10   55 1  
    59   11   56 1  
    60   13   57 1  
    61   15   58 1  
    62   16   59 1  
    63   17   60 1  
    64   18   61 1  
    65   18   62 1  
    66   18   63 1  
    67   19   64 1  
    68   19   65 1  
    69   19   66 1  
    70   21   67 1  
    71   22   68 1  
    72   23   69 1  
    73   24   70 1  
    74   26   71 1  
    75   27   72 1  
    76   27   73 1  
    77   28   74 1  
    78   28   75 1  
    79   29   76 1  
    80   30   77 1  
    81   31   78 1  
    82   33   79 1  
    83   33   80 1  
    84   36   81 1  
    85   37   82 1  
    86   37   83 1  
    87   40   84 1  
    88   41   85 1  
    89   42   86 1  
    90   44   87 1  
    91   44   88 1  
    92   44   89 1  
    93   45   90 1  
    94   45   91 1  
    95   45   92 1  
    96   46   93 1  
    97   46   94 1  
@<TRIPOS>SUBSTRUCTURE
     1 AB1         1

