### 
### Created by X-TOOL on Fri Sep 26 17:34:38 2014
### 

@<TRIPOS>MOLECULE
2qhd_ligand
   37    36     1     0     0
SMALL
GAST_HUCK


@<TRIPOS>ATOM
      1 O1        -24.8230   30.3350  -24.1430 O.co2     1 DAO        -0.5690
      2 O2        -25.2060   28.1680  -23.6500 O.co2     1 DAO        -0.5690
      3 C1        -25.5260   29.2010  -24.1740 C.2       1 DAO         0.0348
      4 C2        -26.8610   28.9430  -24.8610 C.3       1 DAO         0.0002
      5 C3        -27.8320   30.0450  -24.5610 C.3       1 DAO        -0.0414
      6 C4        -29.1830   29.3580  -24.2360 C.3       1 DAO        -0.0516
      7 C5        -29.6580   29.6630  -22.8560 C.3       1 DAO        -0.0530
      8 C6        -30.0130   28.3540  -22.2240 C.3       1 DAO        -0.0531
      9 C7        -31.0130   28.4010  -21.0010 C.3       1 DAO        -0.0531
     10 C8        -30.2980   28.6960  -19.7310 C.3       1 DAO        -0.0531
     11 C9        -30.0790   27.3930  -18.9510 C.3       1 DAO        -0.0531
     12 C10       -28.5670   27.1730  -18.8950 C.3       1 DAO        -0.0533
     13 C11       -28.4200   25.9100  -18.1480 C.3       1 DAO        -0.0559
     14 C12       -27.6780   24.9430  -19.0300 C.3       1 DAO        -0.0653
     15 H1        -27.2743   27.9894  -24.5008 H         1 DAO         0.0430
     16 H2        -26.7030   28.8868  -25.9481 H         1 DAO         0.0430
     17 H3        -27.9408   30.7050  -25.4342 H         1 DAO         0.0283
     18 H4        -27.4863   30.6328  -23.6979 H         1 DAO         0.0283
     19 H5        -29.0585   28.2695  -24.3342 H         1 DAO         0.0266
     20 H6        -29.9388   29.7070  -24.9550 H         1 DAO         0.0266
     21 H7        -30.5416   30.3170  -22.8951 H         1 DAO         0.0265
     22 H8        -28.8610   30.1575  -22.2814 H         1 DAO         0.0265
     23 H9        -29.0795   27.8900  -21.8729 H         1 DAO         0.0265
     24 H10       -30.4672   27.7216  -23.0010 H         1 DAO         0.0265
     25 H11       -31.5158   27.4268  -20.9113 H         1 DAO         0.0265
     26 H12       -31.7628   29.1855  -21.1808 H         1 DAO         0.0265
     27 H13       -30.8992   29.3894  -19.1246 H         1 DAO         0.0265
     28 H14       -29.3246   29.1558  -19.9568 H         1 DAO         0.0265
     29 H15       -30.5668   26.5535  -19.4679 H         1 DAO         0.0265
     30 H16       -30.4880   27.4849  -17.9340 H         1 DAO         0.0265
     31 H17       -28.0704   28.0002  -18.3667 H         1 DAO         0.0265
     32 H18       -28.1472   27.0800  -19.9075 H         1 DAO         0.0265
     33 H19       -29.4115   25.5046  -17.8980 H         1 DAO         0.0263
     34 H20       -27.8517   26.0855  -17.2227 H         1 DAO         0.0263
     35 H21       -27.5511   23.9871  -18.5007 H         1 DAO         0.0230
     36 H22       -26.6902   25.3579  -19.2794 H         1 DAO         0.0230
     37 H23       -28.2501   24.7769  -19.9547 H         1 DAO         0.0230
@<TRIPOS>BOND
     1    1    3 ar 
     2    3    2 ar 
     3    3    4 1  
     4    4    5 1  
     5    5    6 1  
     6    6    7 1  
     7    7    8 1  
     8    8    9 1  
     9    9   10 1  
    10   10   11 1  
    11   11   12 1  
    12   12   13 1  
    13   13   14 1  
    14    4   15 1  
    15    4   16 1  
    16    5   17 1  
    17    5   18 1  
    18    6   19 1  
    19    6   20 1  
    20    7   21 1  
    21    7   22 1  
    22    8   23 1  
    23    8   24 1  
    24    9   25 1  
    25    9   26 1  
    26   10   27 1  
    27   10   28 1  
    28   11   29 1  
    29   11   30 1  
    30   12   31 1  
    31   12   32 1  
    32   13   33 1  
    33   13   34 1  
    34   14   35 1  
    35   14   36 1  
    36   14   37 1  
@<TRIPOS>SUBSTRUCTURE
     1 DAO         1

