### 
### Created by X-TOOL on Mon Sep 10 21:12:57 2018
### 

@<TRIPOS>MOLECULE
2qhm_ligand
   41    44     1     0     0
SMALL
GAST_HUCK


@<TRIPOS>ATOM
      1 C12        13.8370   -1.3160   10.8560 C.2       1 7CS         0.0705
      2 O4         12.2160   -2.3190   12.1620 O.2       1 7CS        -0.3756
      3 C8         16.4680   -5.4170   16.3680 C.3       1 7CS        -0.0426
      4 C9         13.3400   -2.2880   11.7160 C.2       1 7CS         0.2380
      5 C11        13.1870   -0.2350   10.3460 C.2       1 7CS         0.0565
      6 O3         14.2450   -3.2380   12.0760 O.3       1 7CS        -0.2791
      7 C7         16.1430   -2.9440   14.3900 C.3       1 7CS        -0.0045
      8 C6         16.8130   -4.0020   13.5420 C.3       1 7CS        -0.0045
      9 N1         15.6680   -4.9830   15.1890 N.4       1 7CS         0.2375
     10 C5         16.1490   -5.3540   13.7870 C.3       1 7CS        -0.0180
     11 C4         14.9060   -5.4910   12.9380 C.3       1 7CS         0.0211
     12 C1         15.0470   -3.5920   15.2380 C.3       1 7CS        -0.0180
     13 C2         13.7200   -3.6970   14.5090 C.3       1 7CS         0.0211
     14 C3         13.8970   -4.3220   13.0530 C.3       1 7CS         0.0960
     15 C13        17.6560   -0.3570    8.8730 C.ar      1 7CS        -0.0050
     16 N14        16.4400    0.4320    8.8490 N.ar      1 7CS        -0.2846
     17 C15        15.2540   -0.0220    9.5040 C.ar      1 7CS         0.1414
     18 C16        15.1770   -1.2220   10.3020 C.ar      1 7CS         0.0202
     19 C17        16.4230   -2.0040   10.3650 C.ar      1 7CS        -0.0535
     20 C18        17.6850   -1.6040    9.6250 C.ar      1 7CS        -0.0502
     21 N10        14.0100    0.5880    9.5780 N.pl3     1 7CS        -0.2550
     22 H1         16.8526   -6.4331   16.1962 H         1 7CS         0.0778
     23 H2         15.8312   -5.4128   17.2649 H         1 7CS         0.0778
     24 H3         17.3111   -4.7257   16.5137 H         1 7CS         0.0778
     25 H4         12.1311   -0.0330   10.5199 H         1 7CS         0.1099
     26 H5         15.6978   -2.1783   13.7377 H         1 7CS         0.0322
     27 H6         16.8885   -2.4756   15.0494 H         1 7CS         0.0322
     28 H7         17.8783   -4.0641   13.8090 H         1 7CS         0.0322
     29 H8         16.7163   -3.7344   12.4795 H         1 7CS         0.0322
     30 H9         14.8581   -5.5750   15.2872 H         1 7CS         0.2036
     31 H10        16.8156   -6.2260   13.7152 H         1 7CS         0.0852
     32 H11        14.3906   -6.4159   13.2360 H         1 7CS         0.0348
     33 H12        15.2190   -5.5681   11.8863 H         1 7CS         0.0348
     34 H13        14.9328   -3.1538   16.2404 H         1 7CS         0.0852
     35 H14        13.2840   -2.6915   14.4150 H         1 7CS         0.0348
     36 H15        13.0422   -4.3376   15.0922 H         1 7CS         0.0348
     37 H16        12.9160   -4.7281   12.7653 H         1 7CS         0.0651
     38 H17        18.5359   -0.0218    8.3360 H         1 7CS         0.0750
     39 H18        16.4390   -2.9054   10.9669 H         1 7CS         0.0669
     40 H19        18.5747   -2.2226    9.6547 H         1 7CS         0.0604
     41 H20        13.7435    1.4839    9.1453 H         1 7CS         0.2358
@<TRIPOS>BOND
     1    1    4 1  
     2    1    5 2  
     3   18    1 1  
     4    4    2 2  
     5    9    3 1  
     6    4    6 1  
     7    5   21 1  
     8    6   14 1  
     9    7    8 1  
    10   12    7 1  
    11   10    8 1  
    12   10    9 1  
    13   12    9 1  
    14   11   10 1  
    15   14   11 1  
    16   13   12 1  
    17   14   13 1  
    18   16   15 ar 
    19   15   20 ar 
    20   17   16 ar 
    21   17   18 ar 
    22   17   21 1  
    23   18   19 ar 
    24   19   20 ar 
    25    3   22 1  
    26    3   23 1  
    27    3   24 1  
    28    5   25 1  
    29    7   26 1  
    30    7   27 1  
    31    8   28 1  
    32    8   29 1  
    33    9   30 1  
    34   10   31 1  
    35   11   32 1  
    36   11   33 1  
    37   12   34 1  
    38   13   35 1  
    39   13   36 1  
    40   14   37 1  
    41   15   38 1  
    42   19   39 1  
    43   20   40 1  
    44   21   41 1  
@<TRIPOS>SUBSTRUCTURE
     1 7CS         1

