### 
### Created by X-TOOL on Mon Sep 10 21:12:58 2018
### 

@<TRIPOS>MOLECULE
2qhn_ligand
   30    32     1     0     0
SMALL
GAST_HUCK


@<TRIPOS>ATOM
      1 C1         20.6950   -2.3020    9.5550 C.ar      1 582        -0.0722
      2 C2         19.6500   -2.9430   10.3190 C.ar      1 582        -0.0350
      3 C3         18.3000   -2.4110   10.2590 C.ar      1 582         0.0893
      4 C4         18.0320   -1.2250    9.4580 C.ar      1 582         0.0411
      5 C5         19.0590   -0.5850    8.7630 C.ar      1 582        -0.0601
      6 C6         20.3930   -1.1200    8.7920 C.ar      1 582        -0.0732
      7 N11        17.2220   -3.0070   10.9410 N.am      1 582        -0.2190
      8 C12        15.9250   -2.5160   10.8570 C.2       1 582         0.2073
      9 C13        15.6610   -1.2770   10.1070 C.2       1 582         0.0756
     10 C14        16.6670   -0.6590    9.4540 C.2       1 582         0.1012
     11 O2         14.9620   -3.0130   11.4100 O.2       1 582        -0.4042
     12 C18        17.3070   -4.2380   11.8070 C.3       1 582         0.0558
     13 N1         16.1200    0.5590    8.8780 N.pl3     1 582        -0.2216
     14 C23        14.4610   -0.4930    9.8870 C.2       1 582         0.0239
     15 C9         13.0600   -0.7620   10.3980 C.3       1 582        -0.0256
     16 N2         14.8370    0.5970    9.1460 N.2       1 582        -0.2276
     17 C7         17.4600   -5.4500   10.8780 C.3       1 582        -0.0384
     18 H1         21.6998   -2.7086    9.5565 H         1 582         0.0595
     19 H2         19.8708   -3.8108   10.9299 H         1 582         0.0517
     20 H3         18.8504    0.3176    8.2000 H         1 582         0.0600
     21 H4         21.1802   -0.6274    8.2328 H         1 582         0.0506
     22 H5         16.3904   -4.3386   12.4067 H         1 582         0.0598
     23 H6         18.1770   -4.1664   12.4762 H         1 582         0.0598
     24 H7         16.6486    1.2687    8.3510 H         1 582         0.2495
     25 H8         12.3831    0.0307   10.0467 H         1 582         0.0383
     26 H9         13.0674   -0.7770   11.4979 H         1 582         0.0383
     27 H10        12.7124   -1.7349   10.0204 H         1 582         0.0383
     28 H11        17.5251   -6.3679   11.4806 H         1 582         0.0255
     29 H12        18.3756   -5.3393   10.2786 H         1 582         0.0255
     30 H13        16.5890   -5.5115   10.2091 H         1 582         0.0255
@<TRIPOS>BOND
     1    1    2 ar 
     2    1    6 ar 
     3    2    3 ar 
     4    3    4 ar 
     5    3    7 1  
     6    4    5 ar 
     7    4   10 1  
     8    5    6 ar 
     9    7    8 am 
    10    7   12 1  
    11    8    9 1  
    12    8   11 2  
    13    9   10 2  
    14    9   14 1  
    15   10   13 1  
    16   12   17 1  
    17   13   16 1  
    18   14   15 1  
    19   14   16 2  
    20    1   18 1  
    21    2   19 1  
    22    5   20 1  
    23    6   21 1  
    24   12   22 1  
    25   12   23 1  
    26   13   24 1  
    27   15   25 1  
    28   15   26 1  
    29   15   27 1  
    30   17   28 1  
    31   17   29 1  
    32   17   30 1  
@<TRIPOS>SUBSTRUCTURE
     1 582         1

