### 
### Created by X-TOOL on Mon Sep 10 21:12:57 2018
### 

@<TRIPOS>MOLECULE
2qhy_ligand
   67    69     1     0     0
SMALL
GAST_HUCK


@<TRIPOS>ATOM
      1 O26        22.2540   25.1830   11.8000 O.2       1 MZ1        -0.3972
      2 C25        21.9560   25.9700   10.9070 C.2       1 MZ1         0.1751
      3 C27        21.4550   25.4120    9.5860 C.3       1 MZ1         0.0258
      4 N24        22.0820   27.2940   11.0520 N.am      1 MZ1        -0.2661
      5 C22        22.5580   27.9200   12.2820 C.3       1 MZ1         0.1280
      6 C23        23.9060   28.6100   12.0710 C.3       1 MZ1        -0.0244
      7 C21        21.4960   28.9050   12.7540 C.2       1 MZ1         0.2018
      8 O22        21.3210   29.9680   12.1470 O.2       1 MZ1        -0.3945
      9 N20        20.7850   28.5600   13.8350 N.am      1 MZ1        -0.2775
     10 C19        19.7080   29.3840   14.4030 C.3       1 MZ1         0.0789
     11 C32        18.4320   28.5360   14.3140 C.3       1 MZ1         0.0064
     12 C38        18.1280   28.1890   12.8530 C.ar      1 MZ1        -0.0408
     13 C37        17.5640   29.1340   12.0000 C.ar      1 MZ1        -0.0603
     14 C36        17.2960   28.8200   10.6690 C.ar      1 MZ1        -0.0686
     15 C35        17.6010   27.5600   10.1740 C.ar      1 MZ1        -0.0687
     16 C34        18.1720   26.6130   11.0130 C.ar      1 MZ1        -0.0686
     17 C33        18.4340   26.9260   12.3470 C.ar      1 MZ1        -0.0603
     18 C17        20.0740   29.7720   15.8450 C.3       1 MZ1         0.0970
     19 O18        20.0760   28.6160   16.6920 O.3       1 MZ1        -0.3877
     20 C16        19.1170   30.8480   16.4200 C.3       1 MZ1         0.0603
     21 N11        19.4300   32.1510   15.7720 N.am      1 MZ1        -0.2193
     22 S8         18.1900   32.8610   14.9870 S.o2      1 MZ1         0.0707
     23 O9         18.8410   33.6980   14.0410 O.2       1 MZ1        -0.1511
     24 O10        17.4870   31.8250   14.3000 O.2       1 MZ1        -0.1511
     25 C5         17.1670   33.7640   15.8930 C.ar      1 MZ1         0.1359
     26 C6         17.2260   35.1630   15.8810 C.ar      1 MZ1        -0.0050
     27 C7         16.3550   35.9570   16.6510 C.ar      1 MZ1         0.1627
     28 F1         16.4260   37.3070   16.6510 F         1 MZ1        -0.1877
     29 C4         16.1810   33.1920   16.7060 C.ar      1 MZ1         0.1527
     30 F3         16.0370   31.8710   16.7730 F         1 MZ1        -0.1858
     31 C3         15.3020   33.9760   17.4730 C.ar      1 MZ1         0.0055
     32 C2         15.3900   35.3590   17.4490 C.ar      1 MZ1         0.1637
     33 F2         14.5580   36.1310   18.1840 F         1 MZ1        -0.1853
     34 C12        20.2090   33.1080   16.6120 C.3       1 MZ1         0.0748
     35 C15        21.6480   33.1380   16.1060 C.2       1 MZ1         0.0308
     36 C18        22.7040   33.2600   16.9470 C.2       1 MZ1        -0.0801
     37 C14        23.8980   33.2210   16.1760 C.2       1 MZ1        -0.0931
     38 C13        23.6610   33.0770   14.8640 C.2       1 MZ1        -0.0195
     39 S1         22.0490   32.9860   14.4800 S.3       1 MZ1        -0.0427
     40 H1         21.2333   26.2413    8.8982 H         1 MZ1         0.0467
     41 H2         20.5411   24.8248    9.7590 H         1 MZ1         0.0467
     42 H3         22.2278   24.7659    9.1442 H         1 MZ1         0.0467
     43 H4         21.8386   27.8828   10.2813 H         1 MZ1         0.1882
     44 H5         22.6869   27.1425   13.0493 H         1 MZ1         0.0797
     45 H6         24.2343   29.0697   13.0149 H         1 MZ1         0.0277
     46 H7         23.8030   29.3883   11.3005 H         1 MZ1         0.0277
     47 H8         24.6506   27.8685   11.7459 H         1 MZ1         0.0277
     48 H9         20.9990   27.6914   14.2819 H         1 MZ1         0.1857
     49 H10        19.5792   30.3019   13.8107 H         1 MZ1         0.0605
     50 H11        17.5889   29.1028   14.7358 H         1 MZ1         0.0449
     51 H12        18.5723   27.6072   14.8864 H         1 MZ1         0.0449
     52 H13        17.3310   30.1240   12.3751 H         1 MZ1         0.0557
     53 H14        16.8479   29.5623   10.0184 H         1 MZ1         0.0599
     54 H15        17.3945   27.3167    9.1380 H         1 MZ1         0.0559
     55 H16        18.4149   25.6281   10.6308 H         1 MZ1         0.0599
     56 H17        18.8794   26.1808   12.9961 H         1 MZ1         0.0557
     57 H18        21.0902   30.1930   15.8335 H         1 MZ1         0.0634
     58 H19        19.2121   28.2207   16.6884 H         1 MZ1         0.2100
     59 H20        19.2610   30.9301   17.5074 H         1 MZ1         0.0506
     60 H21        18.0743   30.5690   16.2082 H         1 MZ1         0.0506
     61 H22        17.9670   35.6509   15.2581 H         1 MZ1         0.0603
     62 H23        14.5497   33.4954   18.0879 H         1 MZ1         0.0580
     63 H24        20.1918   32.7792   17.6615 H         1 MZ1         0.0668
     64 H25        19.7680   34.1128   16.5353 H         1 MZ1         0.0668
     65 H26        22.6475   33.3693   18.0290 H         1 MZ1         0.0277
     66 H27        24.8962   33.2995   16.6043 H         1 MZ1         0.0371
     67 H28        24.4535   33.0246   14.1189 H         1 MZ1         0.0598
@<TRIPOS>BOND
     1    1    2 2  
     2    2    3 1  
     3    2    4 am 
     4    4    5 1  
     5    5    6 1  
     6    5    7 1  
     7    7    8 2  
     8    7    9 am 
     9    9   10 1  
    10   10   11 1  
    11   10   18 1  
    12   11   12 1  
    13   12   13 ar 
    14   12   17 ar 
    15   13   14 ar 
    16   14   15 ar 
    17   15   16 ar 
    18   16   17 ar 
    19   18   19 1  
    20   18   20 1  
    21   20   21 1  
    22   21   22 am 
    23   21   34 1  
    24   22   23 2  
    25   22   24 2  
    26   22   25 1  
    27   25   26 ar 
    28   25   29 ar 
    29   26   27 ar 
    30   27   28 1  
    31   27   32 ar 
    32   29   30 1  
    33   29   31 ar 
    34   31   32 ar 
    35   32   33 1  
    36   34   35 1  
    37   35   36 2  
    38   35   39 1  
    39   36   37 1  
    40   37   38 2  
    41   38   39 1  
    42    3   40 1  
    43    3   41 1  
    44    3   42 1  
    45    4   43 1  
    46    5   44 1  
    47    6   45 1  
    48    6   46 1  
    49    6   47 1  
    50    9   48 1  
    51   10   49 1  
    52   11   50 1  
    53   11   51 1  
    54   13   52 1  
    55   14   53 1  
    56   15   54 1  
    57   16   55 1  
    58   17   56 1  
    59   18   57 1  
    60   19   58 1  
    61   20   59 1  
    62   20   60 1  
    63   26   61 1  
    64   31   62 1  
    65   34   63 1  
    66   34   64 1  
    67   36   65 1  
    68   37   66 1  
    69   38   67 1  
@<TRIPOS>SUBSTRUCTURE
     1 MZ1         1

