### 
### Created by X-TOOL on Mon Sep 10 21:12:57 2018
### 

@<TRIPOS>MOLECULE
2qhz_ligand
   64    66     1     0     0
SMALL
GAST_HUCK


@<TRIPOS>ATOM
      1 F26        25.2620   26.9290   12.7400 F         1 MZ2        -0.2340
      2 C25        24.6570   27.0110   11.5600 C.3       1 MZ2         0.3718
      3 F28        25.5470   27.4360   10.6820 F         1 MZ2        -0.2340
      4 F27        24.2440   25.7940   11.2190 F         1 MZ2        -0.2340
      5 C23        23.5210   28.0080   11.5820 C.2       1 MZ2         0.0515
      6 C24        23.2270   28.7490   10.3010 C.3       1 MZ2        -0.0214
      7 C22        22.9110   28.2230   12.7580 C.2       1 MZ2         0.0733
      8 C21        21.7270   29.1070   13.0060 C.2       1 MZ2         0.2508
      9 O22        21.4020   29.9610   12.2010 O.2       1 MZ2        -0.3520
     10 N20        21.0300   28.8440   14.1270 N.am      1 MZ2        -0.2696
     11 C19        19.8110   29.5400   14.5450 C.3       1 MZ2         0.0791
     12 C32        18.6310   28.5810   14.3080 C.3       1 MZ2         0.0064
     13 C38        18.3980   28.3290   12.8150 C.ar      1 MZ2        -0.0408
     14 C37        17.6950   29.2480   12.0440 C.ar      1 MZ2        -0.0603
     15 C36        17.4840   29.0180   10.6870 C.ar      1 MZ2        -0.0686
     16 C35        17.9710   27.8640   10.0880 C.ar      1 MZ2        -0.0687
     17 C34        18.6690   26.9400   10.8530 C.ar      1 MZ2        -0.0686
     18 C33        18.8840   27.1730   12.2140 C.ar      1 MZ2        -0.0603
     19 C17        20.0080   29.8740   16.0290 C.3       1 MZ2         0.0970
     20 O18        19.9900   28.6690   16.8200 O.3       1 MZ2        -0.3877
     21 C16        18.9480   30.8630   16.5560 C.3       1 MZ2         0.0603
     22 N11        19.2510   32.1740   15.9310 N.am      1 MZ2        -0.2193
     23 S8         18.0430   32.8250   15.0540 S.o2      1 MZ2         0.0707
     24 O9         18.6680   33.6150   14.0430 O.2       1 MZ2        -0.1511
     25 O10        17.3130   31.7570   14.4250 O.2       1 MZ2        -0.1511
     26 C5         17.0000   33.7310   15.9270 C.ar      1 MZ2         0.1359
     27 C6         17.0960   35.1230   15.9180 C.ar      1 MZ2        -0.0050
     28 C7         16.2170   35.9290   16.6520 C.ar      1 MZ2         0.1627
     29 F1         16.3270   37.2680   16.6400 F         1 MZ2        -0.1877
     30 C4         15.9850   33.1700   16.7190 C.ar      1 MZ2         0.1527
     31 F3         15.8330   31.8390   16.7860 F         1 MZ2        -0.1858
     32 C3         15.1030   33.9730   17.4620 C.ar      1 MZ2         0.0055
     33 C2         15.2190   35.3620   17.4250 C.ar      1 MZ2         0.1637
     34 F2         14.3920   36.1720   18.1260 F         1 MZ2        -0.1853
     35 C12        20.0220   33.1220   16.7870 C.3       1 MZ2         0.0748
     36 C15        21.4750   33.1020   16.2940 C.2       1 MZ2         0.0308
     37 C18        22.5310   33.1580   17.1400 C.2       1 MZ2        -0.0801
     38 C14        23.7330   33.0700   16.3800 C.2       1 MZ2        -0.0931
     39 C13        23.5010   32.9670   15.0600 C.2       1 MZ2        -0.0195
     40 S1         21.8830   32.9830   14.6610 S.3       1 MZ2        -0.0427
     41 H1         22.3829   29.4361   10.4604 H         1 MZ2         0.0416
     42 H2         22.9688   28.0281    9.5113 H         1 MZ2         0.0416
     43 H3         24.1148   29.3231    9.9974 H         1 MZ2         0.0416
     44 H4         23.3191   27.7005   13.6219 H         1 MZ2         0.1342
     45 H5         21.3714   28.1159   14.7214 H         1 MZ2         0.1860
     46 H6         19.6626   30.4636   13.9662 H         1 MZ2         0.0605
     47 H7         17.7210   29.0212   14.7416 H         1 MZ2         0.0449
     48 H8         18.8459   27.6221   14.8022 H         1 MZ2         0.0449
     49 H9         17.3081   30.1506   12.5029 H         1 MZ2         0.0557
     50 H10        16.9370   29.7433   10.0955 H         1 MZ2         0.0599
     51 H11        17.8074   27.6861    9.0313 H         1 MZ2         0.0559
     52 H12        19.0486   26.0347   10.3933 H         1 MZ2         0.0599
     53 H13        19.4328   26.4484   12.8047 H         1 MZ2         0.0557
     54 H14        20.9955   30.3459   16.1397 H         1 MZ2         0.0634
     55 H15        19.1545   28.2308   16.7085 H         1 MZ2         0.2100
     56 H16        19.0110   30.9402   17.6515 H         1 MZ2         0.0506
     57 H17        17.9400   30.5288   16.2693 H         1 MZ2         0.0506
     58 H18        17.8728   35.5937   15.3263 H         1 MZ2         0.0603
     59 H19        14.3301   33.5112   18.0657 H         1 MZ2         0.0580
     60 H20        19.9767   32.8021   17.8385 H         1 MZ2         0.0668
     61 H21        19.6068   34.1364   16.6941 H         1 MZ2         0.0668
     62 H22        22.4713   33.2544   18.2231 H         1 MZ2         0.0277
     63 H23        24.7292   33.0846   16.8198 H         1 MZ2         0.0371
     64 H24        24.2959   32.8811   14.3206 H         1 MZ2         0.0598
@<TRIPOS>BOND
     1    1    2 1  
     2    2    3 1  
     3    2    4 1  
     4    2    5 1  
     5    5    6 1  
     6    5    7 2  
     7    7    8 1  
     8    8    9 2  
     9    8   10 am 
    10   10   11 1  
    11   11   12 1  
    12   11   19 1  
    13   12   13 1  
    14   13   14 ar 
    15   13   18 ar 
    16   14   15 ar 
    17   15   16 ar 
    18   16   17 ar 
    19   17   18 ar 
    20   19   20 1  
    21   19   21 1  
    22   21   22 1  
    23   22   23 am 
    24   22   35 1  
    25   23   24 2  
    26   23   25 2  
    27   23   26 1  
    28   26   27 ar 
    29   26   30 ar 
    30   27   28 ar 
    31   28   29 1  
    32   28   33 ar 
    33   30   31 1  
    34   30   32 ar 
    35   32   33 ar 
    36   33   34 1  
    37   35   36 1  
    38   36   37 2  
    39   36   40 1  
    40   37   38 1  
    41   38   39 2  
    42   39   40 1  
    43    6   41 1  
    44    6   42 1  
    45    6   43 1  
    46    7   44 1  
    47   10   45 1  
    48   11   46 1  
    49   12   47 1  
    50   12   48 1  
    51   14   49 1  
    52   15   50 1  
    53   16   51 1  
    54   17   52 1  
    55   18   53 1  
    56   19   54 1  
    57   20   55 1  
    58   21   56 1  
    59   21   57 1  
    60   27   58 1  
    61   32   59 1  
    62   35   60 1  
    63   35   61 1  
    64   37   62 1  
    65   38   63 1  
    66   39   64 1  
@<TRIPOS>SUBSTRUCTURE
     1 MZ2         1

