### 
### Created by X-TOOL on Mon Sep 10 21:12:57 2018
### 

@<TRIPOS>MOLECULE
2qi0_ligand
   71    74     1     0     0
SMALL
GAST_HUCK


@<TRIPOS>ATOM
      1 F29        26.0590   27.3430   11.9470 F         1 MZ3        -0.1879
      2 C26        24.7440   27.1990   11.6950 C.ar      1 MZ3         0.1386
      3 C25        24.2940   26.1780   10.8680 C.ar      1 MZ3        -0.0305
      4 C24        22.9390   26.0370   10.6160 C.ar      1 MZ3        -0.0649
      5 C23        22.0330   26.9120   11.2060 C.ar      1 MZ3        -0.0525
      6 C27        23.8430   28.0790   12.2630 C.ar      1 MZ3         0.0082
      7 C28        24.3250   29.1820   13.1520 C.3       1 MZ3        -0.0267
      8 C22        22.4880   27.9420   12.0290 C.ar      1 MZ3         0.0494
      9 C21        21.5100   28.9360   12.6350 C.2       1 MZ3         0.1996
     10 O22        21.5280   30.0610   12.1780 O.2       1 MZ3        -0.3886
     11 N20        20.6720   28.5760   13.6090 N.am      1 MZ3        -0.2798
     12 C19        19.6790   29.4590   14.2150 C.3       1 MZ3         0.0782
     13 C32        18.4020   28.6120   14.2450 C.3       1 MZ3         0.0064
     14 C38        18.0200   28.1830   12.8350 C.ar      1 MZ3        -0.0408
     15 C37        17.5380   29.1100   11.9310 C.ar      1 MZ3        -0.0603
     16 C36        17.1840   28.7020   10.6530 C.ar      1 MZ3        -0.0686
     17 C35        17.3110   27.3760   10.2650 C.ar      1 MZ3        -0.0687
     18 C34        17.8000   26.4430   11.1690 C.ar      1 MZ3        -0.0686
     19 C33        18.1500   26.8520   12.4520 C.ar      1 MZ3        -0.0603
     20 C17        20.1000   29.8630   15.6340 C.3       1 MZ3         0.0969
     21 O18        20.0710   28.7450   16.5360 O.3       1 MZ3        -0.3877
     22 C16        19.1760   30.9390   16.2300 C.3       1 MZ3         0.0604
     23 N11        19.4250   32.2220   15.5460 N.am      1 MZ3        -0.2185
     24 C12        20.1690   33.2180   16.3540 C.3       1 MZ3         0.0749
     25 C15        21.6560   33.1850   15.9960 C.2       1 MZ3         0.0308
     26 C18        22.6030   33.1760   16.9610 C.2       1 MZ3        -0.0801
     27 C14        23.8990   33.1370   16.3600 C.2       1 MZ3        -0.0931
     28 C13        23.8050   33.1250   15.0100 C.2       1 MZ3        -0.0195
     29 S1         22.2440   33.1420   14.4230 S.3       1 MZ3        -0.0427
     30 S8         18.1010   32.7860   14.7930 S.o2      1 MZ3         0.0702
     31 O9         18.5870   33.6010   13.7100 O.2       1 MZ3        -0.1501
     32 O10        17.3690   31.6840   14.2440 O.2       1 MZ3        -0.1501
     33 C5         17.1290   33.6360   15.7700 C.ar      1 MZ3         0.1000
     34 C6         17.3850   34.9820   16.0000 C.ar      1 MZ3        -0.0066
     35 C7         16.5790   35.7500   16.8370 C.ar      1 MZ3         0.0926
     36 O19        16.9200   37.0850   16.9990 O.3       1 MZ3        -0.3212
     37 C20        16.1300   38.0210   17.7200 C.3       1 MZ3         0.0594
     38 C2         15.4840   35.1480   17.4720 C.ar      1 MZ3        -0.0330
     39 C3         15.1960   33.8100   17.2350 C.ar      1 MZ3        -0.0688
     40 C4         16.0200   33.0580   16.3920 C.ar      1 MZ3        -0.0463
     41 H1         25.0030   25.4914   10.4197 H         1 MZ3         0.0620
     42 H2         22.5864   25.2480    9.9617 H         1 MZ3         0.0561
     43 H3         20.9707   26.7931   11.0257 H         1 MZ3         0.0616
     44 H4         25.4218   29.1410   13.2253 H         1 MZ3         0.0397
     45 H5         23.8859   29.0641   14.1536 H         1 MZ3         0.0397
     46 H6         24.0217   30.1517   12.7305 H         1 MZ3         0.0397
     47 H7         20.7278   27.6366   13.9474 H         1 MZ3         0.1848
     48 H8         19.5348   30.3626   13.6045 H         1 MZ3         0.0604
     49 H9         17.5831   29.2050   14.6783 H         1 MZ3         0.0449
     50 H10        18.5738   27.7180   14.8624 H         1 MZ3         0.0449
     51 H11        17.4370   30.1503   12.2186 H         1 MZ3         0.0557
     52 H12        16.8023   29.4305    9.9468 H         1 MZ3         0.0599
     53 H13        17.0304   27.0709    9.2634 H         1 MZ3         0.0559
     54 H14        17.9083   25.4045   10.8778 H         1 MZ3         0.0599
     55 H15        18.5284   26.1250   13.1614 H         1 MZ3         0.0557
     56 H16        21.1251   30.2589   15.5850 H         1 MZ3         0.0634
     57 H17        19.1895   28.3930   16.5740 H         1 MZ3         0.2100
     58 H18        19.3833   31.0483   17.3047 H         1 MZ3         0.0506
     59 H19        18.1262   30.6432   16.0872 H         1 MZ3         0.0506
     60 H20        20.0472   32.9835   17.4218 H         1 MZ3         0.0668
     61 H21        19.7688   34.2223   16.1511 H         1 MZ3         0.0668
     62 H22        22.4080   33.1955   18.0322 H         1 MZ3         0.0277
     63 H23        24.8364   33.1193   16.9140 H         1 MZ3         0.0371
     64 H24        24.6781   33.1058   14.3595 H         1 MZ3         0.0598
     65 H25        18.2354   35.4473   15.5147 H         1 MZ3         0.0561
     66 H26        16.6189   39.0062   17.6995 H         1 MZ3         0.0577
     67 H27        16.0244   37.6858   18.7623 H         1 MZ3         0.0577
     68 H28        15.1354   38.0956   17.2562 H         1 MZ3         0.0577
     69 H29        14.8629   35.7257   18.1470 H         1 MZ3         0.0542
     70 H30        14.3335   33.3494   17.7030 H         1 MZ3         0.0589
     71 H31        15.7950   32.0119   16.2188 H         1 MZ3         0.0542
@<TRIPOS>BOND
     1    1    2 1  
     2    2    3 ar 
     3    2    6 ar 
     4    3    4 ar 
     5    4    5 ar 
     6    5    8 ar 
     7    6    7 1  
     8    6    8 ar 
     9    8    9 1  
    10    9   10 2  
    11    9   11 am 
    12   11   12 1  
    13   12   13 1  
    14   12   20 1  
    15   13   14 1  
    16   14   15 ar 
    17   14   19 ar 
    18   15   16 ar 
    19   16   17 ar 
    20   17   18 ar 
    21   18   19 ar 
    22   20   21 1  
    23   20   22 1  
    24   22   23 1  
    25   23   24 1  
    26   23   30 am 
    27   24   25 1  
    28   25   26 2  
    29   25   29 1  
    30   26   27 1  
    31   27   28 2  
    32   28   29 1  
    33   30   31 2  
    34   30   32 2  
    35   30   33 1  
    36   33   34 ar 
    37   33   40 ar 
    38   34   35 ar 
    39   35   36 1  
    40   35   38 ar 
    41   36   37 1  
    42   38   39 ar 
    43   39   40 ar 
    44    3   41 1  
    45    4   42 1  
    46    5   43 1  
    47    7   44 1  
    48    7   45 1  
    49    7   46 1  
    50   11   47 1  
    51   12   48 1  
    52   13   49 1  
    53   13   50 1  
    54   15   51 1  
    55   16   52 1  
    56   17   53 1  
    57   18   54 1  
    58   19   55 1  
    59   20   56 1  
    60   21   57 1  
    61   22   58 1  
    62   22   59 1  
    63   24   60 1  
    64   24   61 1  
    65   26   62 1  
    66   27   63 1  
    67   28   64 1  
    68   34   65 1  
    69   37   66 1  
    70   37   67 1  
    71   37   68 1  
    72   38   69 1  
    73   39   70 1  
    74   40   71 1  
@<TRIPOS>SUBSTRUCTURE
     1 MZ3         1

