### 
### Created by X-TOOL on Mon Sep 10 21:12:57 2018
### 

@<TRIPOS>MOLECULE
2qi1_ligand
   70    73     1     0     0
SMALL
GAST_HUCK


@<TRIPOS>ATOM
      1 O10        17.1220   31.6020   14.3590 O.2       1 MZ4        -0.1501
      2 S8         17.8400   32.7330   14.8730 S.o2      1 MZ4         0.0702
      3 O9         18.2750   33.5550   13.7780 O.2       1 MZ4        -0.1501
      4 C5         16.8800   33.6080   15.8550 C.ar      1 MZ4         0.1000
      5 C4         15.8300   33.0160   16.5670 C.ar      1 MZ4        -0.0463
      6 C3         15.0200   33.7810   17.4110 C.ar      1 MZ4        -0.0688
      7 C2         15.2430   35.1470   17.5690 C.ar      1 MZ4        -0.0330
      8 C7         16.2880   35.7550   16.8700 C.ar      1 MZ4         0.0926
      9 O19        16.5500   37.1000   16.9910 O.3       1 MZ4        -0.3212
     10 C20        16.0760   37.8990   18.0720 C.3       1 MZ4         0.0594
     11 C6         17.0910   34.9810   16.0220 C.ar      1 MZ4        -0.0066
     12 N11        19.1920   32.2040   15.6080 N.am      1 MZ4        -0.2185
     13 C12        19.9830   33.2230   16.3500 C.3       1 MZ4         0.0749
     14 C15        21.4570   33.0460   15.9320 C.2       1 MZ4         0.0308
     15 S1         21.9400   32.8560   14.3260 S.3       1 MZ4        -0.0427
     16 C13        23.5230   32.7310   14.8390 C.2       1 MZ4        -0.0195
     17 C14        23.7150   32.8560   16.1740 C.2       1 MZ4        -0.0931
     18 C18        22.4660   33.0190   16.8400 C.2       1 MZ4        -0.0801
     19 C16        19.0490   30.9450   16.3700 C.3       1 MZ4         0.0604
     20 C17        20.0810   29.9190   15.8420 C.3       1 MZ4         0.0969
     21 O18        20.0870   28.7830   16.7170 O.3       1 MZ4        -0.3877
     22 C19        19.7790   29.5210   14.3860 C.3       1 MZ4         0.0781
     23 C32        18.5780   28.5630   14.2320 C.3       1 MZ4         0.0064
     24 C38        18.3100   28.2510   12.7430 C.ar      1 MZ4        -0.0408
     25 C33        18.8130   27.0880   12.1450 C.ar      1 MZ4        -0.0603
     26 C34        18.5810   26.8050   10.7970 C.ar      1 MZ4        -0.0686
     27 C35        17.8330   27.6900   10.0270 C.ar      1 MZ4        -0.0687
     28 C36        17.3310   28.8480   10.6140 C.ar      1 MZ4        -0.0686
     29 C37        17.5650   29.1240   11.9580 C.ar      1 MZ4        -0.0603
     30 N20        20.9330   28.8070   13.8230 N.am      1 MZ4        -0.2803
     31 C21        21.4610   29.1590   12.6240 C.2       1 MZ4         0.1947
     32 O22        21.0620   30.0780   11.9200 O.2       1 MZ4        -0.3898
     33 C22        22.6150   28.3490   12.0700 C.ar      1 MZ4         0.0295
     34 C23        23.6150   27.8510   12.8980 C.ar      1 MZ4        -0.0615
     35 C24        24.6330   27.0880   12.3510 C.ar      1 MZ4        -0.0351
     36 C27        22.6330   28.0830   10.7100 C.ar      1 MZ4        -0.0219
     37 C26        23.6530   27.3330   10.1590 C.ar      1 MZ4         0.1218
     38 O29        23.6870   27.0820    8.8140 O.3       1 MZ4        -0.3358
     39 C25        24.6460   26.8280   10.9860 C.ar      1 MZ4         0.1217
     40 O28        25.6560   26.0970   10.4320 O.3       1 MZ4        -0.3332
     41 H1         15.6432   31.9533   16.4627 H         1 MZ4         0.0542
     42 H2         14.2082   33.3054   17.9493 H         1 MZ4         0.0589
     43 H3         14.6117   35.7321   18.2279 H         1 MZ4         0.0542
     44 H4         16.4189   38.9358   17.9395 H         1 MZ4         0.0577
     45 H5         16.4670   37.5020   19.0204 H         1 MZ4         0.0577
     46 H6         14.9764   37.8760   18.0904 H         1 MZ4         0.0577
     47 H7         17.8986   35.4595   15.4799 H         1 MZ4         0.0561
     48 H8         19.8769   33.0672   17.4337 H         1 MZ4         0.0668
     49 H9         19.6357   34.2336   16.0891 H         1 MZ4         0.0668
     50 H10        24.3464   32.5604   14.1470 H         1 MZ4         0.0598
     51 H11        24.6854   32.8349   16.6678 H         1 MZ4         0.0371
     52 H12        22.3394   33.1087   17.9179 H         1 MZ4         0.0277
     53 H13        18.0321   30.5470   16.2380 H         1 MZ4         0.0506
     54 H14        19.2321   31.1367   17.4376 H         1 MZ4         0.0506
     55 H15        21.0786   30.3818   15.8661 H         1 MZ4         0.0634
     56 H16        19.2212   28.3923   16.7328 H         1 MZ4         0.2100
     57 H17        19.5849   30.4373   13.8092 H         1 MZ4         0.0604
     58 H18        17.6841   29.0328   14.6681 H         1 MZ4         0.0449
     59 H19        18.7952   27.6246   14.7632 H         1 MZ4         0.0449
     60 H20        19.3942   26.3935   12.7408 H         1 MZ4         0.0557
     61 H21        18.9816   25.9008   10.3532 H         1 MZ4         0.0599
     62 H22        17.6431   27.4799    8.9806 H         1 MZ4         0.0559
     63 H23        16.7511   29.5429   10.0175 H         1 MZ4         0.0599
     64 H24        17.1621   30.0293   12.3975 H         1 MZ4         0.0557
     65 H25        21.3367   28.0475   14.3331 H         1 MZ4         0.1847
     66 H26        23.5978   28.0581   13.9619 H         1 MZ4         0.0551
     67 H27        25.4181   26.6944   12.9863 H         1 MZ4         0.0524
     68 H28        21.8420   28.4658   10.0754 H         1 MZ4         0.0557
     69 H29        24.4512   26.5557    8.6104 H         1 MZ4         0.2443
     70 H30        25.2923   25.3332    9.9996 H         1 MZ4         0.2463
@<TRIPOS>BOND
     1    1    2 2  
     2    2    3 2  
     3    2    4 1  
     4    2   12 am 
     5    4    5 ar 
     6    4   11 ar 
     7    5    6 ar 
     8    6    7 ar 
     9    7    8 ar 
    10    8    9 1  
    11    8   11 ar 
    12    9   10 1  
    13   12   13 1  
    14   12   19 1  
    15   13   14 1  
    16   14   15 1  
    17   14   18 2  
    18   15   16 1  
    19   16   17 2  
    20   17   18 1  
    21   19   20 1  
    22   20   21 1  
    23   20   22 1  
    24   22   23 1  
    25   22   30 1  
    26   23   24 1  
    27   24   25 ar 
    28   24   29 ar 
    29   25   26 ar 
    30   26   27 ar 
    31   27   28 ar 
    32   28   29 ar 
    33   30   31 am 
    34   31   32 2  
    35   31   33 1  
    36   33   34 ar 
    37   33   36 ar 
    38   34   35 ar 
    39   35   39 ar 
    40   36   37 ar 
    41   37   38 1  
    42   37   39 ar 
    43   39   40 1  
    44    5   41 1  
    45    6   42 1  
    46    7   43 1  
    47   10   44 1  
    48   10   45 1  
    49   10   46 1  
    50   11   47 1  
    51   13   48 1  
    52   13   49 1  
    53   16   50 1  
    54   17   51 1  
    55   18   52 1  
    56   19   53 1  
    57   19   54 1  
    58   20   55 1  
    59   21   56 1  
    60   22   57 1  
    61   23   58 1  
    62   23   59 1  
    63   25   60 1  
    64   26   61 1  
    65   27   62 1  
    66   28   63 1  
    67   29   64 1  
    68   30   65 1  
    69   34   66 1  
    70   35   67 1  
    71   36   68 1  
    72   38   69 1  
    73   40   70 1  
@<TRIPOS>SUBSTRUCTURE
     1 MZ4         1

