### 
### Created by X-TOOL on Mon Sep 10 21:12:57 2018
### 

@<TRIPOS>MOLECULE
2qi3_ligand
   74    76     1     0     0
SMALL
GAST_HUCK


@<TRIPOS>ATOM
      1 O22        21.4330   30.0840   11.9560 O.2       1 MZ5        -0.3942
      2 C21        21.5390   28.9180   12.2790 C.2       1 MZ5         0.2056
      3 C22        22.6030   28.1080   11.5800 C.3       1 MZ5         0.1458
      4 C24        22.2530   28.0620   10.0820 C.3       1 MZ5        -0.0032
      5 C26        20.8680   27.4650    9.8500 C.3       1 MZ5        -0.0582
      6 C25        23.3090   27.3000    9.2750 C.3       1 MZ5        -0.0582
      7 O23        22.6790   26.7540   12.0370 O.3       1 MZ5        -0.3711
      8 N20        20.7450   28.3470   13.2010 N.am      1 MZ5        -0.2773
      9 C19        19.6600   29.0970   13.8510 C.3       1 MZ5         0.0789
     10 C32        18.4030   28.2190   13.7830 C.3       1 MZ5         0.0064
     11 C38        17.9970   27.9210   12.3590 C.ar      1 MZ5        -0.0408
     12 C37        17.5360   28.9420   11.5340 C.ar      1 MZ5        -0.0603
     13 C36        17.1650   28.6490   10.2200 C.ar      1 MZ5        -0.0686
     14 C35        17.2310   27.3500    9.7110 C.ar      1 MZ5        -0.0687
     15 C34        17.7000   26.3370   10.5420 C.ar      1 MZ5        -0.0686
     16 C33        18.0760   26.6120   11.8610 C.ar      1 MZ5        -0.0603
     17 C17        20.0680   29.4470   15.2870 C.3       1 MZ5         0.0968
     18 O18        19.9750   28.3220   16.1610 O.3       1 MZ5        -0.3877
     19 C16        19.1910   30.5480   15.8790 C.3       1 MZ5         0.0579
     20 N11        19.4240   31.8010   15.1370 N.am      1 MZ5        -0.2317
     21 C12        20.1500   32.7950   15.9520 C.3       1 MZ5         0.0322
     22 C13        21.6520   32.4860   15.9480 C.3       1 MZ5        -0.0270
     23 C14        22.2280   32.6120   14.5310 C.3       1 MZ5        -0.0610
     24 C15        22.4080   33.3440   16.9670 C.3       1 MZ5        -0.0518
     25 C18        22.0400   34.8110   16.9250 C.3       1 MZ5        -0.0650
     26 S8         18.0790   32.3910   14.4330 S.o2      1 MZ5         0.0679
     27 O10        17.3170   31.2870   13.9400 O.2       1 MZ5        -0.1506
     28 O9         18.5480   33.2510   13.3750 O.2       1 MZ5        -0.1506
     29 C5         17.1760   33.2420   15.5010 C.ar      1 MZ5         0.1007
     30 C4         17.3210   34.6360   15.7500 C.ar      1 MZ5        -0.0206
     31 C3         16.5110   35.2980   16.7140 C.ar      1 MZ5         0.0595
     32 S1         16.6020   36.9690   17.0940 S.3       1 MZ5         0.0026
     33 C1         15.3370   36.6190   18.2380 C.2       1 MZ5         0.0809
     34 N1         14.9230   35.3360   18.3060 N.2       1 MZ5        -0.2931
     35 C2         15.5740   34.5430   17.4320 C.ar      1 MZ5         0.0375
     36 C7         15.4390   33.1880   17.1910 C.ar      1 MZ5        -0.0517
     37 C6         16.2240   32.5430   16.2450 C.ar      1 MZ5        -0.0433
     38 H1         23.5785   28.5940   11.7287 H         1 MZ5         0.0840
     39 H2         22.2364   29.0987    9.7147 H         1 MZ5         0.0345
     40 H3         20.6521   27.4479    8.7715 H         1 MZ5         0.0235
     41 H4         20.1136   28.0777   10.3652 H         1 MZ5         0.0235
     42 H5         20.8399   26.4391   10.2459 H         1 MZ5         0.0235
     43 H6         24.2991   27.7443    9.4550 H         1 MZ5         0.0235
     44 H7         23.0680   27.3634    8.2036 H         1 MZ5         0.0235
     45 H8         23.3183   26.2452    9.5870 H         1 MZ5         0.0235
     46 H9         23.3520   26.2937   11.5495 H         1 MZ5         0.2133
     47 H10        20.8955   27.3904   13.4506 H         1 MZ5         0.1857
     48 H11        19.4744   30.0321   13.3023 H         1 MZ5         0.0605
     49 H12        17.5765   28.7426   14.2857 H         1 MZ5         0.0449
     50 H13        18.6045   27.2697   14.3008 H         1 MZ5         0.0449
     51 H14        17.4654   29.9569   11.9082 H         1 MZ5         0.0557
     52 H15        16.8168   29.4504    9.5785 H         1 MZ5         0.0599
     53 H16        16.9244   27.1361    8.6935 H         1 MZ5         0.0559
     54 H17        17.7747   25.3241   10.1632 H         1 MZ5         0.0599
     55 H18        18.4295   25.8111   12.5003 H         1 MZ5         0.0557
     56 H19        21.1110   29.7957   15.2663 H         1 MZ5         0.0634
     57 H20        19.0788   28.0072   16.1758 H         1 MZ5         0.2100
     58 H21        19.4480   30.6940   16.9385 H         1 MZ5         0.0504
     59 H22        18.1324   30.2612   15.7946 H         1 MZ5         0.0504
     60 H23        19.7748   32.7617   16.9855 H         1 MZ5         0.0481
     61 H24        19.9843   33.7988   15.5339 H         1 MZ5         0.0481
     62 H25        21.7730   31.4372   16.2568 H         1 MZ5         0.0314
     63 H26        23.3044   32.3865   14.5514 H         1 MZ5         0.0233
     64 H27        22.0751   33.6372   14.1628 H         1 MZ5         0.0233
     65 H28        21.7174   31.9026   13.8632 H         1 MZ5         0.0233
     66 H29        23.4856   33.2512   16.7665 H         1 MZ5         0.0266
     67 H30        22.1880   32.9603   17.9742 H         1 MZ5         0.0266
     68 H31        22.6222   35.3569   17.6820 H         1 MZ5         0.0230
     69 H32        20.9664   34.9259   17.1351 H         1 MZ5         0.0230
     70 H33        22.2640   35.2168   15.9274 H         1 MZ5         0.0230
     71 H34        18.0608   35.2024   15.1959 H         1 MZ5         0.0592
     72 H35        14.9022   37.3951   18.8662 H         1 MZ5         0.1260
     73 H36        14.7063   32.6187   17.7514 H         1 MZ5         0.0584
     74 H37        16.0956   31.4791   16.0814 H         1 MZ5         0.0580
@<TRIPOS>BOND
     1    1    2 2  
     2    2    3 1  
     3    2    8 am 
     4    3    4 1  
     5    3    7 1  
     6    4    5 1  
     7    4    6 1  
     8    8    9 1  
     9    9   10 1  
    10    9   17 1  
    11   10   11 1  
    12   11   12 ar 
    13   11   16 ar 
    14   12   13 ar 
    15   13   14 ar 
    16   14   15 ar 
    17   15   16 ar 
    18   17   18 1  
    19   17   19 1  
    20   19   20 1  
    21   20   21 1  
    22   20   26 am 
    23   21   22 1  
    24   22   23 1  
    25   22   24 1  
    26   24   25 1  
    27   26   27 2  
    28   26   28 2  
    29   26   29 1  
    30   29   30 ar 
    31   29   37 ar 
    32   30   31 ar 
    33   31   32 1  
    34   31   35 ar 
    35   32   33 1  
    36   33   34 2  
    37   34   35 1  
    38   35   36 ar 
    39   36   37 ar 
    40    3   38 1  
    41    4   39 1  
    42    5   40 1  
    43    5   41 1  
    44    5   42 1  
    45    6   43 1  
    46    6   44 1  
    47    6   45 1  
    48    7   46 1  
    49    8   47 1  
    50    9   48 1  
    51   10   49 1  
    52   10   50 1  
    53   12   51 1  
    54   13   52 1  
    55   14   53 1  
    56   15   54 1  
    57   16   55 1  
    58   17   56 1  
    59   18   57 1  
    60   19   58 1  
    61   19   59 1  
    62   21   60 1  
    63   21   61 1  
    64   22   62 1  
    65   23   63 1  
    66   23   64 1  
    67   23   65 1  
    68   24   66 1  
    69   24   67 1  
    70   25   68 1  
    71   25   69 1  
    72   25   70 1  
    73   30   71 1  
    74   33   72 1  
    75   36   73 1  
    76   37   74 1  
@<TRIPOS>SUBSTRUCTURE
     1 MZ5         1

