### 
### Created by X-TOOL on Mon Sep 10 21:12:57 2018
### 

@<TRIPOS>MOLECULE
2qi4_ligand
   72    75     1     0     0
SMALL
GAST_HUCK


@<TRIPOS>ATOM
      1 O22        21.4760   29.9050   12.2310 O.2       1 MZ6        -0.3847
      2 C21        21.3670   28.7580   12.6410 C.2       1 MZ6         0.2029
      3 C22        22.1510   27.6830   11.9740 C.ar      1 MZ6         0.0411
      4 C27        23.4940   27.7990   11.6830 C.ar      1 MZ6        -0.0137
      5 C26        24.1310   26.7550   11.0190 C.ar      1 MZ6         0.0929
      6 O27        25.4460   26.8580   10.7410 O.3       1 MZ6        -0.3321
      7 C25        23.4420   25.6030   10.6470 C.ar      1 MZ6        -0.0290
      8 C24        22.0890   25.4830   10.9390 C.ar      1 MZ6        -0.0650
      9 C23        21.4480   26.5320   11.5880 C.ar      1 MZ6        -0.0531
     10 N20        20.5580   28.3660   13.6150 N.am      1 MZ6        -0.2787
     11 C19        19.6170   29.2450   14.2860 C.3       1 MZ6         0.0783
     12 C32        18.3080   28.4450   14.2070 C.3       1 MZ6         0.0064
     13 C38        17.9840   28.1020   12.7470 C.ar      1 MZ6        -0.0408
     14 C37        17.5730   29.0860   11.8520 C.ar      1 MZ6        -0.0603
     15 C36        17.2890   28.7640   10.5240 C.ar      1 MZ6        -0.0686
     16 C35        17.4080   27.4510   10.0830 C.ar      1 MZ6        -0.0687
     17 C34        17.8120   26.4670   10.9730 C.ar      1 MZ6        -0.0686
     18 C33        18.0900   26.7890   12.2960 C.ar      1 MZ6        -0.0603
     19 C17        20.0650   29.5980   15.6920 C.3       1 MZ6         0.0967
     20 O18        20.0150   28.4250   16.5180 O.3       1 MZ6        -0.3877
     21 C16        19.1980   30.7250   16.2840 C.3       1 MZ6         0.0579
     22 N11        19.4380   31.9630   15.4970 N.am      1 MZ6        -0.2317
     23 C12        20.1530   33.0000   16.2810 C.3       1 MZ6         0.0322
     24 C13        21.6520   32.6580   16.3160 C.3       1 MZ6        -0.0270
     25 C15        22.3900   33.5920   17.2860 C.3       1 MZ6        -0.0518
     26 C18        22.1950   35.0700   17.0060 C.3       1 MZ6        -0.0650
     27 C14        22.3000   32.6680   14.9290 C.3       1 MZ6        -0.0610
     28 S8         18.0900   32.5750   14.7950 S.o2      1 MZ6         0.0679
     29 O10        17.3350   31.4910   14.2590 O.2       1 MZ6        -0.1506
     30 O9         18.5620   33.4330   13.7410 O.2       1 MZ6        -0.1506
     31 C5         17.2020   33.4440   15.8720 C.ar      1 MZ6         0.1007
     32 C6         16.2480   32.7630   16.6300 C.ar      1 MZ6        -0.0433
     33 C7         15.4790   33.4180   17.5920 C.ar      1 MZ6        -0.0517
     34 C2         15.6200   34.7770   17.8240 C.ar      1 MZ6         0.0375
     35 C3         16.5560   35.5130   17.0860 C.ar      1 MZ6         0.0595
     36 C4         17.3480   34.8400   16.1140 C.ar      1 MZ6        -0.0206
     37 N1         14.9680   35.5770   18.7000 N.2       1 MZ6        -0.2931
     38 C1         15.3770   36.8600   18.6450 C.2       1 MZ6         0.0809
     39 S1         16.6230   37.1790   17.4730 S.3       1 MZ6         0.0026
     40 H1         24.0444   28.6887   11.9668 H         1 MZ6         0.0592
     41 H2         25.7354   26.0739   10.2894 H         1 MZ6         0.2481
     42 H3         23.9599   24.8025   10.1312 H         1 MZ6         0.0578
     43 H4         21.5429   24.5874   10.6656 H         1 MZ6         0.0601
     44 H5         20.3873   26.4594   11.7993 H         1 MZ6         0.0575
     45 H6         20.5980   27.4096   13.9045 H         1 MZ6         0.1851
     46 H7         19.5093   30.1844   13.7240 H         1 MZ6         0.0604
     47 H8         17.4890   29.0456   14.6295 H         1 MZ6         0.0449
     48 H9         18.4155   27.5144   14.7836 H         1 MZ6         0.0449
     49 H10        17.4727   30.1112   12.1895 H         1 MZ6         0.0557
     50 H11        16.9749   29.5395    9.8348 H         1 MZ6         0.0599
     51 H12        17.1869   27.1984    9.0523 H         1 MZ6         0.0559
     52 H13        17.9114   25.4418   10.6350 H         1 MZ6         0.0599
     53 H14        18.3929   26.0088   12.9849 H         1 MZ6         0.0557
     54 H15        21.1058   29.9514   15.6486 H         1 MZ6         0.0634
     55 H16        20.2956   28.6466   17.3982 H         1 MZ6         0.2100
     56 H17        19.4745   30.8935   17.3353 H         1 MZ6         0.0504
     57 H18        18.1354   30.4469   16.2244 H         1 MZ6         0.0504
     58 H19        19.7567   33.0251   17.3068 H         1 MZ6         0.0481
     59 H20        20.0102   33.9830   15.8085 H         1 MZ6         0.0481
     60 H21        21.7437   31.6340   16.7070 H         1 MZ6         0.0314
     61 H22        23.4656   33.3698   17.2257 H         1 MZ6         0.0266
     62 H23        22.0292   33.3846   18.3042 H         1 MZ6         0.0266
     63 H24        22.7562   35.6604   17.7453 H         1 MZ6         0.0230
     64 H25        21.1255   35.3182   17.0742 H         1 MZ6         0.0230
     65 H26        22.5619   35.3033   15.9956 H         1 MZ6         0.0230
     66 H27        21.7478   31.9902   14.2614 H         1 MZ6         0.0233
     67 H28        23.3445   32.3325   15.0098 H         1 MZ6         0.0233
     68 H29        22.2733   33.6884   14.5191 H         1 MZ6         0.0233
     69 H30        16.1014   31.7013   16.4674 H         1 MZ6         0.0580
     70 H31        14.7567   32.8527   18.1697 H         1 MZ6         0.0584
     71 H32        18.0791   35.4026   15.5448 H         1 MZ6         0.0592
     72 H33        14.9601   37.6367   19.2844 H         1 MZ6         0.1260
@<TRIPOS>BOND
     1    1    2 2  
     2    2    3 1  
     3    2   10 am 
     4    3    4 ar 
     5    3    9 ar 
     6    4    5 ar 
     7    5    6 1  
     8    5    7 ar 
     9    7    8 ar 
    10    8    9 ar 
    11   10   11 1  
    12   11   12 1  
    13   11   19 1  
    14   12   13 1  
    15   13   14 ar 
    16   13   18 ar 
    17   14   15 ar 
    18   15   16 ar 
    19   16   17 ar 
    20   17   18 ar 
    21   19   20 1  
    22   19   21 1  
    23   21   22 1  
    24   22   23 1  
    25   22   28 am 
    26   23   24 1  
    27   24   25 1  
    28   24   27 1  
    29   25   26 1  
    30   28   29 2  
    31   28   30 2  
    32   28   31 1  
    33   31   32 ar 
    34   31   36 ar 
    35   32   33 ar 
    36   33   34 ar 
    37   34   35 ar 
    38   34   37 1  
    39   35   36 ar 
    40   35   39 1  
    41   37   38 2  
    42   38   39 1  
    43    4   40 1  
    44    6   41 1  
    45    7   42 1  
    46    8   43 1  
    47    9   44 1  
    48   10   45 1  
    49   11   46 1  
    50   12   47 1  
    51   12   48 1  
    52   14   49 1  
    53   15   50 1  
    54   16   51 1  
    55   17   52 1  
    56   18   53 1  
    57   19   54 1  
    58   20   55 1  
    59   21   56 1  
    60   21   57 1  
    61   23   58 1  
    62   23   59 1  
    63   24   60 1  
    64   25   61 1  
    65   25   62 1  
    66   26   63 1  
    67   26   64 1  
    68   26   65 1  
    69   27   66 1  
    70   27   67 1  
    71   27   68 1  
    72   32   69 1  
    73   33   70 1  
    74   36   71 1  
    75   38   72 1  
@<TRIPOS>SUBSTRUCTURE
     1 MZ6         1

