### 
### Created by X-TOOL on Mon Sep 10 21:12:57 2018
### 

@<TRIPOS>MOLECULE
2qi5_ligand
   80    82     1     0     0
SMALL
GAST_HUCK


@<TRIPOS>ATOM
      1 O9         18.6240   33.2560   13.5970 O.2       1 MZ7        -0.1506
      2 S8         18.1460   32.4480   14.6710 S.o2      1 MZ7         0.0679
      3 O10        17.4000   31.3250   14.1640 O.2       1 MZ7        -0.1506
      4 C5         17.2080   33.2970   15.6800 C.ar      1 MZ7         0.1007
      5 C6         16.2220   32.6100   16.3830 C.ar      1 MZ7        -0.0433
      6 C7         15.3930   33.2710   17.2860 C.ar      1 MZ7        -0.0517
      7 C4         17.3370   34.6760   15.9100 C.ar      1 MZ7        -0.0206
      8 C3         16.4900   35.3510   16.8070 C.ar      1 MZ7         0.0595
      9 C2         15.5200   34.6350   17.5030 C.ar      1 MZ7         0.0375
     10 N1         14.8430   35.4600   18.3420 N.2       1 MZ7        -0.2931
     11 S1         16.5660   37.0220   17.1350 S.3       1 MZ7         0.0026
     12 C1         15.2630   36.7470   18.2530 C.2       1 MZ7         0.0809
     13 N11        19.4280   31.8300   15.4360 N.am      1 MZ7        -0.2320
     14 C12        20.0930   32.8040   16.3140 C.3       1 MZ7         0.0297
     15 C13        21.5970   32.5090   16.3670 C.3       1 MZ7        -0.0359
     16 C14        22.3430   33.6490   17.0670 C.3       1 MZ7        -0.0518
     17 C15        22.2900   35.0280   16.4010 C.3       1 MZ7        -0.0559
     18 C18        22.7110   34.9970   14.9460 C.3       1 MZ7        -0.0653
     19 C16        19.1400   30.5370   16.0960 C.3       1 MZ7         0.0579
     20 C17        20.0510   29.4540   15.5080 C.3       1 MZ7         0.0968
     21 O18        20.0530   28.3480   16.4180 O.3       1 MZ7        -0.3877
     22 C19        19.6500   29.0060   14.0920 C.3       1 MZ7         0.0789
     23 N20        20.7120   28.2390   13.4590 N.am      1 MZ7        -0.2775
     24 C21        21.4930   28.6330   12.4470 C.2       1 MZ7         0.2024
     25 O22        21.4830   29.7260   11.9150 O.2       1 MZ7        -0.3945
     26 C22        22.4380   27.5660   11.9580 C.3       1 MZ7         0.1330
     27 C23        23.8420   28.0730   11.6990 C.3       1 MZ7        -0.0063
     28 C25        24.7720   26.9320   11.2630 C.3       1 MZ7        -0.0584
     29 C24        24.3630   28.7670   12.9480 C.3       1 MZ7        -0.0584
     30 N26        21.9300   26.8710   10.7870 N.am      1 MZ7        -0.2656
     31 C27        21.6850   25.5630   10.8050 C.2       1 MZ7         0.1751
     32 O28        21.8350   24.8590   11.8050 O.2       1 MZ7        -0.3972
     33 C29        21.2180   25.0190    9.4880 C.3       1 MZ7         0.0258
     34 C32        18.3610   28.1810   14.0610 C.3       1 MZ7         0.0064
     35 C38        17.9990   27.8080   12.6430 C.ar      1 MZ7        -0.0408
     36 C33        18.2310   26.5150   12.1850 C.ar      1 MZ7        -0.0603
     37 C34        17.9230   26.1670   10.8730 C.ar      1 MZ7        -0.0686
     38 C35        17.3640   27.1070   10.0220 C.ar      1 MZ7        -0.0687
     39 C36        17.1220   28.3990   10.4720 C.ar      1 MZ7        -0.0686
     40 C37        17.4390   28.7450   11.7830 C.ar      1 MZ7        -0.0603
     41 H1         16.0977   31.5448   16.2252 H         1 MZ7         0.0580
     42 H2         14.6381   32.7117   17.8267 H         1 MZ7         0.0584
     43 H3         18.1055   35.2320   15.3852 H         1 MZ7         0.0592
     44 H4         14.8167   37.5491   18.8389 H         1 MZ7         0.1260
     45 H5         19.6703   32.7316   17.3269 H         1 MZ7         0.0478
     46 H6         19.9331   33.8191   15.9215 H         1 MZ7         0.0478
     47 H7         21.9810   32.4008   15.3419 H         1 MZ7         0.0281
     48 H8         21.7631   31.5736   16.9214 H         1 MZ7         0.0281
     49 H9         23.4009   33.3569   17.1412 H         1 MZ7         0.0266
     50 H10        21.9193   33.7519   18.0769 H         1 MZ7         0.0266
     51 H11        22.9619   35.7071   16.9463 H         1 MZ7         0.0263
     52 H12        21.2590   35.4068   16.4599 H         1 MZ7         0.0263
     53 H13        22.6521   36.0118   14.5256 H         1 MZ7         0.0230
     54 H14        22.0418   34.3282   14.3848 H         1 MZ7         0.0230
     55 H15        23.7447   34.6286   14.8711 H         1 MZ7         0.0230
     56 H16        18.0880   30.2641   15.9262 H         1 MZ7         0.0504
     57 H17        19.3259   30.6265   17.1765 H         1 MZ7         0.0504
     58 H18        21.0710   29.8614   15.4477 H         1 MZ7         0.0634
     59 H19        19.1674   28.0187   16.5163 H         1 MZ7         0.2100
     60 H20        19.4815   29.9154   13.4966 H         1 MZ7         0.0605
     61 H21        20.8753   27.3202   13.8184 H         1 MZ7         0.1857
     62 H22        22.5123   26.8234   12.7661 H         1 MZ7         0.0802
     63 H23        23.8014   28.8099   10.8834 H         1 MZ7         0.0343
     64 H24        25.7814   27.3303   11.0828 H         1 MZ7         0.0234
     65 H25        24.3866   26.4779   10.3382 H         1 MZ7         0.0234
     66 H26        24.8144   26.1704   12.0555 H         1 MZ7         0.0234
     67 H27        23.6746   29.5767   13.2317 H         1 MZ7         0.0234
     68 H28        25.3593   29.1869   12.7456 H         1 MZ7         0.0234
     69 H29        24.4318   28.0394   13.7701 H         1 MZ7         0.0234
     70 H30        21.7605   27.3879    9.9479 H         1 MZ7         0.1883
     71 H31        21.0371   23.9380    9.5812 H         1 MZ7         0.0467
     72 H32        21.9887   25.1972    8.7236 H         1 MZ7         0.0467
     73 H33        20.2856   25.5226    9.1931 H         1 MZ7         0.0467
     74 H34        17.5433   28.7725   14.4986 H         1 MZ7         0.0449
     75 H35        18.5056   27.2632   14.6499 H         1 MZ7         0.0449
     76 H36        18.6541   25.7742   12.8538 H         1 MZ7         0.0557
     77 H37        18.1201   25.1621   10.5174 H         1 MZ7         0.0599
     78 H38        17.1150   26.8337    9.0030 H         1 MZ7         0.0559
     79 H39        16.6880   29.1350    9.8049 H         1 MZ7         0.0599
     80 H40        17.2476   29.7522   12.1352 H         1 MZ7         0.0557
@<TRIPOS>BOND
     1    1    2 2  
     2    2    3 2  
     3    2    4 1  
     4    2   13 am 
     5    4    5 ar 
     6    4    7 ar 
     7    5    6 ar 
     8    6    9 ar 
     9    7    8 ar 
    10    8    9 ar 
    11    8   11 1  
    12    9   10 1  
    13   10   12 2  
    14   11   12 1  
    15   13   14 1  
    16   13   19 1  
    17   14   15 1  
    18   15   16 1  
    19   16   17 1  
    20   17   18 1  
    21   19   20 1  
    22   20   21 1  
    23   20   22 1  
    24   22   23 1  
    25   22   34 1  
    26   23   24 am 
    27   24   25 2  
    28   24   26 1  
    29   26   27 1  
    30   26   30 1  
    31   27   28 1  
    32   27   29 1  
    33   30   31 am 
    34   31   32 2  
    35   31   33 1  
    36   34   35 1  
    37   35   36 ar 
    38   35   40 ar 
    39   36   37 ar 
    40   37   38 ar 
    41   38   39 ar 
    42   39   40 ar 
    43    5   41 1  
    44    6   42 1  
    45    7   43 1  
    46   12   44 1  
    47   14   45 1  
    48   14   46 1  
    49   15   47 1  
    50   15   48 1  
    51   16   49 1  
    52   16   50 1  
    53   17   51 1  
    54   17   52 1  
    55   18   53 1  
    56   18   54 1  
    57   18   55 1  
    58   19   56 1  
    59   19   57 1  
    60   20   58 1  
    61   21   59 1  
    62   22   60 1  
    63   23   61 1  
    64   26   62 1  
    65   27   63 1  
    66   28   64 1  
    67   28   65 1  
    68   28   66 1  
    69   29   67 1  
    70   29   68 1  
    71   29   69 1  
    72   30   70 1  
    73   33   71 1  
    74   33   72 1  
    75   33   73 1  
    76   34   74 1  
    77   34   75 1  
    78   36   76 1  
    79   37   77 1  
    80   38   78 1  
    81   39   79 1  
    82   40   80 1  
@<TRIPOS>SUBSTRUCTURE
     1 MZ7         1

