### 
### Created by X-TOOL on Mon Sep 10 21:12:57 2018
### 

@<TRIPOS>MOLECULE
2qi6_ligand
   69    72     1     0     0
SMALL
GAST_HUCK


@<TRIPOS>ATOM
      1 O9         18.7210   33.4810   13.7780 O.2       1 MZ8        -0.1506
      2 S8         18.2190   32.6640   14.8350 S.o2      1 MZ8         0.0679
      3 O10        17.4440   31.5890   14.2840 O.2       1 MZ8        -0.1506
      4 C5         17.3360   33.5400   15.8980 C.ar      1 MZ8         0.1007
      5 C4         17.4880   34.9220   16.1480 C.ar      1 MZ8        -0.0206
      6 C3         16.7060   35.6050   17.1110 C.ar      1 MZ8         0.0595
      7 S1         16.8070   37.2670   17.4970 S.3       1 MZ8         0.0026
      8 C1         15.5420   36.9760   18.6520 C.2       1 MZ8         0.0809
      9 N1         15.1120   35.6960   18.7270 N.2       1 MZ8        -0.2931
     10 C2         15.7570   34.8860   17.8460 C.ar      1 MZ8         0.0375
     11 C7         15.5950   33.5260   17.6090 C.ar      1 MZ8        -0.0517
     12 C6         16.3590   32.8690   16.6450 C.ar      1 MZ8        -0.0433
     13 N11        19.5460   32.0280   15.5330 N.am      1 MZ8        -0.2317
     14 C12        20.3050   33.0090   16.3460 C.3       1 MZ8         0.0320
     15 C13        21.8000   32.6630   16.3620 C.3       1 MZ8        -0.0296
     16 C14        22.4140   32.6170   14.9630 C.3       1 MZ8        -0.0612
     17 C15        22.5300   33.6430   17.2740 C.3       1 MZ8        -0.0612
     18 C16        19.2780   30.7630   16.2530 C.3       1 MZ8         0.0579
     19 C17        20.0940   29.6050   15.6720 C.3       1 MZ8         0.0967
     20 O18        20.0180   28.4520   16.5290 O.3       1 MZ8        -0.3877
     21 C19        19.6190   29.2710   14.2680 C.3       1 MZ8         0.0783
     22 C32        18.3030   28.4780   14.2000 C.3       1 MZ8         0.0064
     23 C38        17.9430   28.1560   12.7560 C.ar      1 MZ8        -0.0408
     24 C33        17.9810   26.8290   12.3090 C.ar      1 MZ8        -0.0603
     25 C34        17.6780   26.5180   10.9930 C.ar      1 MZ8        -0.0686
     26 C35        17.3230   27.5230   10.1020 C.ar      1 MZ8        -0.0687
     27 C36        17.2850   28.8450   10.5340 C.ar      1 MZ8        -0.0686
     28 C37        17.5920   29.1580   11.8600 C.ar      1 MZ8        -0.0603
     29 N20        20.5600   28.4090   13.5660 N.am      1 MZ8        -0.2787
     30 C21        21.4160   28.8060   12.6320 C.2       1 MZ8         0.2029
     31 O22        21.5770   29.9590   12.2540 O.2       1 MZ8        -0.3847
     32 C22        22.1820   27.7330   11.9320 C.ar      1 MZ8         0.0411
     33 C23        21.4700   26.6080   11.5000 C.ar      1 MZ8        -0.0531
     34 C24        22.1020   25.5750   10.8090 C.ar      1 MZ8        -0.0650
     35 C25        23.4540   25.6830   10.5210 C.ar      1 MZ8        -0.0290
     36 C26        24.1510   26.8190   10.9330 C.ar      1 MZ8         0.0929
     37 O27        25.4730   26.9220   10.6600 O.3       1 MZ8        -0.3321
     38 C27        23.5260   27.8440   11.6340 C.ar      1 MZ8        -0.0137
     39 H1         18.2279   35.4782   15.5839 H         1 MZ8         0.0592
     40 H2         15.1249   37.7684   19.2717 H         1 MZ8         0.1260
     41 H3         14.8637   32.9676   18.1822 H         1 MZ8         0.0584
     42 H4         16.1927   31.8124   16.4692 H         1 MZ8         0.0580
     43 H5         19.9211   32.9970   17.3767 H         1 MZ8         0.0480
     44 H6         20.1718   34.0130   15.9167 H         1 MZ8         0.0480
     45 H7         21.9053   31.6573   16.7949 H         1 MZ8         0.0311
     46 H8         23.4821   32.3654   15.0395 H         1 MZ8         0.0233
     47 H9         22.3024   33.5995   14.4811 H         1 MZ8         0.0233
     48 H10        21.8995   31.8530   14.3617 H         1 MZ8         0.0233
     49 H11        22.0557   33.6431   18.2665 H         1 MZ8         0.0233
     50 H12        22.4781   34.6536   16.8427 H         1 MZ8         0.0233
     51 H13        23.5828   33.3393   17.3708 H         1 MZ8         0.0233
     52 H14        18.2076   30.5236   16.1695 H         1 MZ8         0.0504
     53 H15        19.5435   30.8913   17.3127 H         1 MZ8         0.0504
     54 H16        21.1463   29.9200   15.6129 H         1 MZ8         0.0634
     55 H17        20.3630   28.6727   17.3862 H         1 MZ8         0.2100
     56 H18        19.5006   30.2190   13.7228 H         1 MZ8         0.0604
     57 H19        17.4967   29.0772   14.6482 H         1 MZ8         0.0449
     58 H20        18.4177   27.5391   14.7615 H         1 MZ8         0.0449
     59 H21        18.2500   26.0376   12.9992 H         1 MZ8         0.0557
     60 H22        17.7181   25.4879   10.6580 H         1 MZ8         0.0599
     61 H23        17.0768   27.2784    9.0751 H         1 MZ8         0.0559
     62 H24        17.0166   29.6334    9.8402 H         1 MZ8         0.0599
     63 H25        17.5562   30.1892   12.1922 H         1 MZ8         0.0557
     64 H26        20.5615   27.4385   13.8073 H         1 MZ8         0.1851
     65 H27        20.4081   26.5386   11.7064 H         1 MZ8         0.0575
     66 H28        21.5435   24.6986   10.5008 H         1 MZ8         0.0601
     67 H29        23.9639   24.8931    9.9814 H         1 MZ8         0.0578
     68 H30        25.9366   26.2001   11.0679 H         1 MZ8         0.2481
     69 H31        24.0863   28.7191   11.9427 H         1 MZ8         0.0592
@<TRIPOS>BOND
     1    1    2 2  
     2    2    3 2  
     3    2    4 1  
     4    2   13 am 
     5    4    5 ar 
     6    4   12 ar 
     7    5    6 ar 
     8    6    7 1  
     9    6   10 ar 
    10    7    8 1  
    11    8    9 2  
    12    9   10 1  
    13   10   11 ar 
    14   11   12 ar 
    15   13   14 1  
    16   13   18 1  
    17   14   15 1  
    18   15   16 1  
    19   15   17 1  
    20   18   19 1  
    21   19   20 1  
    22   19   21 1  
    23   21   22 1  
    24   21   29 1  
    25   22   23 1  
    26   23   24 ar 
    27   23   28 ar 
    28   24   25 ar 
    29   25   26 ar 
    30   26   27 ar 
    31   27   28 ar 
    32   29   30 am 
    33   30   31 2  
    34   30   32 1  
    35   32   33 ar 
    36   32   38 ar 
    37   33   34 ar 
    38   34   35 ar 
    39   35   36 ar 
    40   36   37 1  
    41   36   38 ar 
    42    5   39 1  
    43    8   40 1  
    44   11   41 1  
    45   12   42 1  
    46   14   43 1  
    47   14   44 1  
    48   15   45 1  
    49   16   46 1  
    50   16   47 1  
    51   16   48 1  
    52   17   49 1  
    53   17   50 1  
    54   17   51 1  
    55   18   52 1  
    56   18   53 1  
    57   19   54 1  
    58   20   55 1  
    59   21   56 1  
    60   22   57 1  
    61   22   58 1  
    62   24   59 1  
    63   25   60 1  
    64   26   61 1  
    65   27   62 1  
    66   28   63 1  
    67   29   64 1  
    68   33   65 1  
    69   34   66 1  
    70   35   67 1  
    71   37   68 1  
    72   38   69 1  
@<TRIPOS>SUBSTRUCTURE
     1 MZ8         1

