### 
### Created by X-TOOL on Mon Sep 10 21:12:59 2018
### 

@<TRIPOS>MOLECULE
2qiq_ligand
   99    99     1     0     0
SMALL
GAST_HUCK


@<TRIPOS>ATOM
      1 O43        18.5550  -32.9900   21.6270 O.2       1 CYV        -0.3774
      2 C42        19.2210  -32.9880   20.5980 C.2       1 CYV         0.3224
      3 O44        20.2040  -31.9160   20.3990 O.3       1 CYV        -0.2580
      4 C46        21.5380  -31.9020   20.9580 C.3       1 CYV         0.0905
      5 C49        22.2930  -30.7170   20.3570 C.3       1 CYV        -0.0320
      6 C48        21.4720  -31.7160   22.4770 C.3       1 CYV        -0.0320
      7 C47        22.2980  -33.1850   20.6050 C.3       1 CYV        -0.0320
      8 N41        19.0770  -33.9100   19.6380 N.am      1 CYV        -0.2389
      9 C39        18.1370  -35.0250   19.7280 C.3       1 CYV         0.1556
     10 C40        17.8800  -35.4860   18.2910 C.3       1 CYV         0.0843
     11 O45        19.0710  -36.0030   17.6730 O.3       1 CYV        -0.3903
     12 C37        18.6780  -36.1640   20.5560 C.2       1 CYV         0.2062
     13 O38        19.8470  -36.5310   20.4560 O.2       1 CYV        -0.3943
     14 N36        17.7910  -36.7150   21.3880 N.am      1 CYV        -0.2645
     15 C32        18.0960  -37.8280   22.2820 C.3       1 CYV         0.1173
     16 C33        17.7140  -37.3400   23.6930 C.3       1 CYV        -0.0073
     17 C35        17.6110  -38.4600   24.7250 C.3       1 CYV        -0.0584
     18 C34        18.6990  -36.2860   24.2000 C.3       1 CYV        -0.0584
     19 C30        17.3540  -39.0570   21.8210 C.2       1 CYV         0.1331
     20 O31        16.1320  -39.0630   21.8200 O.2       1 CYV        -0.3890
     21 C29        18.1480  -40.2640   21.3450 C.3       1 CYV         0.0442
     22 C22        17.3370  -41.5680   21.3190 C.3       1 CYV         0.0674
     23 C23        18.2420  -42.7650   21.0270 C.3       1 CYV        -0.0252
     24 C24        19.0970  -42.5740   19.7880 C.2       1 CYV        -0.1066
     25 C25        20.2090  -43.3070   19.5460 C.2       1 CYV        -0.0870
     26 C26        21.0060  -43.0590   18.3010 C.3       1 CYV        -0.0406
     27 C27        20.6990  -44.3810   20.4850 C.3       1 CYV        -0.0406
     28 C21        16.6400  -41.7690   22.6430 C.2       1 CYV         0.1828
     29 O28        17.2210  -41.5070   23.6910 O.2       1 CYV        -0.3965
     30 N20        15.3830  -42.2300   22.6310 N.am      1 CYV        -0.2831
     31 C12        14.6700  -42.4200   23.9000 C.3       1 CYV         0.0465
     32 C5         14.4150  -43.9070   24.1280 C.3       1 CYV        -0.0115
     33 C6         15.6640  -44.7910   24.1350 C.3       1 CYV         0.0508
     34 C7         15.3520  -46.1180   24.7990 C.2       1 CYV         0.2338
     35 O11        16.4340  -47.0280   25.1740 O.3       1 CYV        -0.2771
     36 C9         17.1900  -46.8370   26.3780 C.3       1 CYV         0.0740
     37 C10        16.3140  -46.9610   27.6120 C.3       1 CYV        -0.0371
     38 O8         14.1970  -46.4520   25.0390 O.2       1 CYV        -0.3704
     39 C19        13.4090  -41.5740   23.7740 C.3       1 CYV        -0.0099
     40 C13        13.2750  -40.2770   24.7040 C.3       1 CYV         0.0525
     41 C14        13.2600  -40.3100   26.2340 C.3       1 CYV        -0.0129
     42 C15        12.7780  -38.8660   26.6040 C.3       1 CYV         0.0332
     43 N16        11.8830  -38.5380   25.5150 N.am      1 CYV        -0.2866
     44 C17        12.0490  -39.3830   24.5700 C.2       1 CYV         0.1792
     45 O18        11.3090  -39.4520   23.6110 O.2       1 CYV        -0.3968
     46 H1         23.3128  -30.6854   20.7681 H         1 CYV         0.0260
     47 H2         21.7681  -29.7831   20.6065 H         1 CYV         0.0260
     48 H3         22.3417  -30.8295   19.2639 H         1 CYV         0.0260
     49 H4         22.4915  -31.7070   22.8899 H         1 CYV         0.0260
     50 H5         20.9029  -32.5447   22.9235 H         1 CYV         0.0260
     51 H6         20.9743  -30.7627   22.7084 H         1 CYV         0.0260
     52 H7         23.3065  -33.1459   21.0425 H         1 CYV         0.0260
     53 H8         22.3759  -33.2760   19.5116 H         1 CYV         0.0260
     54 H9         21.7572  -34.0541   21.0076 H         1 CYV         0.0260
     55 H10        19.6421  -33.8315   18.8167 H         1 CYV         0.1900
     56 H11        17.1976  -34.6761   20.1816 H         1 CYV         0.0823
     57 H12        17.5166  -34.6306   17.7026 H         1 CYV         0.0606
     58 H13        17.1139  -36.2752   18.3023 H         1 CYV         0.0606
     59 H14        18.8722  -36.2778   16.7857 H         1 CYV         0.2097
     60 H15        16.8627  -36.3432   21.3994 H         1 CYV         0.1884
     61 H16        19.1737  -38.0470   22.2583 H         1 CYV         0.0794
     62 H17        16.7227  -36.8697   23.6148 H         1 CYV         0.0343
     63 H18        17.3362  -38.0346   25.7015 H         1 CYV         0.0235
     64 H19        18.5808  -38.9724   24.8081 H         1 CYV         0.0235
     65 H20        16.8418  -39.1801   24.4092 H         1 CYV         0.0235
     66 H21        18.7795  -35.4743   23.4619 H         1 CYV         0.0235
     67 H22        19.6867  -36.7475   24.3466 H         1 CYV         0.0235
     68 H23        18.3394  -35.8778   25.1561 H         1 CYV         0.0235
     69 H24        19.0060  -40.4026   22.0192 H         1 CYV         0.0524
     70 H25        18.5108  -40.0609   20.3266 H         1 CYV         0.0524
     71 H26        16.5793  -41.4958   20.5248 H         1 CYV         0.0578
     72 H27        17.6111  -43.6546   20.8837 H         1 CYV         0.0368
     73 H28        18.9058  -42.9213   21.8901 H         1 CYV         0.0368
     74 H29        18.8038  -41.8157   19.0634 H         1 CYV         0.0244
     75 H30        21.8672  -43.7429   18.2746 H         1 CYV         0.0375
     76 H31        21.3636  -42.0188   18.2957 H         1 CYV         0.0375
     77 H32        20.3722  -43.2334   17.4190 H         1 CYV         0.0375
     78 H33        20.0207  -44.4507   21.3482 H         1 CYV         0.0375
     79 H34        21.7114  -44.1292   20.8337 H         1 CYV         0.0375
     80 H35        20.7221  -45.3462   19.9580 H         1 CYV         0.0375
     81 H36        14.9331  -42.4433   21.7638 H         1 CYV         0.1854
     82 H37        15.2765  -42.0419   24.7362 H         1 CYV         0.0559
     83 H38        13.7502  -44.2644   23.3278 H         1 CYV         0.0313
     84 H39        13.9128  -44.0206   25.1001 H         1 CYV         0.0313
     85 H40        16.4665  -44.2845   24.6912 H         1 CYV         0.0519
     86 H41        15.9910  -44.9689   23.0999 H         1 CYV         0.0519
     87 H42        17.6425  -45.8346   26.3605 H         1 CYV         0.0610
     88 H43        17.9839  -47.5969   26.4257 H         1 CYV         0.0610
     89 H44        16.9263  -46.8090   28.5131 H         1 CYV         0.0255
     90 H45        15.8612  -47.9631   27.6411 H         1 CYV         0.0255
     91 H46        15.5199  -46.2007   27.5759 H         1 CYV         0.0255
     92 H47        12.5533  -42.2274   23.9995 H         1 CYV         0.0315
     93 H48        13.3461  -41.2349   22.7295 H         1 CYV         0.0315
     94 H49        14.1546  -39.6856   24.4097 H         1 CYV         0.0539
     95 H50        14.2643  -40.5083   26.6365 H         1 CYV         0.0312
     96 H51        12.5584  -41.0704   26.6077 H         1 CYV         0.0312
     97 H52        13.6242  -38.1645   26.6464 H         1 CYV         0.0521
     98 H53        12.2480  -38.8600   27.5679 H         1 CYV         0.0521
     99 H54        11.2385  -37.7735   25.5035 H         1 CYV         0.1851
@<TRIPOS>BOND
     1    1    2 2  
     2    2    3 1  
     3    2    8 am 
     4    3    4 1  
     5    4    5 1  
     6    4    6 1  
     7    4    7 1  
     8    8    9 1  
     9    9   10 1  
    10    9   12 1  
    11   10   11 1  
    12   12   13 2  
    13   12   14 am 
    14   14   15 1  
    15   15   16 1  
    16   15   19 1  
    17   16   17 1  
    18   16   18 1  
    19   19   20 2  
    20   19   21 1  
    21   21   22 1  
    22   22   23 1  
    23   22   28 1  
    24   23   24 1  
    25   24   25 2  
    26   25   26 1  
    27   25   27 1  
    28   28   29 2  
    29   28   30 am 
    30   30   31 1  
    31   31   32 1  
    32   31   39 1  
    33   32   33 1  
    34   33   34 1  
    35   34   35 1  
    36   34   38 2  
    37   35   36 1  
    38   36   37 1  
    39   39   40 1  
    40   40   41 1  
    41   40   44 1  
    42   41   42 1  
    43   42   43 1  
    44   43   44 am 
    45   44   45 2  
    46    5   46 1  
    47    5   47 1  
    48    5   48 1  
    49    6   49 1  
    50    6   50 1  
    51    6   51 1  
    52    7   52 1  
    53    7   53 1  
    54    7   54 1  
    55    8   55 1  
    56    9   56 1  
    57   10   57 1  
    58   10   58 1  
    59   11   59 1  
    60   14   60 1  
    61   15   61 1  
    62   16   62 1  
    63   17   63 1  
    64   17   64 1  
    65   17   65 1  
    66   18   66 1  
    67   18   67 1  
    68   18   68 1  
    69   21   69 1  
    70   21   70 1  
    71   22   71 1  
    72   23   72 1  
    73   23   73 1  
    74   24   74 1  
    75   26   75 1  
    76   26   76 1  
    77   26   77 1  
    78   27   78 1  
    79   27   79 1  
    80   27   80 1  
    81   30   81 1  
    82   31   82 1  
    83   32   83 1  
    84   32   84 1  
    85   33   85 1  
    86   33   86 1  
    87   36   87 1  
    88   36   88 1  
    89   37   89 1  
    90   37   90 1  
    91   37   91 1  
    92   39   92 1  
    93   39   93 1  
    94   40   94 1  
    95   41   95 1  
    96   41   96 1  
    97   42   97 1  
    98   42   98 1  
    99   43   99 1  
@<TRIPOS>SUBSTRUCTURE
     1 CYV         1

