### 
### Created by X-TOOL on Mon Sep 10 21:12:55 2018
### 

@<TRIPOS>MOLECULE
2qju_ligand
   43    45     1     0     0
SMALL
GAST_HUCK


@<TRIPOS>ATOM
      1 C18        17.7390  -15.3290  -26.0670 C.3       1 DSM        -0.0449
      2 N2         16.4430  -14.5350  -25.9120 N.4       1 DSM         0.2248
      3 C17        15.7990  -13.7810  -24.7460 C.3       1 DSM        -0.0318
      4 C16        15.9540  -12.2340  -25.0660 C.3       1 DSM         0.0106
      5 C15        15.4550  -11.0860  -24.1950 C.3       1 DSM         0.0470
      6 N1         16.2700  -10.6330  -23.0100 N.pl3     1 DSM        -0.2667
      7 C14        15.8780   -9.5300  -22.1190 C.ar      1 DSM         0.0618
      8 C1         15.5080   -8.2760  -22.7010 C.ar      1 DSM        -0.0464
      9 C2         15.1210   -7.1410  -21.9360 C.ar      1 DSM        -0.0795
     10 C3         15.1100   -7.1420  -20.5390 C.ar      1 DSM        -0.0811
     11 C4         15.5030   -8.4530  -19.9130 C.ar      1 DSM        -0.0704
     12 C13        15.8850   -9.5540  -20.6610 C.ar      1 DSM        -0.0185
     13 C5         16.2050  -10.7030  -19.7490 C.3       1 DSM        -0.0138
     14 C6         16.5990  -12.0140  -20.4100 C.3       1 DSM        -0.0138
     15 C12        17.7620  -11.8620  -21.3850 C.ar      1 DSM        -0.0185
     16 C11        17.5260  -11.1940  -22.6040 C.ar      1 DSM         0.0618
     17 C7         19.0150  -12.3730  -21.0740 C.ar      1 DSM        -0.0704
     18 C8         20.2000  -12.2440  -22.0350 C.ar      1 DSM        -0.0811
     19 C9         19.9460  -11.5770  -23.2430 C.ar      1 DSM        -0.0795
     20 C10        18.6370  -11.0950  -23.4600 C.ar      1 DSM        -0.0464
     21 H1         17.8139  -15.7114  -27.0957 H         1 DSM         0.0777
     22 H2         17.7388  -16.1727  -25.3613 H         1 DSM         0.0777
     23 H3         18.5975  -14.6745  -25.8558 H         1 DSM         0.0777
     24 H4         15.7334  -15.2014  -26.1736 H         1 DSM         0.2011
     25 H5         16.5203  -13.8285  -26.6268 H         1 DSM         0.2011
     26 H6         16.3124  -14.0272  -23.8049 H         1 DSM         0.0814
     27 H7         14.7348  -14.0468  -24.6636 H         1 DSM         0.0814
     28 H8         15.4651  -12.0904  -26.0409 H         1 DSM         0.0340
     29 H9         17.0363  -12.0678  -25.1705 H         1 DSM         0.0340
     30 H10        14.4699  -11.3854  -23.8078 H         1 DSM         0.0560
     31 H11        15.3400  -10.2131  -24.8544 H         1 DSM         0.0560
     32 H12        15.5235   -8.1865  -23.7812 H         1 DSM         0.0506
     33 H13        14.8226   -6.2390  -22.4579 H         1 DSM         0.0528
     34 H14        14.8405   -6.2701  -19.9540 H         1 DSM         0.0494
     35 H15        15.4864   -8.5389  -18.8325 H         1 DSM         0.0521
     36 H16        15.3151  -10.8959  -19.1319 H         1 DSM         0.0421
     37 H17        17.0391  -10.3925  -19.1027 H         1 DSM         0.0421
     38 H18        15.7298  -12.4052  -20.9590 H         1 DSM         0.0421
     39 H19        16.8896  -12.7288  -19.6260 H         1 DSM         0.0421
     40 H20        19.1582  -12.8770  -20.1250 H         1 DSM         0.0521
     41 H21        21.1784  -12.6447  -21.7959 H         1 DSM         0.0494
     42 H22        20.7262  -11.4370  -23.9824 H         1 DSM         0.0528
     43 H23        18.4677  -10.5862  -24.4021 H         1 DSM         0.0506
@<TRIPOS>BOND
     1    1    2 1  
     2    2    3 1  
     3    3    4 1  
     4    4    5 1  
     5    5    6 1  
     6    6    7 1  
     7    6   16 1  
     8    7    8 ar 
     9    7   12 ar 
    10    8    9 ar 
    11    9   10 ar 
    12   10   11 ar 
    13   11   12 ar 
    14   12   13 1  
    15   13   14 1  
    16   14   15 1  
    17   15   16 ar 
    18   15   17 ar 
    19   16   20 ar 
    20   17   18 ar 
    21   18   19 ar 
    22   19   20 ar 
    23    1   21 1  
    24    1   22 1  
    25    1   23 1  
    26    2   24 1  
    27    2   25 1  
    28    3   26 1  
    29    3   27 1  
    30    4   28 1  
    31    4   29 1  
    32    5   30 1  
    33    5   31 1  
    34    8   32 1  
    35    9   33 1  
    36   10   34 1  
    37   11   35 1  
    38   13   36 1  
    39   13   37 1  
    40   14   38 1  
    41   14   39 1  
    42   17   40 1  
    43   18   41 1  
    44   19   42 1  
    45   20   43 1  
@<TRIPOS>SUBSTRUCTURE
     1 DSM         1

