### 
### Created by X-TOOL on Mon Sep 10 21:12:57 2018
### 

@<TRIPOS>MOLECULE
2qk5_ligand
   84    86     1     0     0
SMALL
GAST_HUCK


@<TRIPOS>ATOM
      1 C1         26.9150   15.4620   24.4970 C.ar      1 CS5        -0.0367
      2 C2         25.6110   15.8600   24.9200 C.ar      1 CS5        -0.0353
      3 C3         24.4840   15.0350   24.6320 C.ar      1 CS5        -0.0367
      4 C4         24.6710   13.8020   23.9250 C.ar      1 CS5         0.0488
      5 C5         25.9790   13.4070   23.5030 C.ar      1 CS5        -0.0289
      6 C6         27.1110   14.2370   23.7870 C.ar      1 CS5         0.0490
      7 C7         28.4740   13.8300   23.3630 C.2       1 CS5         0.2069
      8 N1         28.7080   13.6750   22.0170 N.am      1 CS5        -0.2724
      9 O1         29.3720   13.6250   24.1820 O.2       1 CS5        -0.3844
     10 C8         27.7180   13.9020   20.9730 C.3       1 CS5         0.0331
     11 C9         28.3010   14.8590   19.9510 C.3       1 CS5        -0.0354
     12 C10        28.7320   16.1720   20.6070 C.3       1 CS5        -0.0634
     13 C11        30.0500   13.2700   21.6190 C.3       1 CS5         0.0331
     14 C12        30.1130   11.7900   21.2340 C.3       1 CS5        -0.0354
     15 C13        29.1400   10.9140   22.0110 C.3       1 CS5        -0.0634
     16 C14        23.5220   12.9470   23.6180 C.2       1 CS5         0.2049
     17 N2         23.8100   11.6300   23.4600 N.am      1 CS5        -0.2784
     18 O2         22.3790   13.3760   23.5090 O.2       1 CS5        -0.3846
     19 C15        22.6700   10.7540   23.1400 C.3       1 CS5         0.0817
     20 C16        22.1840    9.9440   24.3660 C.3       1 CS5         0.1192
     21 C17        23.0250    9.8320   21.9700 C.3       1 CS5         0.0048
     22 O3         21.2070    9.0010   23.9100 O.3       1 CS5        -0.3841
     23 C18        21.5440   10.8710   25.4290 C.3       1 CS5        -0.0033
     24 N3         20.8420   10.0490   26.4420 N.4       1 CS5         0.2408
     25 C19        19.8880   10.8390   27.2550 C.3       1 CS5        -0.0023
     26 C20        18.7540   11.4310   26.4350 C.ar      1 CS5        -0.0075
     27 C21        23.6970   10.6320   20.8840 C.ar      1 CS5        -0.0445
     28 C22        25.0430   10.3520   20.5260 C.ar      1 CS5        -0.0310
     29 C23        25.6750   11.1110   19.4980 C.ar      1 CS5         0.1242
     30 C24        24.9640   12.1450   18.8310 C.ar      1 CS5        -0.0019
     31 C25        23.6180   12.4240   19.1910 C.ar      1 CS5         0.1242
     32 C26        22.9830   11.6680   20.2170 C.ar      1 CS5        -0.0310
     33 C27        18.4900   12.8340   26.4940 C.ar      1 CS5        -0.0664
     34 C28        17.4270   13.3950   25.7250 C.ar      1 CS5        -0.0770
     35 C29        16.6240   12.5550   24.8970 C.ar      1 CS5        -0.0401
     36 C30        16.8830   11.1530   24.8360 C.ar      1 CS5         0.0842
     37 C31        17.9510   10.5920   25.6080 C.ar      1 CS5        -0.0272
     38 O4         16.0900   10.3560   24.0230 O.3       1 CS5        -0.3230
     39 C32        16.2830    8.9680   24.2750 C.3       1 CS5         0.0592
     40 C33        25.4320   17.1280   25.6490 C.3       1 CS5        -0.0293
     41 F2         26.9410   10.8510   19.1590 F         1 CS5        -0.1863
     42 F1         22.9570   13.3980   18.5600 F         1 CS5        -0.1863
     43 H1         27.7663   16.0960   24.7167 H         1 CS5         0.0642
     44 H2         23.4918   15.3384   24.9458 H         1 CS5         0.0642
     45 H3         26.1143   12.4752   22.9658 H         1 CS5         0.0665
     46 H4         26.8093   14.3387   21.4130 H         1 CS5         0.0522
     47 H5         27.4677   12.9479   20.4862 H         1 CS5         0.0522
     48 H6         27.5411   15.0729   19.1850 H         1 CS5         0.0282
     49 H7         29.1763   14.3897   19.4781 H         1 CS5         0.0282
     50 H8         29.1497   16.8439   19.8427 H         1 CS5         0.0230
     51 H9         29.4958   15.9666   21.3715 H         1 CS5         0.0230
     52 H10        27.8605   16.6498   21.0784 H         1 CS5         0.0230
     53 H11        30.7381   13.4479   22.4586 H         1 CS5         0.0522
     54 H12        30.3617   13.8750   20.7549 H         1 CS5         0.0522
     55 H13        31.1339   11.4256   21.4210 H         1 CS5         0.0282
     56 H14        29.8820   11.6997   20.1623 H         1 CS5         0.0282
     57 H15        29.2430    9.8697   21.6811 H         1 CS5         0.0230
     58 H16        28.1110   11.2567   21.8273 H         1 CS5         0.0230
     59 H17        29.3629   10.9826   23.0860 H         1 CS5         0.0230
     60 H18        24.7403   11.2758   23.5551 H         1 CS5         0.1851
     61 H19        21.8367   11.3970   22.8205 H         1 CS5         0.0606
     62 H20        23.0355    9.4120   24.8154 H         1 CS5         0.0672
     63 H21        22.1071    9.3739   21.5729 H         1 CS5         0.0448
     64 H22        23.7072    9.0429   22.3192 H         1 CS5         0.0448
     65 H23        21.6021    8.4226   23.2683 H         1 CS5         0.2101
     66 H24        20.8248   11.5458   24.9419 H         1 CS5         0.0840
     67 H25        22.3299   11.4645   25.9190 H         1 CS5         0.0840
     68 H26        21.5277    9.6390   27.0567 H         1 CS5         0.2029
     69 H27        20.3346    9.3176   25.9691 H         1 CS5         0.2029
     70 H28        20.4366   11.6608   27.7383 H         1 CS5         0.0978
     71 H29        19.4573   10.1826   28.0255 H         1 CS5         0.0978
     72 H30        25.5877    9.5637   21.0329 H         1 CS5         0.0508
     73 H31        25.4474   12.7197   18.0493 H         1 CS5         0.0532
     74 H32        21.9559   11.8811   20.4904 H         1 CS5         0.0508
     75 H33        19.0981   13.4731   27.1239 H         1 CS5         0.0466
     76 H34        17.2294   14.4599   25.7699 H         1 CS5         0.0572
     77 H35        15.8164   12.9823   24.3137 H         1 CS5         0.0486
     78 H36        18.1492    9.5272   25.5634 H         1 CS5         0.0480
     79 H37        15.6347    8.3807   23.6081 H         1 CS5         0.0577
     80 H38        16.0287    8.7466   25.3220 H         1 CS5         0.0577
     81 H39        17.3347    8.7044   24.0895 H         1 CS5         0.0577
     82 H40        26.4080   17.6195   25.7749 H         1 CS5         0.0391
     83 H41        24.9940   16.9242   26.6372 H         1 CS5         0.0391
     84 H42        24.7605   17.7870   25.0791 H         1 CS5         0.0391
@<TRIPOS>BOND
     1    1    2 ar 
     2    1    6 ar 
     3    2    3 ar 
     4    2   40 1  
     5    3    4 ar 
     6    4    5 ar 
     7    4   16 1  
     8    5    6 ar 
     9    6    7 1  
    10    7    8 am 
    11    7    9 2  
    12    8   10 1  
    13    8   13 1  
    14   10   11 1  
    15   11   12 1  
    16   13   14 1  
    17   14   15 1  
    18   16   17 am 
    19   16   18 2  
    20   17   19 1  
    21   19   20 1  
    22   19   21 1  
    23   20   22 1  
    24   20   23 1  
    25   21   27 1  
    26   23   24 1  
    27   24   25 1  
    28   25   26 1  
    29   26   33 ar 
    30   26   37 ar 
    31   27   28 ar 
    32   27   32 ar 
    33   28   29 ar 
    34   29   30 ar 
    35   29   41 1  
    36   30   31 ar 
    37   31   32 ar 
    38   31   42 1  
    39   33   34 ar 
    40   34   35 ar 
    41   35   36 ar 
    42   36   37 ar 
    43   36   38 1  
    44   38   39 1  
    45    1   43 1  
    46    3   44 1  
    47    5   45 1  
    48   10   46 1  
    49   10   47 1  
    50   11   48 1  
    51   11   49 1  
    52   12   50 1  
    53   12   51 1  
    54   12   52 1  
    55   13   53 1  
    56   13   54 1  
    57   14   55 1  
    58   14   56 1  
    59   15   57 1  
    60   15   58 1  
    61   15   59 1  
    62   17   60 1  
    63   19   61 1  
    64   20   62 1  
    65   21   63 1  
    66   21   64 1  
    67   22   65 1  
    68   23   66 1  
    69   23   67 1  
    70   24   68 1  
    71   24   69 1  
    72   25   70 1  
    73   25   71 1  
    74   28   72 1  
    75   30   73 1  
    76   32   74 1  
    77   33   75 1  
    78   34   76 1  
    79   35   77 1  
    80   37   78 1  
    81   39   79 1  
    82   39   80 1  
    83   39   81 1  
    84   40   82 1  
    85   40   83 1  
    86   40   84 1  
@<TRIPOS>SUBSTRUCTURE
     1 CS5         1

