### 
### Created by X-TOOL on Mon Sep 10 21:12:56 2018
### 

@<TRIPOS>MOLECULE
2qk8_ligand
   53    55     1     0     0
SMALL
GAST_HUCK


@<TRIPOS>ATOM
      1 N1         -3.4950   -6.0660   17.3120 N.ar      1 MTX        -0.2668
      2 C2         -3.9620   -7.3240   17.2380 C.ar      1 MTX         0.1670
      3 NA2        -3.3580   -8.2450   17.9380 N.pl3     1 MTX        -0.3051
      4 N3         -5.0490   -7.6650   16.4730 N.ar      1 MTX        -0.2298
      5 C4         -5.6860   -6.7350   15.6940 C.ar      1 MTX         0.1540
      6 NA4        -6.8490   -7.1010   15.1010 N.pl3     1 MTX        -0.3052
      7 C4A        -5.2220   -5.4150   15.7580 C.ar      1 MTX         0.1326
      8 N5         -5.8280   -4.3980   15.0450 N.ar      1 MTX        -0.2616
      9 C6         -5.3590   -3.0800   15.1250 C.ar      1 MTX         0.0826
     10 C7         -4.2700   -2.7840   15.9430 C.ar      1 MTX         0.0478
     11 N8         -3.6560   -3.7940   16.6750 N.ar      1 MTX        -0.2649
     12 C8A        -4.1270   -5.1020   16.5750 C.ar      1 MTX         0.1183
     13 C9         -6.0040   -1.9700   14.3580 C.3       1 MTX         0.0825
     14 N10        -5.1340   -0.7800   14.2830 N.pl3     1 MTX        -0.2945
     15 CM         -5.7960    0.5140   14.4610 C.3       1 MTX         0.0191
     16 C11        -1.5200   -0.7860   12.0370 C.ar      1 MTX         0.0362
     17 C12        -2.1210    0.4330   12.3890 C.ar      1 MTX        -0.0535
     18 C13        -3.2910    0.4300   13.1380 C.ar      1 MTX        -0.0379
     19 C14        -3.8980   -0.7880   13.5240 C.ar      1 MTX         0.0476
     20 C15        -3.2750   -1.9910   13.1500 C.ar      1 MTX        -0.0379
     21 C16        -2.1010   -1.9440   12.3790 C.ar      1 MTX        -0.0535
     22 C          -0.2260   -0.8310   11.2560 C.2       1 MTX         0.1968
     23 O           0.2670    0.3340   10.6240 O.2       1 MTX        -0.3908
     24 N           0.4100   -2.0050   11.2380 N.am      1 MTX        -0.2725
     25 CA          1.6370   -2.3060   10.5340 C.3       1 MTX         0.0951
     26 CT          1.4110   -3.5310    9.6540 C.2       1 MTX         0.0601
     27 O1          0.7450   -4.5220   10.0970 O.co2     1 MTX        -0.5666
     28 O2          1.8640   -3.5820    8.4630 O.co2     1 MTX        -0.5666
     29 CB          2.6880   -2.6170   11.6120 C.3       1 MTX        -0.0064
     30 CG          3.9900   -1.7870   11.6650 C.3       1 MTX         0.0038
     31 CD          3.7200   -0.3130   11.4530 C.2       1 MTX         0.0350
     32 OE1         4.0660    0.2550   10.3760 O.co2     1 MTX        -0.5690
     33 OE2         3.1430    0.3670   12.3370 O.co2     1 MTX        -0.5690
     34 H1         -2.5412   -8.0000   18.5156 H         1 MTX         0.1844
     35 H2         -3.6981   -9.2169   17.9128 H         1 MTX         0.1844
     36 H3         -7.3579   -6.4303   14.5077 H         1 MTX         0.1886
     37 H4         -7.2236   -8.0498   15.2438 H         1 MTX         0.1886
     38 H5         -3.9019   -1.7665   16.0084 H         1 MTX         0.0952
     39 H6         -6.9449   -1.6927   14.8557 H         1 MTX         0.0719
     40 H7         -6.2183   -2.3196   13.3373 H         1 MTX         0.0719
     41 H8         -5.0515    1.3202   14.3852 H         1 MTX         0.0482
     42 H9         -6.2739    0.5483   15.4511 H         1 MTX         0.0482
     43 H10        -6.5598    0.6456   13.6804 H         1 MTX         0.0482
     44 H11        -1.6748    1.3708   12.0782 H         1 MTX         0.0636
     45 H12        -3.7435    1.3709   13.4297 H         1 MTX         0.0530
     46 H13        -3.6949   -2.9435   13.4525 H         1 MTX         0.0530
     47 H14        -1.6512   -2.8740   12.0506 H         1 MTX         0.0636
     48 H15        -0.0027   -2.7494   11.7630 H         1 MTX         0.1864
     49 H16         1.9552   -1.4517    9.9184 H         1 MTX         0.0726
     50 H17         2.9835   -3.6680   11.4774 H         1 MTX         0.0323
     51 H18         2.1922   -2.4974   12.5866 H         1 MTX         0.0323
     52 H19         4.6718   -2.1418   10.8781 H         1 MTX         0.0432
     53 H20         4.4619   -1.9255   12.6489 H         1 MTX         0.0432
@<TRIPOS>BOND
     1    1    2 ar 
     2   12    1 ar 
     3    2    3 1  
     4    4    2 ar 
     5    5    4 ar 
     6    5    6 1  
     7    7    5 ar 
     8    8    7 ar 
     9    7   12 ar 
    10    9    8 ar 
    11    9   10 ar 
    12   13    9 1  
    13   10   11 ar 
    14   11   12 ar 
    15   14   13 1  
    16   14   15 1  
    17   19   14 1  
    18   17   16 ar 
    19   16   21 ar 
    20   16   22 1  
    21   18   17 ar 
    22   18   19 ar 
    23   19   20 ar 
    24   20   21 ar 
    25   22   23 2  
    26   22   24 am 
    27   24   25 1  
    28   25   26 1  
    29   25   29 1  
    30   26   27 ar 
    31   26   28 ar 
    32   29   30 1  
    33   30   31 1  
    34   31   32 ar 
    35   31   33 ar 
    36    3   34 1  
    37    3   35 1  
    38    6   36 1  
    39    6   37 1  
    40   10   38 1  
    41   13   39 1  
    42   13   40 1  
    43   15   41 1  
    44   15   42 1  
    45   15   43 1  
    46   17   44 1  
    47   18   45 1  
    48   20   46 1  
    49   21   47 1  
    50   24   48 1  
    51   25   49 1  
    52   29   50 1  
    53   29   51 1  
    54   30   52 1  
    55   30   53 1  
@<TRIPOS>SUBSTRUCTURE
     1 MTX         1

