### 
### Created by X-TOOL on Sun Sep  9 21:50:50 2018
### 

@<TRIPOS>MOLECULE
2qky_ligand
   56    57     1     0     0
SMALL
GAST_HUCK


@<TRIPOS>ATOM
      1 C1         12.3960  -12.9530    7.0110 C.3       1 NON         0.0967
      2 C2         12.8370  -11.6890    7.7730 C.3       1 NON         0.0093
      3 C3         13.5750  -12.2040    8.9670 C.3       1 NON         0.1236
      4 C4         12.9850  -13.5560    9.2720 C.3       1 NON         0.0659
      5 C5         11.4750  -15.1570    7.9750 C.2       1 NON         0.2246
      6 C6         11.3960  -16.0890    9.1800 C.3       1 NON         0.0569
      7 C7         13.4140  -13.3240    5.8540 C.3       1 NON         0.1862
      8 N1         12.2470  -13.9770    8.0790 N.am      1 NON        -0.2569
      9 N2         11.9760  -15.0840    4.6740 N.2       1 NON        -0.1668
     10 N3         12.2770  -16.1780    3.8770 N.2       1 NON        -0.1688
     11 N4         12.6780  -16.8180    9.3920 N.4       1 NON         0.2495
     12 C8         13.1080  -14.5330    5.0090 C.2       1 NON         0.2702
     13 C10        14.5040  -17.1990    3.0220 C.3       1 NON         0.0027
     14 F1         14.8710  -12.2940    8.6340 F         1 NON        -0.2433
     15 O1         10.8510  -15.4600    6.9750 O.2       1 NON        -0.3910
     16 O2         14.6990  -13.5980    6.4210 O.3       1 NON        -0.3616
     17 C9         13.5990  -16.2210    3.7740 C.2       1 NON         0.1988
     18 O3         14.1940  -15.2010    4.4730 O.3       1 NON        -0.1756
     19 C12        15.1630  -18.1860    4.0010 C.3       1 NON        -0.0826
     20 C14        15.5990  -16.4290    2.2710 C.3       1 NON        -0.0826
     21 C16        13.7000  -17.9990    1.9770 C.3       1 NON        -0.0826
     22 C11        12.7850  -18.3220    9.3060 C.3       1 NON         0.0078
     23 C13        14.0450  -18.7420   10.0700 C.3       1 NON        -0.0169
     24 C15        11.5360  -18.9900    9.9260 C.3       1 NON         0.0892
     25 C17        12.9280  -18.6890    7.8040 C.3       1 NON        -0.0169
     26 O4         10.4730  -19.0480    8.9930 O.3       1 NON        -0.3892
     27 H1         11.4154  -12.7802    6.5435 H         1 NON         0.0625
     28 H2         11.9626  -11.0978    8.0827 H         1 NON         0.0319
     29 H3         13.4959  -11.0690    7.1474 H         1 NON         0.0319
     30 H4         13.4536  -11.5314    9.8288 H         1 NON         0.0672
     31 H5         12.3040  -13.4861   10.1330 H         1 NON         0.0551
     32 H6         13.7856  -14.2765    9.4953 H         1 NON         0.0551
     33 H7         10.5920  -16.8210    9.0135 H         1 NON         0.1062
     34 H8         11.1705  -15.4944   10.0775 H         1 NON         0.1062
     35 H9         13.4796  -12.4509    5.1881 H         1 NON         0.0962
     36 H10        12.9913  -16.5684   10.3170 H         1 NON         0.2038
     37 H11        13.3230  -16.4529    8.7088 H         1 NON         0.2038
     38 H12        15.3337  -13.7128    5.7235 H         1 NON         0.2154
     39 H13        15.8087  -18.8799    3.4429 H         1 NON         0.0125
     40 H14        14.3833  -18.7548    4.5287 H         1 NON         0.0125
     41 H15        15.7683  -17.6290    4.7314 H         1 NON         0.0125
     42 H16        15.1338  -15.7213    1.5691 H         1 NON         0.0125
     43 H17        16.2290  -17.1377    1.7135 H         1 NON         0.0125
     44 H18        16.2189  -15.8761    2.9922 H         1 NON         0.0125
     45 H19        12.9035  -18.5651    2.4821 H         1 NON         0.0125
     46 H20        14.3706  -18.6967    1.4540 H         1 NON         0.0125
     47 H21        13.2523  -17.3058    1.2496 H         1 NON         0.0125
     48 H22        14.1526  -19.8359   10.0265 H         1 NON         0.0288
     49 H23        13.9608  -18.4233   11.1194 H         1 NON         0.0288
     50 H24        14.9262  -18.2685    9.6125 H         1 NON         0.0288
     51 H25        11.2141  -18.4071   10.8015 H         1 NON         0.0616
     52 H26        11.7940  -20.0120   10.2406 H         1 NON         0.0616
     53 H27        13.0090  -19.7810    7.6995 H         1 NON         0.0288
     54 H28        13.8315  -18.2135    7.3947 H         1 NON         0.0288
     55 H29        12.0448  -18.3326    7.2537 H         1 NON         0.0288
     56 H30        10.2436  -18.1672    8.7208 H         1 NON         0.2097
@<TRIPOS>BOND
     1    1    2 1  
     2    7    1 1  
     3    1    8 1  
     4    2    3 1  
     5    4    3 1  
     6    3   14 1  
     7    8    4 1  
     8    5    6 1  
     9    8    5 am 
    10    5   15 2  
    11    6   11 1  
    12   12    7 1  
    13    7   16 1  
    14    9   10 1  
    15    9   12 2  
    16   10   17 2  
    17   11   22 1  
    18   12   18 1  
    19   17   13 1  
    20   13   19 1  
    21   13   20 1  
    22   13   21 1  
    23   17   18 1  
    24   22   23 1  
    25   22   24 1  
    26   22   25 1  
    27   24   26 1  
    28    1   27 1  
    29    2   28 1  
    30    2   29 1  
    31    3   30 1  
    32    4   31 1  
    33    4   32 1  
    34    6   33 1  
    35    6   34 1  
    36    7   35 1  
    37   11   36 1  
    38   11   37 1  
    39   16   38 1  
    40   19   39 1  
    41   19   40 1  
    42   19   41 1  
    43   20   42 1  
    44   20   43 1  
    45   20   44 1  
    46   21   45 1  
    47   21   46 1  
    48   21   47 1  
    49   23   48 1  
    50   23   49 1  
    51   23   50 1  
    52   24   51 1  
    53   24   52 1  
    54   25   53 1  
    55   25   54 1  
    56   25   55 1  
    57   26   56 1  
@<TRIPOS>SUBSTRUCTURE
     1 NON         1

