### 
### Created by X-TOOL on Mon Sep 10 21:12:56 2018
### 

@<TRIPOS>MOLECULE
2QL5_LIGAND
   61    60     1     0     0
SMALL
GAST_HUCK


@<TRIPOS>ATOM
      1 N          47.5250  -11.6620   30.7800 N.4       1 ASP         0.2391
      2 CA         47.1790  -13.0850   30.8760 C.3       1 ASP         0.0764
      3 C          48.1380  -13.8090   31.8110 C.2       1 ASP         0.2284
      4 O          49.3010  -13.4170   31.9380 O.2       1 ASP        -0.3906
      5 CB         47.2860  -13.5950   29.4330 C.3       1 ASP         0.0607
      6 CG         46.2160  -13.0110   28.5090 C.2       1 ASP         0.0425
      7 OD1        45.0140  -13.0630   28.8560 O.co2     1 ASP        -0.5686
      8 OD2        46.5800  -12.5110   27.4240 O.co2     1 ASP        -0.5686
      9 N          47.6350  -14.8550   32.4660 N.am      1 MET        -0.2609
     10 CA         48.4090  -15.6540   33.4150 C.3       1 MET         0.1318
     11 C          48.5540  -17.0910   32.9120 C.2       1 MET         0.2039
     12 O          47.8960  -17.4840   31.9480 O.2       1 MET        -0.3944
     13 CB         47.7030  -15.6630   34.7700 C.3       1 MET        -0.0034
     14 CG         47.5420  -14.2930   35.4070 C.3       1 MET        -0.0024
     15 SD         49.0700  -13.7100   36.1710 S.3       1 MET        -0.1639
     16 CE         49.8820  -12.8740   34.7690 C.3       1 MET        -0.0181
     17 N          49.4100  -17.8710   33.5710 N.am      1 GLN        -0.2636
     18 CA         49.6200  -19.2640   33.1790 C.3       1 GLN         0.1330
     19 C          49.1440  -20.2490   34.2560 C.2       1 GLN         0.2042
     20 O          49.1350  -19.9270   35.4450 O.2       1 GLN        -0.3944
     21 CB         51.1000  -19.5240   32.8660 C.3       1 GLN         0.0045
     22 CG         51.6970  -18.6560   31.7550 C.3       1 GLN         0.0412
     23 CD         52.3150  -17.3650   32.2810 C.2       1 GLN         0.1737
     24 OE1        53.1510  -17.3940   33.1870 O.2       1 GLN        -0.3973
     25 NE2        51.9140  -16.2300   31.7120 N.am      1 GLN        -0.3009
     26 N          48.7540  -21.4480   33.8270 N.am      1 ASJ        -0.2634
     27 CA         48.2760  -22.4940   34.7270 C.3       1 ASJ         0.1241
     28 C          49.1180  -23.7350   34.6330 C.2       1 ASJ         0.1262
     29 O          49.8000  -23.9860   35.8610 O.2       1 ASJ        -0.3723
     30 CB         46.8420  -22.8960   34.3820 C.3       1 ASJ         0.0393
     31 CG         45.8170  -21.9440   34.9490 C.2       1 ASJ         0.0393
     32 OD1        44.7730  -21.7370   34.2970 O.co2     1 ASJ        -0.5688
     33 OD2        46.0520  -21.4010   36.0450 O.co2     1 ASJ        -0.5688
     34 H1         46.8800  -11.2007   30.1577 H         1 ASP         0.2016
     35 H2         48.4627  -11.5676   30.4223 H         1 ASP         0.2016
     36 H3         47.4699  -11.2404   31.6939 H         1 ASP         0.2016
     37 H4         46.1518  -13.2092   31.2495 H         1 ASP         0.1117
     38 H5         47.1824  -14.6901   29.4402 H         1 ASP         0.0512
     39 H6         48.2759  -13.3229   29.0380 H         1 ASP         0.0512
     40 H7         46.6812  -15.1058   32.3003 H         1 MET         0.1885
     41 H8         49.4086  -15.2091   33.5284 H         1 MET         0.0800
     42 H9         48.2858  -16.2945   35.4567 H         1 MET         0.0320
     43 H10        46.7019  -16.0975   34.6327 H         1 MET         0.0320
     44 H11        46.7603  -14.3512   36.1787 H         1 MET         0.0378
     45 H12        47.2383  -13.5753   34.6308 H         1 MET         0.0378
     46 H13        50.8471  -12.4609   35.0975 H         1 MET         0.0340
     47 H14        49.2389  -12.0589   34.4058 H         1 MET         0.0340
     48 H15        50.0500  -13.5978   33.9579 H         1 MET         0.0340
     49 H16        49.9177  -17.4972   34.3472 H         1 GLN         0.1883
     50 H17        49.0352  -19.4484   32.2658 H         1 GLN         0.0801
     51 H18        51.2040  -20.5774   32.5669 H         1 GLN         0.0337
     52 H19        51.6780  -19.3449   33.7846 H         1 GLN         0.0337
     53 H20        50.8991  -18.3989   31.0428 H         1 GLN         0.0504
     54 H21        52.4773  -19.2341   31.2384 H         1 GLN         0.0504
     55 H22        52.2892  -15.3560   32.0209 H         1 GLN         0.1814
     56 H23        51.2376  -16.2515   30.9757 H         1 GLN         0.1814
     57 H24        48.7900  -21.6403   32.8463 H         1 ASJ         0.1886
     58 H25        48.3100  -22.1102   35.7573 H         1 ASJ         0.0809
     59 H26        49.1973  -24.3603   33.7449 H         1 ASJ         0.1375
     60 H27        46.6511  -23.9006   34.7873 H         1 ASJ         0.0479
     61 H28        46.7359  -22.9159   33.2873 H         1 ASJ         0.0479
@<TRIPOS>BOND
     1    1    2 1  
     2    2    3 1  
     3    2    5 1  
     4    3    4 2  
     5    3    9 am 
     6    5    6 1  
     7    6    7 ar 
     8    6    8 ar 
     9    9   10 1  
    10   10   11 1  
    11   10   13 1  
    12   11   12 2  
    13   11   17 am 
    14   13   14 1  
    15   14   15 1  
    16   15   16 1  
    17   17   18 1  
    18   18   19 1  
    19   18   21 1  
    20   19   20 2  
    21   19   26 am 
    22   21   22 1  
    23   22   23 1  
    24   23   24 2  
    25   23   25 am 
    26   26   27 1  
    27   27   28 1  
    28   27   30 1  
    29   28   29 2  
    30   30   31 1  
    31   31   32 ar 
    32   31   33 ar 
    33    1   34 1  
    34    1   35 1  
    35    1   36 1  
    36    2   37 1  
    37    5   38 1  
    38    5   39 1  
    39    9   40 1  
    40   10   41 1  
    41   13   42 1  
    42   13   43 1  
    43   14   44 1  
    44   14   45 1  
    45   16   46 1  
    46   16   47 1  
    47   16   48 1  
    48   17   49 1  
    49   18   50 1  
    50   21   51 1  
    51   21   52 1  
    52   22   53 1  
    53   22   54 1  
    54   25   55 1  
    55   25   56 1  
    56   26   57 1  
    57   27   58 1  
    58   28   59 1  
    59   30   60 1  
    60   30   61 1  
@<TRIPOS>SUBSTRUCTURE
     1 ASP         1

