### 
### Created by X-TOOL on Mon Sep 10 21:12:55 2018
### 

@<TRIPOS>MOLECULE
2ql7_ligand
   63    63     1     0     0
SMALL
GAST_HUCK


@<TRIPOS>ATOM
      1 N         -57.8350   28.6660    0.0450 N.4       1 ILE         0.2381
      2 CA        -56.4110   28.3170   -0.0010 C.3       1 ILE         0.0676
      3 C         -56.1200   27.1230   -0.9110 C.2       1 ILE         0.2270
      4 O         -56.8550   26.1340   -0.9120 O.2       1 ILE        -0.3907
      5 CB        -55.9180   28.0170    1.4260 C.3       1 ILE         0.0164
      6 CG1       -54.3960   28.1060    1.4690 C.3       1 ILE        -0.0460
      7 CG2       -56.3680   26.6240    1.8630 C.3       1 ILE        -0.0551
      8 CD1       -53.8510   28.1300    2.8530 C.3       1 ILE        -0.0647
      9 N         -55.0400   27.2290   -1.6810 N.am      1 GLU        -0.2609
     10 CA        -54.6340   26.1820   -2.6130 C.3       1 GLU         0.1328
     11 C         -53.3820   25.4500   -2.1390 C.2       1 GLU         0.2065
     12 O         -52.5230   26.0350   -1.4820 O.2       1 GLU        -0.3942
     13 CB        -54.3740   26.7910   -3.9930 C.3       1 GLU        -0.0008
     14 CG        -55.6220   27.2720   -4.7130 C.3       1 GLU         0.0044
     15 CD        -55.3100   28.2350   -5.8470 C.2       1 GLU         0.0350
     16 OE1       -54.3950   27.9460   -6.6540 O.co2     1 GLU        -0.5690
     17 OE2       -55.9890   29.2830   -5.9350 O.co2     1 GLU        -0.5690
     18 N         -53.2720   24.1490   -2.4590 N.am      1 PRO        -0.2498
     19 CA        -52.1230   23.3170   -2.0750 C.3       1 PRO         0.1338
     20 C         -50.9780   23.3180   -3.1010 C.2       1 PRO         0.2042
     21 O         -51.1690   23.6910   -4.2590 O.2       1 PRO        -0.3944
     22 CB        -52.7470   21.9380   -1.9030 C.3       1 PRO        -0.0104
     23 CG        -53.7850   21.9260   -2.9810 C.3       1 PRO        -0.0281
     24 CD        -54.4060   23.3080   -2.8940 C.3       1 PRO         0.0369
     25 N         -49.7960   22.8870   -2.6620 N.am      1 ASJ        -0.2634
     26 CA        -48.6040   22.8350   -3.5090 C.3       1 ASJ         0.1241
     27 C         -47.9080   21.4870   -3.4680 C.2       1 ASJ         0.1262
     28 O         -48.0270   20.8300   -4.7270 O.2       1 ASJ        -0.3723
     29 CB        -47.5930   23.8910   -3.0690 C.3       1 ASJ         0.0393
     30 CG        -47.7310   25.1820   -3.8390 C.2       1 ASJ         0.0393
     31 OD1       -47.2380   26.2200   -3.3480 O.co2     1 ASJ        -0.5688
     32 OD2       -48.3330   25.1580   -4.9330 O.co2     1 ASJ        -0.5688
     33 H1        -58.1628   28.8635   -0.8875 H         1 ILE         0.2015
     34 H2        -57.9629   29.4801    0.6255 H         1 ILE         0.2015
     35 H3        -58.3579   27.8943    0.4286 H         1 ILE         0.2015
     36 H4        -55.8584   29.1845   -0.3910 H         1 ILE         0.1101
     37 H5        -56.3420   28.7619    2.1155 H         1 ILE         0.0378
     38 H6        -54.0846   29.0269    0.9543 H         1 ILE         0.0269
     39 H7        -53.9795   27.2337    0.9440 H         1 ILE         0.0269
     40 H8        -57.4660   26.5662    1.8299 H         1 ILE         0.0236
     41 H9        -56.0216   26.4318    2.8892 H         1 ILE         0.0236
     42 H10       -55.9406   25.8710    1.1846 H         1 ILE         0.0236
     43 H11       -52.7536   28.1946    2.8138 H         1 ILE         0.0230
     44 H12       -54.1456   27.2100    3.3791 H         1 ILE         0.0230
     45 H13       -54.2507   29.0032    3.3894 H         1 ILE         0.0230
     46 H14       -54.4849   28.0585   -1.6186 H         1 GLU         0.1885
     47 H15       -55.4537   25.4530   -2.6941 H         1 GLU         0.0801
     48 H16       -53.8881   26.0284   -4.6194 H         1 GLU         0.0330
     49 H17       -53.6969   27.6489   -3.8682 H         1 GLU         0.0330
     50 H18       -56.2726   27.7818   -3.9873 H         1 GLU         0.0433
     51 H19       -56.1479   26.3992   -5.1271 H         1 GLU         0.0433
     52 H20       -51.7156   23.6683   -1.1155 H         1 PRO         0.0802
     53 H21       -53.2034   21.8277   -0.9083 H         1 PRO         0.0313
     54 H22       -52.0037   21.1417   -2.0558 H         1 PRO         0.0313
     55 H23       -54.5368   21.1452   -2.7936 H         1 PRO         0.0287
     56 H24       -53.3253   21.7634   -3.9670 H         1 PRO         0.0287
     57 H25       -54.7879   23.6332   -3.8730 H         1 PRO         0.0524
     58 H26       -55.2217   23.3302   -2.1564 H         1 PRO         0.0524
     59 H27       -49.7202   22.5857   -1.7115 H         1 ASJ         0.1886
     60 H28       -48.9119   23.0400   -4.5449 H         1 ASJ         0.0809
     61 H29       -47.3913   21.0798   -2.6002 H         1 ASJ         0.1375
     62 H30       -46.5788   23.4945   -3.2247 H         1 ASJ         0.0479
     63 H31       -47.7448   24.1004   -1.9998 H         1 ASJ         0.0479
@<TRIPOS>BOND
     1    1    2 1  
     2    2    3 1  
     3    2    5 1  
     4    3    4 2  
     5    3    9 am 
     6    5    6 1  
     7    5    7 1  
     8    6    8 1  
     9    9   10 1  
    10   10   11 1  
    11   10   13 1  
    12   11   12 2  
    13   11   18 am 
    14   13   14 1  
    15   14   15 1  
    16   15   16 ar 
    17   15   17 ar 
    18   18   19 1  
    19   18   24 1  
    20   19   20 1  
    21   19   22 1  
    22   20   21 2  
    23   20   25 am 
    24   22   23 1  
    25   23   24 1  
    26   25   26 1  
    27   26   27 1  
    28   26   29 1  
    29   27   28 2  
    30   29   30 1  
    31   30   31 ar 
    32   30   32 ar 
    33    1   33 1  
    34    1   34 1  
    35    1   35 1  
    36    2   36 1  
    37    5   37 1  
    38    6   38 1  
    39    6   39 1  
    40    7   40 1  
    41    7   41 1  
    42    7   42 1  
    43    8   43 1  
    44    8   44 1  
    45    8   45 1  
    46    9   46 1  
    47   10   47 1  
    48   13   48 1  
    49   13   49 1  
    50   14   50 1  
    51   14   51 1  
    52   19   52 1  
    53   22   53 1  
    54   22   54 1  
    55   23   55 1  
    56   23   56 1  
    57   24   57 1  
    58   24   58 1  
    59   25   59 1  
    60   26   60 1  
    61   27   61 1  
    62   29   62 1  
    63   29   63 1  
@<TRIPOS>SUBSTRUCTURE
     1 ILE         1

