### 
### Created by X-TOOL on Mon Sep 10 21:12:55 2018
### 

@<TRIPOS>MOLECULE
2ql9_ligand
   61    60     1     0     0
SMALL
GAST_HUCK


@<TRIPOS>ATOM
      1 N         -57.0810   28.7610    0.5160 N.4       1 ASP         0.2391
      2 CA        -55.6930   28.2940    0.3850 C.3       1 ASP         0.0764
      3 C         -55.5730   27.0860   -0.5360 C.2       1 ASP         0.2284
      4 O         -56.5030   26.2870   -0.6440 O.2       1 ASP        -0.3906
      5 CB        -55.2870   27.9510    1.8190 C.3       1 ASP         0.0607
      6 CG        -55.2470   29.1660    2.7220 C.2       1 ASP         0.0425
      7 OD1       -54.5940   30.1610    2.3450 O.co2     1 ASP        -0.5686
      8 OD2       -55.8560   29.1240    3.8130 O.co2     1 ASP        -0.5686
      9 N         -54.4300   26.9660   -1.2030 N.am      1 GLN        -0.2608
     10 CA        -54.1830   25.8580   -2.1140 C.3       1 GLN         0.1331
     11 C         -52.9520   25.0810   -1.6610 C.2       1 GLN         0.2040
     12 O         -52.1140   25.6080   -0.9250 O.2       1 GLN        -0.3944
     13 CB        -53.9570   26.3810   -3.5340 C.3       1 GLN         0.0045
     14 CG        -55.0800   27.2470   -4.0670 C.3       1 GLN         0.0412
     15 CD        -54.8770   27.6230   -5.5220 C.2       1 GLN         0.1737
     16 OE1       -53.8800   28.2570   -5.8850 O.2       1 GLN        -0.3973
     17 NE2       -55.8240   27.2280   -6.3690 N.am      1 GLN        -0.3009
     18 N         -52.8430   23.8310   -2.1060 N.am      1 MET        -0.2637
     19 CA        -51.7080   22.9930   -1.7420 C.3       1 MET         0.1317
     20 C         -50.6510   22.9490   -2.8410 C.2       1 MET         0.2041
     21 O         -50.9650   23.0830   -4.0260 O.2       1 MET        -0.3944
     22 CB        -52.1710   21.5680   -1.4330 C.3       1 MET        -0.0034
     23 CG        -53.0690   21.4510   -0.2160 C.3       1 MET        -0.0024
     24 SD        -54.6770   20.7520   -0.6270 S.3       1 MET        -0.1639
     25 CE        -55.6220   22.2370   -0.9090 C.3       1 MET        -0.0181
     26 N         -49.3990   22.7590   -2.4270 N.am      1 ASJ        -0.2634
     27 CA        -48.2560   22.6740   -3.3300 C.3       1 ASJ         0.1241
     28 C         -47.6120   21.3080   -3.2650 C.2       1 ASJ         0.1262
     29 O         -47.7660   20.6080   -4.4900 O.2       1 ASJ        -0.3723
     30 CB        -47.1810   23.6890   -2.9420 C.3       1 ASJ         0.0393
     31 CG        -47.3610   25.0230   -3.6220 C.2       1 ASJ         0.0393
     32 OD1       -46.9420   26.0390   -3.0280 O.co2     1 ASJ        -0.5688
     33 OD2       -47.9140   25.0590   -4.7430 O.co2     1 ASJ        -0.5688
     34 H1        -57.1105   29.5582    1.1321 H         1 ASP         0.2016
     35 H2        -57.6500   28.0211    0.8965 H         1 ASP         0.2016
     36 H3        -57.4341   29.0240   -0.3908 H         1 ASP         0.2016
     37 H4        -55.0574   29.1006   -0.0090 H         1 ASP         0.1117
     38 H5        -54.2872   27.4926    1.8015 H         1 ASP         0.0512
     39 H6        -56.0127   27.2326    2.2279 H         1 ASP         0.0512
     40 H7        -53.7187   27.6572   -1.0753 H         1 GLN         0.1885
     41 H8        -55.0558   25.1886   -2.1105 H         1 GLN         0.0801
     42 H9        -53.8407   25.5169   -4.2047 H         1 GLN         0.0337
     43 H10       -53.0318   26.9759   -3.5386 H         1 GLN         0.0337
     44 H11       -55.1313   28.1680   -3.4677 H         1 GLN         0.0504
     45 H12       -56.0270   26.6953   -3.9732 H         1 GLN         0.0504
     46 H13       -55.7470   27.4456   -7.3420 H         1 GLN         0.1814
     47 H14       -56.6128   26.7135   -6.0326 H         1 GLN         0.1814
     48 H15       -53.5547   23.4596   -2.7023 H         1 MET         0.1883
     49 H16       -51.2480   23.4168   -0.8371 H         1 MET         0.0800
     50 H17       -51.2798   20.9457   -1.2640 H         1 MET         0.0320
     51 H18       -52.7230   21.1888   -2.3056 H         1 MET         0.0320
     52 H19       -53.2169   22.4528    0.2136 H         1 MET         0.0378
     53 H20       -52.5793   20.8026    0.5255 H         1 MET         0.0378
     54 H21       -56.6547   21.9691   -1.1768 H         1 MET         0.0340
     55 H22       -55.1673   22.8106   -1.7301 H         1 MET         0.0340
     56 H23       -55.6272   22.8476    0.0059 H         1 MET         0.0340
     57 H24       -49.2338   22.6699   -1.4448 H         1 ASJ         0.1886
     58 H25       -48.5989   22.8720   -4.3562 H         1 ASJ         0.0809
     59 H26       -47.0965   20.9122   -2.3912 H         1 ASJ         0.1375
     60 H27       -46.1976   23.2827   -3.2209 H         1 ASJ         0.0479
     61 H28       -47.2192   23.8420   -1.8534 H         1 ASJ         0.0479
@<TRIPOS>BOND
     1    1    2 1  
     2    2    3 1  
     3    2    5 1  
     4    3    4 2  
     5    3    9 am 
     6    5    6 1  
     7    6    7 ar 
     8    6    8 ar 
     9    9   10 1  
    10   10   11 1  
    11   10   13 1  
    12   11   12 2  
    13   11   18 am 
    14   13   14 1  
    15   14   15 1  
    16   15   16 2  
    17   15   17 am 
    18   18   19 1  
    19   19   20 1  
    20   19   22 1  
    21   20   21 2  
    22   20   26 am 
    23   22   23 1  
    24   23   24 1  
    25   24   25 1  
    26   26   27 1  
    27   27   28 1  
    28   27   30 1  
    29   28   29 2  
    30   30   31 1  
    31   31   32 ar 
    32   31   33 ar 
    33    1   34 1  
    34    1   35 1  
    35    1   36 1  
    36    2   37 1  
    37    5   38 1  
    38    5   39 1  
    39    9   40 1  
    40   10   41 1  
    41   13   42 1  
    42   13   43 1  
    43   14   44 1  
    44   14   45 1  
    45   17   46 1  
    46   17   47 1  
    47   18   48 1  
    48   19   49 1  
    49   22   50 1  
    50   22   51 1  
    51   23   52 1  
    52   23   53 1  
    53   25   54 1  
    54   25   55 1  
    55   25   56 1  
    56   26   57 1  
    57   27   58 1  
    58   28   59 1  
    59   30   60 1  
    60   30   61 1  
@<TRIPOS>SUBSTRUCTURE
     1 ASP         1

