### 
### Created by X-TOOL on Mon Sep 10 21:12:55 2018
### 

@<TRIPOS>MOLECULE
2qlb_ligand
   58    57     1     0     0
SMALL
GAST_HUCK


@<TRIPOS>ATOM
      1 N         -34.2870   35.6270  -31.2990 N.4       1 GLU         0.2380
      2 CA        -35.3520   34.6600  -31.5980 C.3       1 GLU         0.0665
      3 C         -36.4830   35.1930  -32.4680 C.2       1 GLU         0.2269
      4 O         -36.7700   36.3910  -32.4660 O.2       1 GLU        -0.3907
      5 CB        -35.8590   34.2430  -30.2190 C.3       1 GLU         0.0194
      6 CG        -35.0850   33.1000  -29.5910 C.3       1 GLU         0.0075
      7 CD        -34.5790   33.4370  -28.2070 C.2       1 GLU         0.0351
      8 OE1       -34.0180   32.5370  -27.5440 O.co2     1 GLU        -0.5690
      9 OE2       -34.7380   34.6040  -27.7860 O.co2     1 GLU        -0.5690
     10 N         -37.1130   34.2870  -33.2140 N.am      1 SER        -0.2588
     11 CA        -38.2370   34.6280  -34.0810 C.3       1 SER         0.1540
     12 C         -39.4920   33.9120  -33.5780 C.2       1 SER         0.2062
     13 O         -39.4170   33.0770  -32.6760 O.2       1 SER        -0.3943
     14 CB        -37.9390   34.2430  -35.5350 C.3       1 SER         0.0843
     15 OG        -37.5270   32.8950  -35.6390 O.3       1 SER        -0.3903
     16 N         -40.6400   34.2340  -34.1650 N.am      1 MET        -0.2636
     17 CA        -41.9050   33.6470  -33.7370 C.3       1 MET         0.1317
     18 C         -42.5900   32.7550  -34.7700 C.2       1 MET         0.2041
     19 O         -42.4040   32.9250  -35.9780 O.2       1 MET        -0.3944
     20 CB        -42.8480   34.7710  -33.3090 C.3       1 MET        -0.0034
     21 CG        -42.2890   35.6050  -32.1670 C.3       1 MET        -0.0024
     22 SD        -42.8500   37.3140  -32.1990 S.3       1 MET        -0.1639
     23 CE        -41.5660   38.0640  -33.2050 C.3       1 MET        -0.0181
     24 N         -43.3900   31.8080  -34.2740 N.am      1 ASJ        -0.2634
     25 CA        -44.1230   30.8560  -35.1110 C.3       1 ASJ         0.1241
     26 C         -45.6270   31.0220  -35.0070 C.2       1 ASJ         0.1262
     27 O         -46.1940   31.4220  -36.2600 O.2       1 ASJ        -0.3723
     28 CB        -43.8030   29.4200  -34.6990 C.3       1 ASJ         0.0393
     29 CG        -42.5320   28.9050  -35.3190 C.2       1 ASJ         0.0393
     30 OD1       -41.9080   28.0050  -34.7170 O.co2     1 ASJ        -0.5688
     31 OD2       -42.1600   29.4010  -36.4050 O.co2     1 ASJ        -0.5688
     32 H1        -33.5869   35.1879  -30.7218 H         1 GLU         0.2015
     33 H2        -34.6781   36.4171  -30.8103 H         1 GLU         0.2015
     34 H3        -33.8653   35.9393  -32.1597 H         1 GLU         0.2015
     35 H4        -34.9156   33.7921  -32.1140 H         1 GLU         0.1099
     36 H5        -36.9104   33.9348  -30.3168 H         1 GLU         0.0363
     37 H6        -35.7927   35.1133  -29.5495 H         1 GLU         0.0363
     38 H7        -34.2243   32.8615  -30.2332 H         1 GLU         0.0434
     39 H8        -35.7450   32.2227  -29.5216 H         1 GLU         0.0434
     40 H9        -36.8041   33.3365  -33.1788 H         1 SER         0.1885
     41 H10       -38.4047   35.7141  -34.0346 H         1 SER         0.0823
     42 H11       -37.1388   34.8922  -35.9200 H         1 SER         0.0606
     43 H12       -38.8487   34.3862  -36.1365 H         1 SER         0.0606
     44 H13       -37.3506   32.6883  -36.5493 H         1 SER         0.2097
     45 H14       -40.6366   34.8934  -34.9168 H         1 MET         0.1883
     46 H15       -41.6937   33.0195  -32.8586 H         1 MET         0.0800
     47 H16       -43.8010   34.3267  -32.9861 H         1 MET         0.0320
     48 H17       -43.0243   35.4299  -34.1720 H         1 MET         0.0320
     49 H18       -41.1910   35.5960  -32.2320 H         1 MET         0.0378
     50 H19       -42.6038   35.1513  -31.2157 H         1 MET         0.0378
     51 H20       -41.7715   39.1384  -33.3205 H         1 MET         0.0340
     52 H21       -41.5495   37.5853  -34.1952 H         1 MET         0.0340
     53 H22       -40.5903   37.9279  -32.7156 H         1 MET         0.0340
     54 H23       -43.4938   31.7458  -33.2813 H         1 ASJ         0.1886
     55 H24       -43.8183   31.0117  -36.1564 H         1 ASJ         0.0809
     56 H25       -46.2019   30.8581  -34.0967 H         1 ASJ         0.1375
     57 H26       -44.6345   28.7711  -35.0114 H         1 ASJ         0.0479
     58 H27       -43.7002   29.3830  -33.6045 H         1 ASJ         0.0479
@<TRIPOS>BOND
     1    1    2 1  
     2    2    3 1  
     3    2    5 1  
     4    3    4 2  
     5    3   10 am 
     6    5    6 1  
     7    6    7 1  
     8    7    8 ar 
     9    7    9 ar 
    10   10   11 1  
    11   11   12 1  
    12   11   14 1  
    13   12   13 2  
    14   12   16 am 
    15   14   15 1  
    16   16   17 1  
    17   17   18 1  
    18   17   20 1  
    19   18   19 2  
    20   18   24 am 
    21   20   21 1  
    22   21   22 1  
    23   22   23 1  
    24   24   25 1  
    25   25   26 1  
    26   25   28 1  
    27   26   27 2  
    28   28   29 1  
    29   29   30 ar 
    30   29   31 ar 
    31    1   32 1  
    32    1   33 1  
    33    1   34 1  
    34    2   35 1  
    35    5   36 1  
    36    5   37 1  
    37    6   38 1  
    38    6   39 1  
    39   10   40 1  
    40   11   41 1  
    41   14   42 1  
    42   14   43 1  
    43   15   44 1  
    44   16   45 1  
    45   17   46 1  
    46   20   47 1  
    47   20   48 1  
    48   21   49 1  
    49   21   50 1  
    50   23   51 1  
    51   23   52 1  
    52   23   53 1  
    53   24   54 1  
    54   25   55 1  
    55   26   56 1  
    56   28   57 1  
    57   28   58 1  
@<TRIPOS>SUBSTRUCTURE
     1 GLU         1

