### 
### Created by X-TOOL on Mon Sep 10 21:12:55 2018
### 

@<TRIPOS>MOLECULE
2qlf_ligand
   60    59     1     0     0
SMALL
GAST_HUCK


@<TRIPOS>ATOM
      1 N         -47.6810   11.7670   30.8280 N.4       1 ASP         0.2391
      2 CA        -47.2950   13.1760   30.9770 C.3       1 ASP         0.0765
      3 C         -48.2020   13.9010   31.9720 C.2       1 ASP         0.2285
      4 O         -49.3380   13.4740   32.2130 O.2       1 ASP        -0.3906
      5 CB        -47.4220   13.7420   29.5570 C.3       1 ASP         0.0607
      6 CG        -46.3980   13.1540   28.5880 C.2       1 ASP         0.0425
      7 OD1       -45.1820   13.2570   28.8640 O.co2     1 ASP        -0.5686
      8 OD2       -46.8040   12.5980   27.5440 O.co2     1 ASP        -0.5686
      9 N         -47.6870   14.9870   32.5490 N.am      1 ASN        -0.2588
     10 CA        -48.4290   15.7870   33.5230 C.3       1 ASN         0.1477
     11 C         -48.7350   17.1640   32.9560 C.2       1 ASN         0.2063
     12 O         -48.2260   17.5320   31.9000 O.2       1 ASN        -0.3942
     13 CB        -47.6130   15.9490   34.8030 C.3       1 ASN         0.0773
     14 CG        -47.3310   14.6290   35.4880 C.2       1 ASN         0.1780
     15 OD1       -46.6180   14.5840   36.4900 O.2       1 ASN        -0.3970
     16 ND2       -47.8900   13.5460   34.9570 N.am      1 ASN        -0.3007
     17 N         -49.5650   17.9230   33.6650 N.am      1 LEU        -0.2636
     18 CA        -49.9300   19.2670   33.2310 C.3       1 LEU         0.1312
     19 C         -49.4230   20.3220   34.2200 C.2       1 LEU         0.2040
     20 O         -49.4770   20.1190   35.4370 O.2       1 LEU        -0.3944
     21 CB        -51.4480   19.3780   33.0820 C.3       1 LEU        -0.0101
     22 CG        -52.1330   18.4090   32.1130 C.3       1 LEU        -0.0425
     23 CD1       -53.6310   18.6620   32.1410 C.3       1 LEU        -0.0625
     24 CD2       -51.5950   18.5930   30.7060 C.3       1 LEU        -0.0625
     25 N         -48.9420   21.4470   33.6860 N.am      1 ASJ        -0.2634
     26 CA        -48.3990   22.5440   34.4910 C.3       1 ASJ         0.1241
     27 C         -49.2630   23.7960   34.4730 C.2       1 ASJ         0.1262
     28 O         -49.8620   24.0430   35.7460 O.2       1 ASJ        -0.3723
     29 CB        -47.0130   22.9360   33.9800 C.3       1 ASJ         0.0393
     30 CG        -45.8990   22.2330   34.7190 C.2       1 ASJ         0.0393
     31 OD1       -44.8230   22.0230   34.1170 O.co2     1 ASJ        -0.5688
     32 OD2       -46.1030   21.8910   35.9050 O.co2     1 ASJ        -0.5688
     33 H1        -47.0659   11.3182   30.1675 H         1 ASP         0.2016
     34 H2        -48.6304   11.7122   30.4938 H         1 ASP         0.2016
     35 H3        -47.6116   11.3034   31.7204 H         1 ASP         0.2016
     36 H4        -46.2546   13.2537   31.3257 H         1 ASP         0.1117
     37 H5        -47.2791   14.8318   29.5996 H         1 ASP         0.0512
     38 H6        -48.4307   13.5189   29.1793 H         1 ASP         0.0512
     39 H7        -46.7576   15.2653   32.3065 H         1 ASN         0.1886
     40 H8        -49.3739   15.2754   33.7586 H         1 ASN         0.0826
     41 H9        -48.1722   16.5932   35.4975 H         1 ASN         0.0551
     42 H10       -46.6545   16.4263   34.5511 H         1 ASN         0.0551
     43 H11       -47.7353   12.6492   35.3714 H         1 ASN         0.1814
     44 H12       -48.4652   13.6282   34.1431 H         1 ASN         0.1814
     45 H13       -49.9482   17.5640   34.5160 H         1 LEU         0.1883
     46 H14       -49.4654   19.4549   32.2518 H         1 LEU         0.0800
     47 H15       -51.6725   20.3995   32.7411 H         1 LEU         0.0315
     48 H16       -51.8900   19.2178   34.0765 H         1 LEU         0.0315
     49 H17       -51.9351   17.3764   32.4365 H         1 LEU         0.0298
     50 H18       -54.1326   17.9706   31.4479 H         1 LEU         0.0232
     51 H19       -53.8335   19.6990   31.8350 H         1 LEU         0.0232
     52 H20       -54.0114   18.4995   33.1603 H         1 LEU         0.0232
     53 H21       -50.5109   18.4069   30.7008 H         1 LEU         0.0232
     54 H22       -51.7921   19.6216   30.3696 H         1 LEU         0.0232
     55 H23       -52.0920   17.8838   30.0277 H         1 LEU         0.0232
     56 H24       -48.9528   21.5454   32.6909 H         1 ASJ         0.1886
     57 H25       -48.3150   22.1931   35.5301 H         1 ASJ         0.0809
     58 H26       -49.4071   24.4266   33.5970 H         1 ASJ         0.1375
     59 H27       -46.8866   24.0217   34.1031 H         1 ASJ         0.0479
     60 H28       -46.9453   22.6776   32.9129 H         1 ASJ         0.0479
@<TRIPOS>BOND
     1    1    2 1  
     2    2    3 1  
     3    2    5 1  
     4    3    4 2  
     5    3    9 am 
     6    5    6 1  
     7    6    7 ar 
     8    6    8 ar 
     9    9   10 1  
    10   10   11 1  
    11   10   13 1  
    12   11   12 2  
    13   11   17 am 
    14   13   14 1  
    15   14   15 2  
    16   14   16 am 
    17   17   18 1  
    18   18   19 1  
    19   18   21 1  
    20   19   20 2  
    21   19   25 am 
    22   21   22 1  
    23   22   23 1  
    24   22   24 1  
    25   25   26 1  
    26   26   27 1  
    27   26   29 1  
    28   27   28 2  
    29   29   30 1  
    30   30   31 ar 
    31   30   32 ar 
    32    1   33 1  
    33    1   34 1  
    34    1   35 1  
    35    2   36 1  
    36    5   37 1  
    37    5   38 1  
    38    9   39 1  
    39   10   40 1  
    40   13   41 1  
    41   13   42 1  
    42   16   43 1  
    43   16   44 1  
    44   17   45 1  
    45   18   46 1  
    46   21   47 1  
    47   21   48 1  
    48   22   49 1  
    49   23   50 1  
    50   23   51 1  
    51   23   52 1  
    52   24   53 1  
    53   24   54 1  
    54   24   55 1  
    55   25   56 1  
    56   26   57 1  
    57   27   58 1  
    58   29   59 1  
    59   29   60 1  
@<TRIPOS>SUBSTRUCTURE
     1 ASP         1

