### 
### Created by X-TOOL on Mon Sep 10 21:12:55 2018
### 

@<TRIPOS>MOLECULE
2qlj_ligand
   71    73     1     0     0
SMALL
GAST_HUCK


@<TRIPOS>ATOM
      1 N         -34.0400   35.0190  -31.9180 N.4       1 TRP         0.2388
      2 CA        -35.2830   34.5350  -31.3940 C.3       1 TRP         0.0691
      3 C         -36.4330   35.1350  -32.2950 C.2       1 TRP         0.2280
      4 O         -36.6870   36.3260  -32.2650 O.2       1 TRP        -0.3906
      5 CB        -35.5670   34.9220  -29.9180 C.3       1 TRP         0.0245
      6 CG        -34.8090   33.9980  -29.0010 C.2       1 TRP        -0.0386
      7 CD1       -35.1770   32.7220  -28.7100 C.2       1 TRP         0.0168
      8 CD2       -33.6150   34.2700  -28.2320 C.ar      1 TRP        -0.0213
      9 NE1       -34.3030   32.1870  -27.7890 N.pl3     1 TRP        -0.2890
     10 CE2       -33.3520   33.1060  -27.4800 C.ar      1 TRP         0.0603
     11 CE3       -32.7340   35.3540  -28.0420 C.ar      1 TRP        -0.0747
     12 CZ2       -32.2850   32.9990  -26.5820 C.ar      1 TRP        -0.0443
     13 CZ3       -31.6810   35.2420  -27.1620 C.ar      1 TRP        -0.0792
     14 CH2       -31.4650   34.0850  -26.4320 C.ar      1 TRP        -0.0768
     15 N         -37.1470   34.2960  -33.0930 N.am      1 GLU        -0.2608
     16 CA        -38.2640   34.7480  -33.9650 C.3       1 GLU         0.1326
     17 C         -39.5300   34.0790  -33.4500 C.2       1 GLU         0.2041
     18 O         -39.5350   33.5940  -32.3270 O.2       1 GLU        -0.3944
     19 CB        -38.0230   34.3030  -35.4120 C.3       1 GLU        -0.0008
     20 CG        -36.5600   34.3200  -35.8300 C.3       1 GLU         0.0044
     21 CD        -36.3530   33.8190  -37.2480 C.2       1 GLU         0.0350
     22 OE1       -35.1810   33.6540  -37.6590 O.co2     1 GLU        -0.5690
     23 OE2       -37.3640   33.5930  -37.9500 O.co2     1 GLU        -0.5690
     24 N         -40.5920   34.0320  -34.2500 N.am      1 HIS        -0.2625
     25 CA        -41.8140   33.3760  -33.7950 C.3       1 HIS         0.1369
     26 C         -42.5860   32.6540  -34.8990 C.2       1 HIS         0.2055
     27 O         -42.4080   32.9350  -36.0860 O.2       1 HIS        -0.3942
     28 CB        -42.7350   34.3780  -33.0780 C.3       1 HIS         0.0145
     29 CG        -43.1600   35.5360  -33.9280 C.2       1 HIS        -0.0027
     30 ND1       -42.3160   36.5790  -34.2440 N.2       1 HIS        -0.3252
     31 CD2       -44.3420   35.8130  -34.5280 C.2       1 HIS         0.0291
     32 CE1       -42.9600   37.4500  -35.0010 C.2       1 HIS         0.0907
     33 NE2       -44.1910   37.0090  -35.1890 N.pl3     1 HIS        -0.2752
     34 N         -43.4360   31.7130  -34.4880 N.am      1 ASJ        -0.2633
     35 CA        -44.2540   30.9250  -35.4090 C.3       1 ASJ         0.1241
     36 C         -45.7440   31.1880  -35.2250 C.2       1 ASJ         0.1262
     37 O         -46.2980   31.7960  -36.4070 O.2       1 ASJ        -0.3723
     38 CB        -44.0180   29.4240  -35.2040 C.3       1 ASJ         0.0393
     39 CG        -42.5820   29.0090  -35.4630 C.2       1 ASJ         0.0393
     40 OD1       -42.0580   28.1770  -34.6960 O.co2     1 ASJ        -0.5688
     41 OD2       -41.9780   29.5070  -36.4340 O.co2     1 ASJ        -0.5688
     42 H1        -33.2786   34.6557  -31.3663 H         1 TRP         0.2016
     43 H2        -34.0298   36.0263  -31.8825 H         1 TRP         0.2016
     44 H3        -33.9372   34.7154  -32.8737 H         1 TRP         0.2016
     45 H4        -35.2872   33.4375  -31.4678 H         1 TRP         0.1114
     46 H5        -36.6449   34.8346  -29.7171 H         1 TRP         0.0430
     47 H6        -35.2441   35.9587  -29.7423 H         1 TRP         0.0430
     48 H7        -36.0321   32.2021  -29.1394 H         1 TRP         0.0795
     49 H8        -34.3618   31.2369  -27.3956 H         1 TRP         0.2216
     50 H9        -32.8858   36.2771  -28.5896 H         1 TRP         0.0540
     51 H10       -32.1130   32.0862  -26.0232 H         1 TRP         0.0541
     52 H11       -31.0045   36.0798  -27.0375 H         1 TRP         0.0510
     53 H12       -30.6371   34.0388  -25.7338 H         1 TRP         0.0530
     54 H13       -36.9085   33.3249  -33.0934 H         1 GLU         0.1885
     55 H14       -38.3612   35.8428  -33.9218 H         1 GLU         0.0801
     56 H15       -38.5808   34.9772  -36.0786 H         1 GLU         0.0330
     57 H16       -38.4033   33.2772  -35.5262 H         1 GLU         0.0330
     58 H17       -35.9895   33.6781  -35.1426 H         1 GLU         0.0433
     59 H18       -36.1862   35.3524  -35.7629 H         1 GLU         0.0433
     60 H19       -40.5532   34.4447  -35.1600 H         1 HIS         0.1885
     61 H20       -41.5131   32.6138  -33.0612 H         1 HIS         0.0817
     62 H21       -42.2007   34.7715  -32.2007 H         1 HIS         0.0420
     63 H22       -43.6374   33.8425  -32.7480 H         1 HIS         0.0420
     64 H23       -45.2433   35.2027  -34.4934 H         1 HIS         0.0729
     65 H24       -42.5462   38.3742  -35.4017 H         1 HIS         0.1199
     66 H25       -44.9193   37.4840  -35.7411 H         1 HIS         0.2361
     67 H26       -43.5179   31.5383  -33.5068 H         1 ASJ         0.1886
     68 H27       -43.9705   31.1959  -36.4367 H         1 ASJ         0.0809
     69 H28       -46.3102   30.9496  -34.3258 H         1 ASJ         0.1375
     70 H29       -44.6727   28.8690  -35.8920 H         1 ASJ         0.0479
     71 H30       -44.2752   29.1673  -34.1658 H         1 ASJ         0.0479
@<TRIPOS>BOND
     1    1    2 1  
     2    2    3 1  
     3    2    5 1  
     4    3    4 2  
     5    3   15 am 
     6    5    6 1  
     7    6    7 2  
     8    6    8 1  
     9    7    9 1  
    10    8   10 ar 
    11    8   11 ar 
    12    9   10 1  
    13   10   12 ar 
    14   11   13 ar 
    15   12   14 ar 
    16   13   14 ar 
    17   15   16 1  
    18   16   17 1  
    19   16   19 1  
    20   17   18 2  
    21   17   24 am 
    22   19   20 1  
    23   20   21 1  
    24   21   22 ar 
    25   21   23 ar 
    26   24   25 1  
    27   25   26 1  
    28   25   28 1  
    29   26   27 2  
    30   26   34 am 
    31   28   29 1  
    32   29   30 1  
    33   29   31 2  
    34   30   32 2  
    35   31   33 1  
    36   32   33 1  
    37   34   35 1  
    38   35   36 1  
    39   35   38 1  
    40   36   37 2  
    41   38   39 1  
    42   39   40 ar 
    43   39   41 ar 
    44    1   42 1  
    45    1   43 1  
    46    1   44 1  
    47    2   45 1  
    48    5   46 1  
    49    5   47 1  
    50    7   48 1  
    51    9   49 1  
    52   11   50 1  
    53   12   51 1  
    54   13   52 1  
    55   14   53 1  
    56   15   54 1  
    57   16   55 1  
    58   19   56 1  
    59   19   57 1  
    60   20   58 1  
    61   20   59 1  
    62   24   60 1  
    63   25   61 1  
    64   28   62 1  
    65   28   63 1  
    66   31   64 1  
    67   32   65 1  
    68   33   66 1  
    69   34   67 1  
    70   35   68 1  
    71   36   69 1  
    72   38   70 1  
    73   38   71 1  
@<TRIPOS>SUBSTRUCTURE
     1 TRP         1

