### 
### Created by X-TOOL on Mon Sep 10 21:12:57 2018
### 

@<TRIPOS>MOLECULE
2qlm_ligand
   44    45     1     0     0
SMALL
GAST_HUCK


@<TRIPOS>ATOM
      1 C10        36.7110   26.3810   31.9780 C.ar      1 F68        -0.0481
      2 C11        37.8460   26.9110   32.5900 C.ar      1 F68        -0.0546
      3 C12        37.9400   26.9330   33.9840 C.ar      1 F68        -0.0413
      4 C15        39.1890   27.5220   34.6450 C.3       1 F68        -0.0289
      5 C13        36.8980   26.4310   34.7680 C.ar      1 F68        -0.0546
      6 C14        35.7640   25.8990   34.1500 C.ar      1 F68        -0.0481
      7 C9         35.6720   25.8650   32.7550 C.ar      1 F68         0.0480
      8 C8         34.4150   25.2890   32.0730 C.2       1 F68         0.2283
      9 O8         33.3110   25.4100   32.6110 O.2       1 F68        -0.3776
     10 N2         34.6390   24.6880   30.8890 N.am      1 F68        -0.1856
     11 C7         33.7040   24.1170   30.1060 C.2       1 F68         0.2890
     12 O7         32.5060   24.0960   30.4020 O.2       1 F68        -0.3915
     13 N1         34.1460   23.5700   28.9700 N.am      1 F68        -0.2397
     14 C1         33.2130   22.9080   28.0170 C.3       1 F68         0.1725
     15 O5         33.1530   21.4650   28.2550 O.3       1 F68        -0.3438
     16 C5         32.1170   20.8330   27.4860 C.3       1 F68         0.1127
     17 C6         32.0460   19.3570   27.9170 C.3       1 F68         0.0730
     18 O6         33.1600   18.6250   27.3900 O.3       1 F68        -0.3924
     19 C4         32.3390   21.0300   25.9640 C.3       1 F68         0.1119
     20 O4         31.1890   20.5620   25.2540 O.3       1 F68        -0.3865
     21 C3         32.5810   22.5140   25.6210 C.3       1 F68         0.1138
     22 O3         32.9820   22.6380   24.2530 O.3       1 F68        -0.3864
     23 C2         33.6330   23.1360   26.5570 C.3       1 F68         0.1306
     24 O2         33.8100   24.5400   26.2990 O.3       1 F68        -0.3844
     25 H1         36.6350   26.3695   30.8967 H         1 F68         0.0652
     26 H2         38.6545   27.3055   31.9852 H         1 F68         0.0570
     27 H3         39.0905   27.4565   35.7386 H         1 F68         0.0401
     28 H4         39.2981   28.5758   34.3492 H         1 F68         0.0401
     29 H5         40.0758   26.9568   34.3223 H         1 F68         0.0401
     30 H6         36.9693   26.4543   35.8494 H         1 F68         0.0570
     31 H7         34.9519   25.5109   34.7542 H         1 F68         0.0652
     32 H8         35.5837   24.6635   30.5621 H         1 F68         0.2246
     33 H9         35.1221   23.6059   28.7557 H         1 F68         0.1879
     34 H10        32.2104   23.3350   28.1667 H         1 F68         0.0893
     35 H11        31.1573   21.3070   27.7396 H         1 F68         0.0647
     36 H12        31.1118   18.9147   27.5406 H         1 F68         0.0584
     37 H13        32.0624   19.2996   29.0154 H         1 F68         0.0584
     38 H14        33.9685   19.0032   27.7154 H         1 F68         0.2095
     39 H15        33.2184   20.4460   25.6547 H         1 F68         0.0647
     40 H16        30.4252   21.0544   25.5309 H         1 F68         0.2100
     41 H17        31.6356   23.0595   25.7570 H         1 F68         0.0647
     42 H18        33.1292   23.5541   24.0491 H         1 F68         0.2100
     43 H19        34.5946   22.6307   26.3840 H         1 F68         0.0668
     44 H20        32.9851   24.9919   26.4328 H         1 F68         0.2101
@<TRIPOS>BOND
     1    1    2 ar 
     2    1    7 ar 
     3    2    3 ar 
     4    3    4 1  
     5    3    5 ar 
     6    5    6 ar 
     7    6    7 ar 
     8    7    8 1  
     9    8    9 2  
    10    8   10 am 
    11   10   11 am 
    12   11   12 2  
    13   11   13 am 
    14   13   14 1  
    15   14   15 1  
    16   14   23 1  
    17   15   16 1  
    18   16   17 1  
    19   16   19 1  
    20   17   18 1  
    21   19   20 1  
    22   19   21 1  
    23   21   22 1  
    24   21   23 1  
    25   23   24 1  
    26    1   25 1  
    27    2   26 1  
    28    4   27 1  
    29    4   28 1  
    30    4   29 1  
    31    5   30 1  
    32    6   31 1  
    33   10   32 1  
    34   13   33 1  
    35   14   34 1  
    36   16   35 1  
    37   17   36 1  
    38   17   37 1  
    39   18   38 1  
    40   19   39 1  
    41   20   40 1  
    42   21   41 1  
    43   22   42 1  
    44   23   43 1  
    45   24   44 1  
@<TRIPOS>SUBSTRUCTURE
     1 F68         1

