### 
### Created by X-TOOL on Mon Sep 10 21:12:57 2018
### 

@<TRIPOS>MOLECULE
2qln_ligand
   51    53     1     0     0
SMALL
GAST_HUCK


@<TRIPOS>ATOM
      1 C16        39.6340   26.5090   35.8000 C.ar      1 F59        -0.0530
      2 C17        40.5880   26.9130   36.7400 C.ar      1 F59        -0.0605
      3 C18        40.2200   27.7400   37.8020 C.ar      1 F59        -0.0611
      4 C19        38.8970   28.1630   37.9280 C.ar      1 F59        -0.0605
      5 C20        37.9450   27.7610   36.9920 C.ar      1 F59        -0.0530
      6 C15        38.3060   26.9390   35.9150 C.ar      1 F59        -0.0153
      7 C12        37.3350   26.5360   34.9860 C.ar      1 F59        -0.0140
      8 C13        36.0480   26.2420   35.4390 C.ar      1 F59        -0.0489
      9 C14        35.0560   25.8360   34.5400 C.ar      1 F59        -0.0414
     10 C11        37.6190   26.4110   33.6170 C.ar      1 F59        -0.0489
     11 C10        36.6190   26.0020   32.7180 C.ar      1 F59        -0.0414
     12 C9         35.3270   25.7110   33.1770 C.ar      1 F59         0.0546
     13 C8         34.1730   25.2500   32.2500 C.2       1 F59         0.2328
     14 O8         33.0050   25.4600   32.5830 O.2       1 F59        -0.3748
     15 N2         34.5300   24.6130   31.1210 N.am      1 F59        -0.1847
     16 C7         33.6470   24.1340   30.2190 C.2       1 F59         0.2891
     17 O7         32.4250   24.2340   30.3620 O.2       1 F59        -0.3915
     18 N1         34.1600   23.5340   29.1390 N.am      1 F59        -0.2397
     19 C1         33.2480   22.9700   28.1060 C.3       1 F59         0.1725
     20 O5         33.1620   21.5350   28.3350 O.3       1 F59        -0.3438
     21 C5         32.1390   20.9050   27.5490 C.3       1 F59         0.1127
     22 C6         32.0640   19.4350   27.9830 C.3       1 F59         0.0730
     23 O6         33.1480   18.6860   27.4220 O.3       1 F59        -0.3924
     24 C4         32.3980   21.1140   26.0370 C.3       1 F59         0.1119
     25 O4         31.2710   20.6590   25.3090 O.3       1 F59        -0.3865
     26 C3         32.6360   22.5990   25.7070 C.3       1 F59         0.1138
     27 O3         33.0470   22.7210   24.3470 O.3       1 F59        -0.3864
     28 C2         33.6930   23.2070   26.6550 C.3       1 F59         0.1306
     29 O2         33.8820   24.6080   26.4120 O.3       1 F59        -0.3844
     30 H1         39.9234   25.8613   34.9803 H         1 F59         0.0629
     31 H2         41.6159   26.5827   36.6431 H         1 F59         0.0619
     32 H3         40.9614   28.0532   38.5281 H         1 F59         0.0622
     33 H4         38.6090   28.8041   38.7533 H         1 F59         0.0619
     34 H5         36.9166   28.0869   37.0979 H         1 F59         0.0629
     35 H6         35.8156   26.3288   36.4942 H         1 F59         0.0633
     36 H7         34.0607   25.6149   34.9083 H         1 F59         0.0668
     37 H8         38.6153   26.6312   33.2510 H         1 F59         0.0633
     38 H9         36.8485   25.9110   31.6625 H         1 F59         0.0668
     39 H10        35.5052   24.4868   30.9390 H         1 F59         0.2247
     40 H11        35.1512   23.4646   29.0260 H         1 F59         0.1879
     41 H12        32.2548   23.4242   28.2372 H         1 F59         0.0893
     42 H13        31.1737   21.3773   27.7836 H         1 F59         0.0647
     43 H14        31.1118   19.0050   27.6390 H         1 F59         0.0584
     44 H15        32.1163   19.3793   29.0803 H         1 F59         0.0584
     45 H16        33.9723   19.0529   27.7193 H         1 F59         0.2095
     46 H17        33.2850   20.5342   25.7419 H         1 F59         0.0647
     47 H18        30.5037   21.1523   25.5744 H         1 F59         0.2100
     48 H19        31.6916   23.1467   25.8412 H         1 F59         0.0647
     49 H20        33.1940   23.6371   24.1427 H         1 F59         0.2100
     50 H21        34.6519   22.6947   26.4877 H         1 F59         0.0668
     51 H22        33.0604   25.0654   26.5473 H         1 F59         0.2101
@<TRIPOS>BOND
     1    1    2 ar 
     2    1    6 ar 
     3    2    3 ar 
     4    3    4 ar 
     5    4    5 ar 
     6    5    6 ar 
     7    6    7 1  
     8    7    8 ar 
     9    7   10 ar 
    10    8    9 ar 
    11    9   12 ar 
    12   10   11 ar 
    13   11   12 ar 
    14   12   13 1  
    15   13   14 2  
    16   13   15 am 
    17   15   16 am 
    18   16   17 2  
    19   16   18 am 
    20   18   19 1  
    21   19   20 1  
    22   19   28 1  
    23   20   21 1  
    24   21   22 1  
    25   21   24 1  
    26   22   23 1  
    27   24   25 1  
    28   24   26 1  
    29   26   27 1  
    30   26   28 1  
    31   28   29 1  
    32    1   30 1  
    33    2   31 1  
    34    3   32 1  
    35    4   33 1  
    36    5   34 1  
    37    8   35 1  
    38    9   36 1  
    39   10   37 1  
    40   11   38 1  
    41   15   39 1  
    42   18   40 1  
    43   19   41 1  
    44   21   42 1  
    45   22   43 1  
    46   22   44 1  
    47   23   45 1  
    48   24   46 1  
    49   25   47 1  
    50   26   48 1  
    51   27   49 1  
    52   28   50 1  
    53   29   51 1  
@<TRIPOS>SUBSTRUCTURE
     1 F59         1

