### 
### Created by X-TOOL on Mon Sep 10 21:12:58 2018
### 

@<TRIPOS>MOLECULE
2qlq_ligand
   50    52     1     0     0
SMALL
GAST_HUCK


@<TRIPOS>ATOM
      1 C4          5.1570    3.6610    7.7270 C.ar      1 SR2        -0.0272
      2 C3          4.2650    3.1910    8.7070 C.ar      1 SR2         0.0042
      3 BRR1        2.7640    2.0450    8.3310 Br        1 SR2        -0.0528
      4 C22         4.5160    3.5800   10.0250 C.ar      1 SR2        -0.0632
      5 C21         5.5840    4.3870   10.3870 C.ar      1 SR2        -0.0680
      6 C20         6.4200    4.8290    9.3640 C.ar      1 SR2        -0.0342
      7 C5          6.2520    4.4850    8.0260 C.ar      1 SR2         0.0708
      8 N1          7.0950    4.9560    7.0540 N.pl3     1 SR2        -0.2472
      9 C6          8.4310    4.7790    6.9660 C.ar      1 SR2         0.1549
     10 C7          9.3260    5.5030    6.1230 C.ar      1 SR2         0.0428
     11 C8          8.9790    6.5240    5.2400 C.ar      1 SR2        -0.0233
     12 N3          8.9610    3.8160    7.7320 N.ar      1 SR2        -0.2575
     13 C19        10.2370    3.5350    7.7200 C.ar      1 SR2         0.0558
     14 N2         11.0890    4.1800    6.9700 N.ar      1 SR2        -0.3004
     15 C18        10.6790    5.1570    6.1710 C.ar      1 SR2         0.0351
     16 C17        11.6140    5.8020    5.3960 C.ar      1 SR2        -0.0453
     17 C13        11.2410    6.7970    4.5400 C.ar      1 SR2        -0.0283
     18 C9          9.9300    7.2020    4.4690 C.ar      1 SR2         0.0745
     19 N11         9.6430    8.1400    3.5650 N.am      1 SR2        -0.2321
     20 C10         8.4240    8.0640    3.0720 C.2       1 SR2         0.2044
     21 O61         7.5780    7.4080    3.6460 O.2       1 SR2        -0.3845
     22 C11         7.9250    8.9270    1.9140 C.3       1 SR2         0.0481
     23 C51         8.6160    9.0850    0.5590 C.3       1 SR2         0.0049
     24 C61         7.9630   10.3780    0.0800 C.3       1 SR2        -0.0303
     25 N63         7.0140   10.1600   -1.0110 N.4       1 SR2         0.2310
     26 C65         6.0390    9.1070   -0.8290 C.3       1 SR2        -0.0433
     27 C67         6.3000   11.3580   -1.3970 C.3       1 SR2        -0.0433
     28 H1          4.9911    3.3739    6.6949 H         1 SR2         0.0569
     29 H2          3.8437    3.2345   10.8020 H         1 SR2         0.0550
     30 H3          5.7606    4.6619   11.4206 H         1 SR2         0.0596
     31 H4          7.2484    5.4777    9.6250 H         1 SR2         0.0566
     32 H5          6.6590    5.5096    6.3028 H         1 SR2         0.2216
     33 H6          7.9356    6.8028    5.1472 H         1 SR2         0.0508
     34 H7         10.6017    2.7368    8.3563 H         1 SR2         0.1015
     35 H8         12.6576    5.5172    5.4658 H         1 SR2         0.0616
     36 H9         11.9851    7.2718    3.9108 H         1 SR2         0.0618
     37 H10        10.2982    8.8418    3.2852 H         1 SR2         0.2265
     38 H11         7.8505    9.9457    2.3223 H         1 SR2         0.0510
     39 H12         6.9177    8.5496    1.6838 H         1 SR2         0.0510
     40 H13         8.3952    8.2426   -0.1129 H         1 SR2         0.0341
     41 H14         9.7054    9.1929    0.6661 H         1 SR2         0.0341
     42 H15         8.7506   11.0615   -0.2700 H         1 SR2         0.0816
     43 H16         7.4285   10.8365    0.9250 H         1 SR2         0.0816
     44 H17         7.5785    9.8875   -1.8004 H         1 SR2         0.2028
     45 H18         5.3916    9.0494   -1.7164 H         1 SR2         0.0777
     46 H19         5.4262    9.3240    0.0584 H         1 SR2         0.0777
     47 H20         6.5577    8.1469   -0.6906 H         1 SR2         0.0777
     48 H21         7.0158   12.1803   -1.5436 H         1 SR2         0.0777
     49 H22         5.5859   11.6302   -0.6058 H         1 SR2         0.0777
     50 H23         5.7556   11.1742   -2.3350 H         1 SR2         0.0777
@<TRIPOS>BOND
     1    1    2 ar 
     2    1    7 ar 
     3    2    3 1  
     4    2    4 ar 
     5    4    5 ar 
     6    5    6 ar 
     7    6    7 ar 
     8    7    8 1  
     9    8    9 1  
    10    9   10 ar 
    11    9   12 ar 
    12   10   11 ar 
    13   10   15 ar 
    14   11   18 ar 
    15   12   13 ar 
    16   13   14 ar 
    17   14   15 ar 
    18   15   16 ar 
    19   16   17 ar 
    20   17   18 ar 
    21   18   19 1  
    22   19   20 am 
    23   20   21 2  
    24   20   22 1  
    25   22   23 1  
    26   23   24 1  
    27   24   25 1  
    28   25   26 1  
    29   25   27 1  
    30    1   28 1  
    31    4   29 1  
    32    5   30 1  
    33    6   31 1  
    34    8   32 1  
    35   11   33 1  
    36   13   34 1  
    37   16   35 1  
    38   17   36 1  
    39   19   37 1  
    40   22   38 1  
    41   22   39 1  
    42   23   40 1  
    43   23   41 1  
    44   24   42 1  
    45   24   43 1  
    46   25   44 1  
    47   26   45 1  
    48   26   46 1  
    49   26   47 1  
    50   27   48 1  
    51   27   49 1  
    52   27   50 1  
@<TRIPOS>SUBSTRUCTURE
     1 SR2         1

