### 
### Created by X-TOOL on Mon Sep 10 21:12:56 2018
### 

@<TRIPOS>MOLECULE
2qm9_ligand
   58    61     1     0     0
SMALL
GAST_HUCK


@<TRIPOS>ATOM
      1 CAM        -5.4800   -9.6110   17.1610 C.3       1 TDZ        -0.0119
      2 CAL        -6.5370   -8.5080   17.0080 C.3       1 TDZ        -0.0275
      3 CBB        -7.5730   -8.4670   18.1460 C.ar      1 TDZ        -0.0327
      4 CAZ        -8.5920   -7.5150   18.1640 C.ar      1 TDZ        -0.0359
      5 CAC        -8.6660   -6.5020   17.0340 C.3       1 TDZ        -0.0426
      6 CBA        -9.5400   -7.4610   19.1830 C.ar      1 TDZ         0.0669
      7 OAG       -10.5190   -6.5250   19.1760 O.3       1 TDZ        -0.3512
      8 CAX        -9.4950   -8.3640   20.2230 C.ar      1 TDZ        -0.0362
      9 CAA       -10.5390   -8.2870   21.3460 C.3       1 TDZ        -0.0426
     10 CAY        -8.4900   -9.3170   20.2270 C.ar      1 TDZ        -0.0359
     11 CAB        -8.4560  -10.2830   21.3810 C.3       1 TDZ        -0.0426
     12 CBC        -7.5300   -9.3750   19.2030 C.ar      1 TDZ         0.0715
     13 OAR        -6.5310  -10.3190   19.2270 O.3       1 TDZ        -0.3271
     14 CBE        -5.2250   -9.9290   18.6330 C.3       1 TDZ         0.1117
     15 CAD        -4.5540   -8.7160   19.2900 C.3       1 TDZ        -0.0296
     16 CAN        -4.2330  -11.1250   18.7420 C.3       1 TDZ         0.1012
     17 OAQ        -3.7030  -11.4820   20.0690 O.3       1 TDZ        -0.3193
     18 CAW        -4.7130  -11.7980   20.9390 C.ar      1 TDZ         0.0842
     19 CAK        -5.5630  -12.8880   20.7260 C.ar      1 TDZ        -0.0396
     20 CAI        -6.5850  -13.1650   21.6360 C.ar      1 TDZ        -0.0686
     21 CAJ        -4.9180  -10.9990   22.0530 C.ar      1 TDZ        -0.0396
     22 CAH        -5.9430  -11.2650   22.9540 C.ar      1 TDZ        -0.0686
     23 CAV        -6.7930  -12.3510   22.7580 C.ar      1 TDZ        -0.0502
     24 CAO        -7.8990  -12.5990   23.8240 C.3       1 TDZ         0.0077
     25 CBD        -9.2120  -13.2820   23.3720 C.3       1 TDZ         0.1282
     26 SAS        -9.6580  -12.8760   21.6690 S.3       1 TDZ         0.0006
     27 CAT        -9.5970  -14.4930   21.0980 C.2       1 TDZ         0.2695
     28 OAE        -9.8180  -14.8010   19.9280 O.2       1 TDZ        -0.3731
     29 NAP        -9.2740  -15.3660   22.0660 N.am      1 TDZ        -0.1891
     30 CAU        -9.0580  -14.8170   23.2760 C.2       1 TDZ         0.2225
     31 OAF        -8.7610  -15.5220   24.2370 O.2       1 TDZ        -0.3846
     32 H1         -4.5404   -9.2747   16.6983 H         1 TDZ         0.0313
     33 H2         -5.8338  -10.5204   16.6533 H         1 TDZ         0.0313
     34 H3         -7.0713   -8.6708   16.0604 H         1 TDZ         0.0374
     35 H4         -6.0209   -7.5372   16.9759 H         1 TDZ         0.0374
     36 H5         -7.8486   -6.6871   16.3215 H         1 TDZ         0.0338
     37 H6         -8.5708   -5.4862   17.4453 H         1 TDZ         0.0338
     38 H7         -9.6320   -6.5993   16.5170 H         1 TDZ         0.0338
     39 H8        -11.0437   -6.6231   18.3902 H         1 TDZ         0.2392
     40 H9        -11.2371   -7.4618   21.1417 H         1 TDZ         0.0338
     41 H10       -10.0324   -8.1094   22.3061 H         1 TDZ         0.0338
     42 H11       -11.0956   -9.2345   21.3948 H         1 TDZ         0.0338
     43 H12        -9.2897  -10.0664   22.0651 H         1 TDZ         0.0338
     44 H13        -7.5028  -10.1773   21.9197 H         1 TDZ         0.0338
     45 H14        -8.5507  -11.3111   21.0015 H         1 TDZ         0.0338
     46 H15        -4.3646   -8.9322   20.3518 H         1 TDZ         0.0261
     47 H16        -5.2154   -7.8410   19.2063 H         1 TDZ         0.0261
     48 H17        -3.6008   -8.5050   18.7831 H         1 TDZ         0.0261
     49 H18        -3.3706  -10.8906   18.1007 H         1 TDZ         0.0643
     50 H19        -4.7509  -12.0128   18.3501 H         1 TDZ         0.0643
     51 H20        -5.4283  -13.5179   19.8542 H         1 TDZ         0.0525
     52 H21        -7.2274  -14.0227   21.4723 H         1 TDZ         0.0530
     53 H22        -4.2663  -10.1500   22.2251 H         1 TDZ         0.0525
     54 H23        -6.0817  -10.6222   23.8158 H         1 TDZ         0.0530
     55 H24        -8.1696  -11.6202   24.2467 H         1 TDZ         0.0442
     56 H25        -7.4581  -13.2289   24.6106 H         1 TDZ         0.0442
     57 H26       -10.0169  -13.0048   24.0686 H         1 TDZ         0.0706
     58 H27        -9.1996  -16.3494   21.9005 H         1 TDZ         0.2265
@<TRIPOS>BOND
     1    1    2 1  
     2    1   14 1  
     3    2    3 1  
     4    3    4 ar 
     5    3   12 ar 
     6    4    5 1  
     7    4    6 ar 
     8    6    7 1  
     9    6    8 ar 
    10    8    9 1  
    11    8   10 ar 
    12   10   11 1  
    13   10   12 ar 
    14   12   13 1  
    15   13   14 1  
    16   14   15 1  
    17   14   16 1  
    18   16   17 1  
    19   17   18 1  
    20   18   19 ar 
    21   18   21 ar 
    22   19   20 ar 
    23   20   23 ar 
    24   21   22 ar 
    25   22   23 ar 
    26   23   24 1  
    27   24   25 1  
    28   25   26 1  
    29   25   30 1  
    30   26   27 1  
    31   27   28 2  
    32   27   29 am 
    33   29   30 am 
    34   30   31 2  
    35    1   32 1  
    36    1   33 1  
    37    2   34 1  
    38    2   35 1  
    39    5   36 1  
    40    5   37 1  
    41    5   38 1  
    42    7   39 1  
    43    9   40 1  
    44    9   41 1  
    45    9   42 1  
    46   11   43 1  
    47   11   44 1  
    48   11   45 1  
    49   15   46 1  
    50   15   47 1  
    51   15   48 1  
    52   16   49 1  
    53   16   50 1  
    54   19   51 1  
    55   20   52 1  
    56   21   53 1  
    57   22   54 1  
    58   24   55 1  
    59   24   56 1  
    60   25   57 1  
    61   29   58 1  
@<TRIPOS>SUBSTRUCTURE
     1 TDZ         1

