### 
### Created by X-TOOL on Mon Sep 10 21:12:57 2018
### 

@<TRIPOS>MOLECULE
2qmd_ligand
   88    91     1     0     0
SMALL
GAST_HUCK


@<TRIPOS>ATOM
      1 F1         26.8370   10.8260   19.1030 F         1 CS7        -0.1863
      2 F2         22.8410   13.3440   18.5700 F         1 CS7        -0.1863
      3 N1         23.6310   11.7300   23.5000 N.am      1 CS7        -0.2784
      4 C1         22.5260   10.8030   23.1680 C.3       1 CS7         0.0820
      5 C2         22.0430    9.9720   24.3810 C.3       1 CS7         0.1221
      6 C3         21.5420   10.8500   25.5400 C.3       1 CS7         0.0089
      7 O1         20.9880    9.0870   23.9610 O.3       1 CS7        -0.3837
      8 N2         21.2330    9.9770   26.6900 N.4       1 CS7         0.2330
      9 C4         20.4000   10.8270   27.5640 C.3       1 CS7        -0.0060
     10 C5         19.5920   11.7390   26.6310 C.3       1 CS7         0.1060
     11 C6         20.2510   11.6260   25.2500 C.3       1 CS7         0.0243
     12 C7         22.9750    9.8510   22.0420 C.3       1 CS7         0.0048
     13 C8         23.6320   10.6270   20.9220 C.ar      1 CS7        -0.0445
     14 C9         24.9750   10.3410   20.5360 C.ar      1 CS7        -0.0310
     15 C10        25.5830   11.0830   19.4760 C.ar      1 CS7         0.1242
     16 C11        24.8560   12.1020   18.8110 C.ar      1 CS7        -0.0019
     17 C12        23.5200   12.3850   19.1980 C.ar      1 CS7         0.1242
     18 C13        22.9040   11.6520   20.2500 C.ar      1 CS7        -0.0310
     19 C14        27.0340   14.2570   23.7480 C.ar      1 CS7         0.0490
     20 C15        26.8840   15.4720   24.4820 C.ar      1 CS7        -0.0367
     21 C16        25.5950   15.8880   24.9100 C.ar      1 CS7        -0.0353
     22 C17        24.4470   15.0910   24.6170 C.ar      1 CS7        -0.0367
     23 C18        24.5920   13.8720   23.8940 C.ar      1 CS7         0.0488
     24 C19        25.8800   13.4560   23.4610 C.ar      1 CS7        -0.0289
     25 C20        28.3670   13.8080   23.3300 C.2       1 CS7         0.2069
     26 C21        23.4080   13.0680   23.5860 C.2       1 CS7         0.2049
     27 O2         22.3020   13.5650   23.4160 O.2       1 CS7        -0.3846
     28 C22        25.4400   17.1470   25.6630 C.3       1 CS7        -0.0293
     29 N3         28.6150   13.5940   22.0110 N.am      1 CS7        -0.2724
     30 O3         29.2390   13.6170   24.1600 O.2       1 CS7        -0.3844
     31 O4         18.2680   11.2360   26.5940 O.3       1 CS7        -0.3587
     32 C23        17.4600   12.0880   25.7990 C.3       1 CS7         0.0822
     33 C24        16.5840   11.2590   24.8710 C.ar      1 CS7        -0.0175
     34 C25        16.5430    9.8340   24.9680 C.ar      1 CS7        -0.0581
     35 C26        15.7150    9.0810   24.0880 C.ar      1 CS7        -0.0685
     36 C27        14.9260    9.7490   23.1100 C.ar      1 CS7        -0.0687
     37 C28        14.9640   11.1690   23.0110 C.ar      1 CS7        -0.0685
     38 C29        15.7930   11.9230   23.8930 C.ar      1 CS7        -0.0581
     39 C30        29.9580   13.1320   21.6760 C.3       1 CS7         0.0331
     40 C31        29.9230   11.6540   21.2180 C.3       1 CS7        -0.0354
     41 C32        29.1360   10.7260   22.1670 C.3       1 CS7        -0.0634
     42 C33        27.6490   13.8060   20.9370 C.3       1 CS7         0.0331
     43 C34        28.2020   14.8470   19.9650 C.3       1 CS7        -0.0354
     44 C35        28.8240   16.0540   20.6820 C.3       1 CS7        -0.0634
     45 H1         24.5493   11.3689   23.6624 H         1 CS7         0.1851
     46 H2         21.6771   11.4020   22.8067 H         1 CS7         0.0606
     47 H3         22.8889    9.3707   24.7455 H         1 CS7         0.0675
     48 H4         22.3364   11.5632   25.8050 H         1 CS7         0.0878
     49 H5         21.2974    8.5446   23.2451 H         1 CS7         0.2102
     50 H6         22.0770    9.6941   27.1630 H         1 CS7         0.2018
     51 H7         20.7237    9.1592   26.3934 H         1 CS7         0.2018
     52 H8         21.0364   11.4295   28.2288 H         1 CS7         0.0840
     53 H9         19.7237   10.2049   28.1686 H         1 CS7         0.0840
     54 H10        19.5990   12.7814   26.9823 H         1 CS7         0.0654
     55 H11        19.6073   11.0732   24.5499 H         1 CS7         0.0348
     56 H12        20.4732   12.6208   24.8365 H         1 CS7         0.0348
     57 H13        22.0974    9.3184   21.6469 H         1 CS7         0.0448
     58 H14        23.6933    9.1235   22.4480 H         1 CS7         0.0448
     59 H15        25.5330    9.5633   21.0449 H         1 CS7         0.0508
     60 H16        25.3195   12.6641   18.0083 H         1 CS7         0.0532
     61 H17        21.8831   11.8724   20.5401 H         1 CS7         0.0508
     62 H18        27.7534   16.0770   24.7127 H         1 CS7         0.0642
     63 H19        23.4653   15.4134   24.9446 H         1 CS7         0.0642
     64 H20        25.9905   12.5285   22.9110 H         1 CS7         0.0665
     65 H21        26.4245   17.6204   25.7924 H         1 CS7         0.0391
     66 H22        25.0036   16.9328   26.6497 H         1 CS7         0.0391
     67 H23        24.7764   17.8267   25.1083 H         1 CS7         0.0391
     68 H24        18.1055   12.7461   25.1988 H         1 CS7         0.0724
     69 H25        16.8210   12.6988   26.4536 H         1 CS7         0.0724
     70 H26        17.1436    9.3252   25.7132 H         1 CS7         0.0557
     71 H27        15.6856    8.0000   24.1629 H         1 CS7         0.0599
     72 H28        14.2954    9.1762   22.4397 H         1 CS7         0.0559
     73 H29        14.3629   11.6767   22.2654 H         1 CS7         0.0599
     74 H30        15.8204   13.0041   23.8179 H         1 CS7         0.0557
     75 H31        30.6034   13.2213   22.5623 H         1 CS7         0.0522
     76 H32        30.3627   13.7534   20.8636 H         1 CS7         0.0522
     77 H33        30.9577   11.2865   21.1530 H         1 CS7         0.0282
     78 H34        29.4552   11.6102   20.2234 H         1 CS7         0.0282
     79 H35        29.1569    9.6983   21.7755 H         1 CS7         0.0230
     80 H36        28.0938   11.0709   22.2362 H         1 CS7         0.0230
     81 H37        29.5964   10.7472   23.1658 H         1 CS7         0.0230
     82 H38        26.6999   14.1657   21.3610 H         1 CS7         0.0522
     83 H39        27.4771   12.8592   20.4040 H         1 CS7         0.0522
     84 H40        27.3810   15.2024   19.3250 H         1 CS7         0.0282
     85 H41        28.9737   14.3718   19.3415 H         1 CS7         0.0282
     86 H42        29.2040   16.7677   19.9362 H         1 CS7         0.0230
     87 H43        29.6532   15.7142   21.3200 H         1 CS7         0.0230
     88 H44        28.0605   16.5448   21.3034 H         1 CS7         0.0230
@<TRIPOS>BOND
     1   15    1 1  
     2   17    2 1  
     3    3    4 1  
     4   26    3 am 
     5    4    5 1  
     6    4   12 1  
     7    5    6 1  
     8    5    7 1  
     9    6    8 1  
    10    6   11 1  
    11    8    9 1  
    12   10    9 1  
    13   11   10 1  
    14   10   31 1  
    15   12   13 1  
    16   13   14 ar 
    17   13   18 ar 
    18   14   15 ar 
    19   15   16 ar 
    20   17   16 ar 
    21   18   17 ar 
    22   19   20 ar 
    23   24   19 ar 
    24   19   25 1  
    25   21   20 ar 
    26   22   21 ar 
    27   21   28 1  
    28   23   22 ar 
    29   23   24 ar 
    30   23   26 1  
    31   25   29 am 
    32   25   30 2  
    33   26   27 2  
    34   29   39 1  
    35   29   42 1  
    36   31   32 1  
    37   32   33 1  
    38   33   34 ar 
    39   33   38 ar 
    40   34   35 ar 
    41   35   36 ar 
    42   36   37 ar 
    43   37   38 ar 
    44   39   40 1  
    45   40   41 1  
    46   42   43 1  
    47   43   44 1  
    48    3   45 1  
    49    4   46 1  
    50    5   47 1  
    51    6   48 1  
    52    7   49 1  
    53    8   50 1  
    54    8   51 1  
    55    9   52 1  
    56    9   53 1  
    57   10   54 1  
    58   11   55 1  
    59   11   56 1  
    60   12   57 1  
    61   12   58 1  
    62   14   59 1  
    63   16   60 1  
    64   18   61 1  
    65   20   62 1  
    66   22   63 1  
    67   24   64 1  
    68   28   65 1  
    69   28   66 1  
    70   28   67 1  
    71   32   68 1  
    72   32   69 1  
    73   34   70 1  
    74   35   71 1  
    75   36   72 1  
    76   37   73 1  
    77   38   74 1  
    78   39   75 1  
    79   39   76 1  
    80   40   77 1  
    81   40   78 1  
    82   41   79 1  
    83   41   80 1  
    84   41   81 1  
    85   42   82 1  
    86   42   83 1  
    87   43   84 1  
    88   43   85 1  
    89   44   86 1  
    90   44   87 1  
    91   44   88 1  
@<TRIPOS>SUBSTRUCTURE
     1 CS7         1

