### 
### Created by X-TOOL on Mon Sep 10 21:12:58 2018
### 

@<TRIPOS>MOLECULE
2qmf_ligand
   85    88     1     0     0
SMALL
GAST_HUCK


@<TRIPOS>ATOM
      1 C1         26.9660   15.4650   24.4540 C.ar      1 CS9        -0.0367
      2 C2         25.6910   15.8920   24.8960 C.ar      1 CS9        -0.0353
      3 C3         24.5420   15.0930   24.5950 C.ar      1 CS9        -0.0367
      4 C4         24.6700   13.8780   23.8590 C.ar      1 CS9         0.0488
      5 C5         25.9520   13.4760   23.4300 C.ar      1 CS9        -0.0289
      6 C6         27.1080   14.2640   23.7190 C.ar      1 CS9         0.0490
      7 C7         28.4460   13.8110   23.2680 C.2       1 CS9         0.2069
      8 N1         28.7600   13.6120   21.9020 N.am      1 CS9        -0.2724
      9 O1         29.2900   13.5930   24.1280 O.2       1 CS9        -0.3844
     10 C8         27.8460   13.8410   20.7410 C.3       1 CS9         0.0331
     11 C9         28.3380   14.9910   19.8340 C.3       1 CS9        -0.0354
     12 C10        28.6820   16.2760   20.6100 C.3       1 CS9        -0.0634
     13 C11        30.1370   13.1380   21.5920 C.3       1 CS9         0.0331
     14 C12        30.1420   11.6760   21.0550 C.3       1 CS9        -0.0354
     15 C13        29.3500   10.6670   21.9170 C.3       1 CS9        -0.0634
     16 C30        25.5610   17.1790   25.6760 C.3       1 CS9        -0.0293
     17 C14        23.4650   13.0710   23.5510 C.2       1 CS9         0.2049
     18 N2         23.6660   11.7170   23.4310 N.am      1 CS9        -0.2784
     19 O2         22.3450   13.5710   23.4020 O.2       1 CS9        -0.3846
     20 C15        22.5760   10.7620   23.1090 C.3       1 CS9         0.0820
     21 C16        22.1620    9.9200   24.3330 C.3       1 CS9         0.1221
     22 C17        23.0630    9.8610   21.9360 C.3       1 CS9         0.0048
     23 O3         21.1060    9.0640   23.9540 O.3       1 CS9        -0.3837
     24 C19        23.6920   10.6500   20.8050 C.ar      1 CS9        -0.0445
     25 C21        25.0300   10.3790   20.4130 C.ar      1 CS9        -0.0310
     26 C22        25.6110   11.1200   19.3560 C.ar      1 CS9         0.1242
     27 C23        24.9100   12.1310   18.6680 C.ar      1 CS9        -0.0019
     28 C24        23.5810   12.3880   19.0730 C.ar      1 CS9         0.1242
     29 C25        22.9650   11.6700   20.1210 C.ar      1 CS9        -0.0310
     30 F2         26.8620   10.8520   19.0050 F         1 CS9        -0.1863
     31 F1         22.8880   13.3380   18.4440 F         1 CS9        -0.1863
     32 C26        19.5270   11.4560   26.5140 C.3       1 CS9         0.1258
     33 C18        20.4640   10.7800   27.5110 C.3       1 CS9        -0.0018
     34 N3         21.2560    9.8830   26.6650 N.4       1 CS9         0.2332
     35 C20        20.4410   11.6420   25.2790 C.3       1 CS9         0.0285
     36 C27        21.6690   10.7450   25.5520 C.3       1 CS9         0.0093
     37 O4         18.4550   10.5210   26.3000 O.3       1 CS9        -0.3093
     38 C31        17.4720   10.8120   25.3380 C.ar      1 CS9         0.0917
     39 C32        17.0020   12.1230   24.9740 C.ar      1 CS9        -0.0331
     40 C33        16.0070   12.2680   23.9850 C.ar      1 CS9        -0.0706
     41 C34        15.4670   11.1270   23.3460 C.ar      1 CS9        -0.0729
     42 C35        15.9230    9.8300   23.6980 C.ar      1 CS9        -0.0706
     43 C36        16.9200    9.6780   24.6880 C.ar      1 CS9        -0.0331
     44 H1         27.8413   16.0631   24.6804 H         1 CS9         0.0642
     45 H2         23.5629   15.4152   24.9305 H         1 CS9         0.0642
     46 H3         26.0620   12.5535   22.8715 H         1 CS9         0.0665
     47 H4         26.8450   14.0924   21.1214 H         1 CS9         0.0522
     48 H5         27.7907   12.9180   20.1453 H         1 CS9         0.0522
     49 H6         27.5469   15.2242   19.1062 H         1 CS9         0.0282
     50 H7         29.2390   14.6537   19.3007 H         1 CS9         0.0282
     51 H8         29.0236   17.0491   19.9060 H         1 CS9         0.0230
     52 H9         29.4802   16.0632   21.3364 H         1 CS9         0.0230
     53 H10        27.7880   16.6336   21.1418 H         1 CS9         0.0230
     54 H11        30.7429   13.1818   22.5090 H         1 CS9         0.0522
     55 H12        30.5770   13.7980   20.8299 H         1 CS9         0.0522
     56 H13        31.1863   11.3346   21.0012 H         1 CS9         0.0282
     57 H14        29.7052   11.6806   20.0454 H         1 CS9         0.0282
     58 H15        29.4110    9.6679   21.4608 H         1 CS9         0.0230
     59 H16        28.2971   10.9804   21.9739 H         1 CS9         0.0230
     60 H17        29.7782   10.6344   22.9297 H         1 CS9         0.0230
     61 H18        26.5542   17.6357   25.7979 H         1 CS9         0.0391
     62 H19        25.1314   16.9660   26.6660 H         1 CS9         0.0391
     63 H20        24.9028   17.8725   25.1321 H         1 CS9         0.0391
     64 H21        24.5895   11.3582   23.5669 H         1 CS9         0.1851
     65 H22        21.6958   11.3317   22.7762 H         1 CS9         0.0606
     66 H23        23.0298    9.3212   24.6465 H         1 CS9         0.0675
     67 H24        22.2004    9.3060   21.5388 H         1 CS9         0.0448
     68 H25        23.8080    9.1514   22.3250 H         1 CS9         0.0448
     69 H26        21.3982    8.4940   23.2525 H         1 CS9         0.2102
     70 H27        25.6022    9.6102   20.9196 H         1 CS9         0.0508
     71 H28        25.3717   12.6886   17.8611 H         1 CS9         0.0532
     72 H29        21.9429   11.8928   20.4053 H         1 CS9         0.0508
     73 H30        19.1375   12.4199   26.8734 H         1 CS9         0.0706
     74 H31        19.8971   10.2140   28.2648 H         1 CS9         0.0843
     75 H32        21.1060   11.5186   28.0133 H         1 CS9         0.0843
     76 H33        20.6978    9.1109   26.3357 H         1 CS9         0.2018
     77 H34        22.0571    9.5296   27.1643 H         1 CS9         0.2018
     78 H35        20.7455   12.6942   25.1783 H         1 CS9         0.0352
     79 H36        19.9235   11.3207   24.3631 H         1 CS9         0.0352
     80 H37        22.5056   11.3817   25.8756 H         1 CS9         0.0878
     81 H38        17.4133   12.9999   25.4607 H         1 CS9         0.0542
     82 H39        15.6549   13.2567   23.7136 H         1 CS9         0.0589
     83 H40        14.7032   11.2438   22.5858 H         1 CS9         0.0523
     84 H41        15.5071    8.9570   23.2081 H         1 CS9         0.0589
     85 H42        17.2663    8.6856   24.9533 H         1 CS9         0.0542
@<TRIPOS>BOND
     1    2    1 ar 
     2    6    1 ar 
     3    3    2 ar 
     4    2   16 1  
     5    4    3 ar 
     6    4    5 ar 
     7   17    4 1  
     8    5    6 ar 
     9    6    7 1  
    10    7    8 am 
    11    7    9 2  
    12    8   10 1  
    13    8   13 1  
    14   10   11 1  
    15   11   12 1  
    16   13   14 1  
    17   14   15 1  
    18   18   17 am 
    19   17   19 2  
    20   20   18 1  
    21   21   20 1  
    22   20   22 1  
    23   21   23 1  
    24   36   21 1  
    25   22   24 1  
    26   24   25 ar 
    27   24   29 ar 
    28   25   26 ar 
    29   26   27 ar 
    30   26   30 1  
    31   28   27 ar 
    32   29   28 ar 
    33   28   31 1  
    34   33   32 1  
    35   32   35 1  
    36   32   37 1  
    37   34   33 1  
    38   34   36 1  
    39   35   36 1  
    40   37   38 1  
    41   38   39 ar 
    42   38   43 ar 
    43   39   40 ar 
    44   40   41 ar 
    45   41   42 ar 
    46   42   43 ar 
    47    1   44 1  
    48    3   45 1  
    49    5   46 1  
    50   10   47 1  
    51   10   48 1  
    52   11   49 1  
    53   11   50 1  
    54   12   51 1  
    55   12   52 1  
    56   12   53 1  
    57   13   54 1  
    58   13   55 1  
    59   14   56 1  
    60   14   57 1  
    61   15   58 1  
    62   15   59 1  
    63   15   60 1  
    64   16   61 1  
    65   16   62 1  
    66   16   63 1  
    67   18   64 1  
    68   20   65 1  
    69   21   66 1  
    70   22   67 1  
    71   22   68 1  
    72   23   69 1  
    73   25   70 1  
    74   27   71 1  
    75   29   72 1  
    76   32   73 1  
    77   33   74 1  
    78   33   75 1  
    79   34   76 1  
    80   34   77 1  
    81   35   78 1  
    82   35   79 1  
    83   36   80 1  
    84   39   81 1  
    85   40   82 1  
    86   41   83 1  
    87   42   84 1  
    88   43   85 1  
@<TRIPOS>SUBSTRUCTURE
     1 CS9         1

