### 
### Created by X-TOOL on Mon Sep 10 21:12:57 2018
### 

@<TRIPOS>MOLECULE
2qmg_ligand
   84    88     1     0     0
SMALL
GAST_HUCK


@<TRIPOS>ATOM
      1 C1         26.8950   15.4300   24.6060 C.ar      1 SC6        -0.0367
      2 C2         25.6140   15.8480   25.0530 C.ar      1 SC6        -0.0353
      3 C3         24.4680   15.0650   24.7210 C.ar      1 SC6        -0.0367
      4 C4         24.6020   13.8730   23.9460 C.ar      1 SC6         0.0488
      5 C5         25.8780   13.4800   23.5200 C.ar      1 SC6        -0.0289
      6 C6         27.0340   14.2440   23.8330 C.ar      1 SC6         0.0490
      7 C7         28.3630   13.7810   23.3640 C.2       1 SC6         0.2072
      8 N1         28.5850   13.5240   21.9940 N.am      1 SC6        -0.2671
      9 O1         29.2740   13.6040   24.1700 O.2       1 SC6        -0.3844
     10 C8         27.6480   13.6690   20.8640 C.3       1 SC6         0.0339
     11 C9         28.5730   14.2600   19.7950 C.3       1 SC6        -0.0304
     12 C10        29.9380   13.5950   20.0480 C.3       1 SC6        -0.0257
     13 C11        29.8790   13.0510   21.4890 C.3       1 SC6         0.0678
     14 C12        29.9180   11.4990   21.4840 C.3       1 SC6         0.0704
     15 C30        25.4770   17.1080   25.8680 C.3       1 SC6        -0.0293
     16 C14        23.4140   13.0730   23.6040 C.2       1 SC6         0.2049
     17 N2         23.6280   11.7170   23.4740 N.am      1 SC6        -0.2784
     18 O2         22.3000   13.5750   23.4400 O.2       1 SC6        -0.3846
     19 C15        22.5560   10.7510   23.1270 C.3       1 SC6         0.0820
     20 C16        22.1050    9.9200   24.3510 C.3       1 SC6         0.1221
     21 C17        23.0700    9.8210   22.0060 C.3       1 SC6         0.0048
     22 O3         21.0380    9.0950   23.9460 O.3       1 SC6        -0.3837
     23 C19        23.7320   10.5240   20.8460 C.ar      1 SC6        -0.0445
     24 C21        25.0800   10.2200   20.5160 C.ar      1 SC6        -0.0310
     25 C22        25.6970   10.8750   19.4300 C.ar      1 SC6         0.1242
     26 C23        25.0260   11.8350   18.6460 C.ar      1 SC6        -0.0019
     27 C24        23.6860   12.1280   18.9880 C.ar      1 SC6         0.1242
     28 C25        23.0280   11.4950   20.0680 C.ar      1 SC6        -0.0310
     29 F2         26.9600   10.5720   19.1390 F         1 SC6        -0.1863
     30 F1         23.0270   13.0290   18.2670 F         1 SC6        -0.1863
     31 C26        19.4600   11.4820   26.4880 C.3       1 SC6         0.1258
     32 C18        20.3570   10.7930   27.5050 C.3       1 SC6        -0.0018
     33 N3         21.1720    9.8980   26.6800 N.4       1 SC6         0.2332
     34 C20        20.3960   11.6660   25.2810 C.3       1 SC6         0.0285
     35 C27        21.6090   10.7520   25.5660 C.3       1 SC6         0.0093
     36 O4         18.3940   10.5660   26.2380 O.3       1 SC6        -0.3093
     37 C31        17.4160   10.8750   25.2760 C.ar      1 SC6         0.0917
     38 C32        16.9480   12.1890   24.9230 C.ar      1 SC6        -0.0331
     39 C33        15.9540   12.3440   23.9290 C.ar      1 SC6        -0.0706
     40 C34        15.4200   11.2040   23.2780 C.ar      1 SC6        -0.0729
     41 C35        15.8810    9.9120   23.6250 C.ar      1 SC6        -0.0706
     42 C36        16.8730    9.7540   24.6170 C.ar      1 SC6        -0.0331
     43 C37        29.4570    9.5810   22.8470 C.3       1 SC6         0.0365
     44 O5         29.6270   10.9820   22.7780 O.3       1 SC6        -0.3807
     45 H1         27.7714   16.0174   24.8549 H         1 SC6         0.0642
     46 H2         23.4871   15.3778   25.0601 H         1 SC6         0.0642
     47 H3         25.9854   12.5718   22.9380 H         1 SC6         0.0665
     48 H4         26.8227   14.3540   21.1082 H         1 SC6         0.0522
     49 H5         27.2378   12.6974   20.5515 H         1 SC6         0.0522
     50 H6         28.6469   15.3518   19.9066 H         1 SC6         0.0285
     51 H7         28.2049   14.0185   18.7870 H         1 SC6         0.0285
     52 H8         30.7478   14.3330   19.9500 H         1 SC6         0.0289
     53 H9         30.1021   12.7737   19.3349 H         1 SC6         0.0289
     54 H10        30.7089   13.4437   22.0948 H         1 SC6         0.0581
     55 H11        30.9205   11.1644   21.1791 H         1 SC6         0.0583
     56 H12        29.1722   11.1218   20.7689 H         1 SC6         0.0583
     57 H13        26.4691   17.5605   26.0131 H         1 SC6         0.0391
     58 H14        25.0379   16.8656   26.8470 H         1 SC6         0.0391
     59 H15        24.8242   17.8178   25.3389 H         1 SC6         0.0391
     60 H16        24.5530   11.3665   23.6211 H         1 SC6         0.1851
     61 H17        21.6870   11.3123   22.7532 H         1 SC6         0.0606
     62 H18        22.9529    9.3002   24.6780 H         1 SC6         0.0675
     63 H19        22.2136    9.2516   21.6158 H         1 SC6         0.0448
     64 H20        23.8013    9.1275   22.4467 H         1 SC6         0.0448
     65 H21        21.3305    8.5207   23.2481 H         1 SC6         0.2102
     66 H22        25.6313    9.4886   21.0958 H         1 SC6         0.0508
     67 H23        25.5172   12.3283   17.8151 H         1 SC6         0.0532
     68 H24        21.9996   11.7437   20.3037 H         1 SC6         0.0508
     69 H25        19.0704   12.4473   26.8434 H         1 SC6         0.0706
     70 H26        19.7619   10.2242   28.2346 H         1 SC6         0.0843
     71 H27        20.9863   11.5233   28.0348 H         1 SC6         0.0843
     72 H28        20.6247    9.1211   26.3440 H         1 SC6         0.2018
     73 H29        21.9635    9.5518   27.1993 H         1 SC6         0.2018
     74 H30        20.7151   12.7153   25.1967 H         1 SC6         0.0352
     75 H31        19.8924   11.3601   24.3521 H         1 SC6         0.0352
     76 H32        22.4509   11.3777   25.8971 H         1 SC6         0.0878
     77 H33        17.3578   13.0611   25.4195 H         1 SC6         0.0542
     78 H34        15.6007   13.3343   23.6652 H         1 SC6         0.0589
     79 H35        14.6591   11.3217   22.5150 H         1 SC6         0.0523
     80 H36        15.4711    9.0405   23.1274 H         1 SC6         0.0589
     81 H37        17.2206    8.7600   24.8744 H         1 SC6         0.0542
     82 H38        29.2375    9.2890   23.8846 H         1 SC6         0.0524
     83 H39        30.3792    9.0828   22.5132 H         1 SC6         0.0524
     84 H40        28.6220    9.2805   22.1970 H         1 SC6         0.0524
@<TRIPOS>BOND
     1    2    1 ar 
     2    6    1 ar 
     3    3    2 ar 
     4    2   15 1  
     5    4    3 ar 
     6    4    5 ar 
     7   16    4 1  
     8    5    6 ar 
     9    6    7 1  
    10    7    8 am 
    11    7    9 2  
    12    8   10 1  
    13    8   13 1  
    14   10   11 1  
    15   12   11 1  
    16   13   12 1  
    17   13   14 1  
    18   14   44 1  
    19   17   16 am 
    20   16   18 2  
    21   19   17 1  
    22   20   19 1  
    23   19   21 1  
    24   20   22 1  
    25   35   20 1  
    26   21   23 1  
    27   23   24 ar 
    28   23   28 ar 
    29   24   25 ar 
    30   25   26 ar 
    31   25   29 1  
    32   27   26 ar 
    33   28   27 ar 
    34   27   30 1  
    35   32   31 1  
    36   31   34 1  
    37   31   36 1  
    38   33   32 1  
    39   33   35 1  
    40   34   35 1  
    41   36   37 1  
    42   37   38 ar 
    43   37   42 ar 
    44   38   39 ar 
    45   39   40 ar 
    46   40   41 ar 
    47   41   42 ar 
    48   44   43 1  
    49    1   45 1  
    50    3   46 1  
    51    5   47 1  
    52   10   48 1  
    53   10   49 1  
    54   11   50 1  
    55   11   51 1  
    56   12   52 1  
    57   12   53 1  
    58   13   54 1  
    59   14   55 1  
    60   14   56 1  
    61   15   57 1  
    62   15   58 1  
    63   15   59 1  
    64   17   60 1  
    65   19   61 1  
    66   20   62 1  
    67   21   63 1  
    68   21   64 1  
    69   22   65 1  
    70   24   66 1  
    71   26   67 1  
    72   28   68 1  
    73   31   69 1  
    74   32   70 1  
    75   32   71 1  
    76   33   72 1  
    77   33   73 1  
    78   34   74 1  
    79   34   75 1  
    80   35   76 1  
    81   38   77 1  
    82   39   78 1  
    83   40   79 1  
    84   41   80 1  
    85   42   81 1  
    86   43   82 1  
    87   43   83 1  
    88   43   84 1  
@<TRIPOS>SUBSTRUCTURE
     1 SC6         1

