### 
### Created by X-TOOL on Mon Sep 10 21:12:57 2018
### 

@<TRIPOS>MOLECULE
2qn1_ligand
   82    86     1     0     0
SMALL
GAST_HUCK


@<TRIPOS>ATOM
      1 O3         24.0630   -4.0930   54.4410 O.3       1 0AS        -0.3886
      2 C3         25.2010   -3.2240   54.4770 C.3       1 0AS         0.0888
      3 C2         26.4510   -3.9890   54.0000 C.3       1 0AS         0.0823
      4 O2         26.6610   -5.1290   54.8330 O.3       1 0AS        -0.3892
      5 C1         27.7130   -3.1050   54.0280 C.3       1 0AS        -0.0169
      6 C10        27.5730   -1.8210   53.1800 C.3       1 0AS        -0.0164
      7 C25        27.5740   -2.2000   51.6830 C.3       1 0AS        -0.0574
      8 C9         28.7670   -0.8740   53.5280 C.3       1 0AS        -0.0127
      9 C11        30.1520   -1.5300   53.2460 C.2       1 0AS        -0.0942
     10 C12        31.2010   -0.6130   53.3080 C.2       1 0AS        -0.0946
     11 C13        31.1340    0.7640   53.5550 C.3       1 0AS        -0.0154
     12 C18        32.4780    1.5490   53.5500 C.3       1 0AS        -0.0181
     13 C19        33.1830    1.4460   54.9430 C.3       1 0AS        -0.0367
     14 C29        33.9140    0.0980   55.0530 C.3       1 0AS        -0.0618
     15 C20        34.1700    2.5850   55.3180 C.3       1 0AS        -0.0410
     16 C30        34.2930    2.7110   56.8430 C.3       1 0AS        -0.0622
     17 C21        33.8380    3.9620   54.7100 C.3       1 0AS        -0.0502
     18 C22        33.4940    3.8750   53.2140 C.3       1 0AS        -0.0422
     19 C17        32.2690    2.9810   52.9600 C.3       1 0AS         0.0209
     20 C28        32.0460    2.8920   51.4300 C.2       1 0AS         0.0514
     21 O29        31.5370    3.8900   50.8700 O.co2     1 0AS        -0.5475
     22 O28        32.3830    1.8360   50.8440 O.co2     1 0AS        -0.5475
     23 C16        31.0340    3.6720   53.5870 C.3       1 0AS        -0.0418
     24 C15        29.7290    2.9110   53.3090 C.3       1 0AS        -0.0452
     25 C14        29.7490    1.4490   53.8050 C.3       1 0AS        -0.0155
     26 C27        29.4620    1.4410   55.3240 C.3       1 0AS        -0.0571
     27 C8         28.6720    0.6210   53.0330 C.3       1 0AS        -0.0151
     28 C26        28.8850    0.7740   51.5080 C.3       1 0AS        -0.0571
     29 C7         27.2630    1.2120   53.3430 C.3       1 0AS        -0.0449
     30 C6         26.1010    0.2970   52.9260 C.3       1 0AS        -0.0482
     31 C5         26.2570   -1.0760   53.6200 C.3       1 0AS        -0.0238
     32 C4         24.9440   -1.9360   53.6580 C.3       1 0AS         0.0228
     33 C24        24.4220   -2.2820   52.2530 C.3       1 0AS        -0.0547
     34 C23        23.8220   -1.1300   54.3430 C.3       1 0AS         0.0523
     35 O23        24.2150   -0.6630   55.6320 O.3       1 0AS        -0.3944
     36 H1         23.2944   -3.6187   54.7355 H         1 0AS         0.2099
     37 H2         25.3688   -2.9238   55.5218 H         1 0AS         0.0625
     38 H3         26.2812   -4.3253   52.9665 H         1 0AS         0.0619
     39 H4         25.9030   -5.6996   54.7840 H         1 0AS         0.2099
     40 H5         28.5592   -3.6905   53.6394 H         1 0AS         0.0298
     41 H6         27.9149   -2.8160   55.0700 H         1 0AS         0.0298
     42 H7         27.4745   -1.2893   51.0742 H         1 0AS         0.0237
     43 H8         26.7301   -2.8741   51.4748 H         1 0AS         0.0237
     44 H9         28.5181   -2.7064   51.4336 H         1 0AS         0.0237
     45 H10        28.7209   -0.7871   54.6236 H         1 0AS         0.0434
     46 H11        30.2861   -2.5879   53.0249 H         1 0AS         0.0453
     47 H12        32.1981   -1.0189   53.1436 H         1 0AS         0.0453
     48 H13        31.2347    0.5907   54.6366 H         1 0AS         0.0431
     49 H14        33.1456    1.0336   52.8439 H         1 0AS         0.0323
     50 H15        32.3835    1.4625   55.6983 H         1 0AS         0.0304
     51 H16        34.4087    0.0281   56.0330 H         1 0AS         0.0233
     52 H17        34.6680    0.0236   54.2556 H         1 0AS         0.0233
     53 H18        33.1884   -0.7222   54.9493 H         1 0AS         0.0233
     54 H19        35.1547    2.2918   54.9251 H         1 0AS         0.0301
     55 H20        34.9951    3.5214   57.0885 H         1 0AS         0.0233
     56 H21        34.6658    1.7640   57.2603 H         1 0AS         0.0233
     57 H22        33.3063    2.9379   57.2730 H         1 0AS         0.0233
     58 H23        34.7090    4.6223   54.8343 H         1 0AS         0.0267
     59 H24        32.9765    4.3865   55.2463 H         1 0AS         0.0267
     60 H25        34.3569    3.4581   52.6740 H         1 0AS         0.0263
     61 H26        33.2803    4.8866   52.8385 H         1 0AS         0.0263
     62 H27        30.9469    4.6857   53.1689 H         1 0AS         0.0263
     63 H28        31.1801    3.7355   54.6754 H         1 0AS         0.0263
     64 H29        29.5529    2.9075   52.2232 H         1 0AS         0.0271
     65 H30        28.9050    3.4378   53.8125 H         1 0AS         0.0271
     66 H31        30.2316    2.0289   55.8456 H         1 0AS         0.0237
     67 H32        29.4778    0.4055   55.6947 H         1 0AS         0.0237
     68 H33        28.4725    1.8829   55.5126 H         1 0AS         0.0237
     69 H34        28.1239    0.1889   50.9710 H         1 0AS         0.0237
     70 H35        29.8866    0.4073   51.2390 H         1 0AS         0.0237
     71 H36        28.7959    1.8345   51.2299 H         1 0AS         0.0237
     72 H37        27.1619    2.1671   52.8067 H         1 0AS         0.0272
     73 H38        27.1924    1.3903   54.4261 H         1 0AS         0.0272
     74 H39        26.1142    0.1606   51.8346 H         1 0AS         0.0269
     75 H40        25.1469    0.7544   53.2269 H         1 0AS         0.0269
     76 H41        26.4333   -0.8287   54.6772 H         1 0AS         0.0314
     77 H42        23.5046   -2.8827   52.3403 H         1 0AS         0.0237
     78 H43        25.1861   -2.8567   51.7091 H         1 0AS         0.0237
     79 H44        24.2018   -1.3541   51.7048 H         1 0AS         0.0237
     80 H45        22.9371   -1.7741   54.4525 H         1 0AS         0.0563
     81 H46        23.5698   -0.2645   53.7127 H         1 0AS         0.0563
     82 H47        24.4293   -1.4053   56.1847 H         1 0AS         0.2094
@<TRIPOS>BOND
     1    1    2 1  
     2    2    3 1  
     3    2   32 1  
     4    3    4 1  
     5    3    5 1  
     6    5    6 1  
     7    6    7 1  
     8    6    8 1  
     9    6   31 1  
    10    8    9 1  
    11    8   27 1  
    12    9   10 2  
    13   10   11 1  
    14   11   12 1  
    15   11   25 1  
    16   12   13 1  
    17   12   19 1  
    18   13   14 1  
    19   13   15 1  
    20   15   16 1  
    21   15   17 1  
    22   17   18 1  
    23   18   19 1  
    24   19   20 1  
    25   19   23 1  
    26   20   21 ar 
    27   20   22 ar 
    28   23   24 1  
    29   24   25 1  
    30   25   26 1  
    31   25   27 1  
    32   27   28 1  
    33   27   29 1  
    34   29   30 1  
    35   30   31 1  
    36   31   32 1  
    37   32   33 1  
    38   32   34 1  
    39   34   35 1  
    40    1   36 1  
    41    2   37 1  
    42    3   38 1  
    43    4   39 1  
    44    5   40 1  
    45    5   41 1  
    46    7   42 1  
    47    7   43 1  
    48    7   44 1  
    49    8   45 1  
    50    9   46 1  
    51   10   47 1  
    52   11   48 1  
    53   12   49 1  
    54   13   50 1  
    55   14   51 1  
    56   14   52 1  
    57   14   53 1  
    58   15   54 1  
    59   16   55 1  
    60   16   56 1  
    61   16   57 1  
    62   17   58 1  
    63   17   59 1  
    64   18   60 1  
    65   18   61 1  
    66   23   62 1  
    67   23   63 1  
    68   24   64 1  
    69   24   65 1  
    70   26   66 1  
    71   26   67 1  
    72   26   68 1  
    73   28   69 1  
    74   28   70 1  
    75   28   71 1  
    76   29   72 1  
    77   29   73 1  
    78   30   74 1  
    79   30   75 1  
    80   31   76 1  
    81   33   77 1  
    82   33   78 1  
    83   33   79 1  
    84   34   80 1  
    85   34   81 1  
    86   35   82 1  
@<TRIPOS>SUBSTRUCTURE
     1 0AS         1

