### 
### Created by X-TOOL on Mon Sep 10 21:12:57 2018
### 

@<TRIPOS>MOLECULE
2qn2_ligand
   81    85     1     0     0
SMALL
GAST_HUCK


@<TRIPOS>ATOM
      1 O3         24.2160   -3.8110   54.4740 O.3       1 0MA        -0.3887
      2 C3         25.3170   -2.8950   54.5200 C.3       1 0MA         0.0864
      3 C4         24.9610   -1.5680   53.8050 C.3       1 0MA        -0.0032
      4 C23        23.9000   -0.8540   54.6470 C.3       1 0MA        -0.0571
      5 C24        24.3780   -1.8350   52.4060 C.3       1 0MA        -0.0571
      6 C5         26.2450   -0.6570   53.7420 C.3       1 0MA        -0.0274
      7 C6         26.0210    0.7560   53.1370 C.3       1 0MA        -0.0498
      8 C7         27.1840    1.6800   53.5460 C.3       1 0MA        -0.0591
      9 C8         28.6020    1.1560   53.1670 C.3       1 0MA        -0.0634
     10 C26        28.8110    1.4150   51.6600 C.3       1 0MA        -0.0714
     11 C14        29.6970    1.8990   53.9970 C.3       1 0MA        -0.0644
     12 C27        29.4670    1.7310   55.5170 C.3       1 0MA        -0.1042
     13 C15        29.7220    3.4170   53.6760 C.3       1 0MA        -0.0922
     14 C16        31.0640    4.1130   53.9970 C.3       1 0MA        -0.0533
     15 C17        32.2340    3.4640   53.2370 C.3       1 0MA         0.0254
     16 C28        31.8920    3.5130   51.7230 C.2       1 0MA         0.0529
     17 O28        32.1520    2.5120   51.0140 O.co2     1 0MA        -0.5474
     18 O29        31.3710    4.5680   51.2990 O.co2     1 0MA        -0.5474
     19 C22        33.5450    4.2610   53.4570 C.3       1 0MA        -0.0405
     20 C21        34.3210    3.9610   54.7730 C.3       1 0MA        -0.0476
     21 C20        34.4210    2.4770   55.2100 C.3       1 0MA        -0.0332
     22 C29        35.4130    1.6780   54.3510 C.3       1 0MA        -0.0597
     23 C30        34.8850    2.4060   56.6650 C.3       1 0MA        -0.0597
     24 C19        33.0210    1.8440   55.1270 C.3       1 0MA        -0.0371
     25 C18        32.4110    1.9910   53.7120 C.3       1 0MA        -0.0057
     26 C13        31.0790    1.2320   53.6480 C.2       1 0MA        -0.0638
     27 C12        31.1720   -0.1020   53.2490 C.2       1 0MA        -0.0128
     28 C11        30.1250   -1.0030   53.0930 C.3       1 0MA         0.0237
     29 C9         28.7570   -0.3920   53.5200 C.3       1 0MA        -0.0168
     30 C10        27.5520   -1.3300   53.1860 C.3       1 0MA        -0.0197
     31 C25        27.5140   -1.6560   51.6720 C.3       1 0MA        -0.0586
     32 C1         27.7950   -2.6600   53.9470 C.3       1 0MA        -0.0181
     33 C2         26.5700   -3.5910   53.9510 C.3       1 0MA         0.0821
     34 O2         26.8700   -4.7420   54.7400 O.3       1 0MA        -0.3892
     35 H1         23.4642   -3.4226   54.9058 H         1 0MA         0.2099
     36 H2         25.5197   -2.6536   55.5739 H         1 0MA         0.0624
     37 H3         23.6257    0.0951   54.1633 H         1 0MA         0.0236
     38 H4         24.3033   -0.6512   55.6501 H         1 0MA         0.0236
     39 H5         23.0087   -1.4929   54.7325 H         1 0MA         0.0236
     40 H6         25.1291   -2.3483   51.7877 H         1 0MA         0.0236
     41 H7         24.1054   -0.8796   51.9339 H         1 0MA         0.0236
     42 H8         23.4829   -2.4679   52.4964 H         1 0MA         0.0236
     43 H9         26.4737   -0.4655   54.8008 H         1 0MA         0.0312
     44 H10        25.0740    1.1701   53.5133 H         1 0MA         0.0268
     45 H11        25.9791    0.6829   52.0402 H         1 0MA         0.0268
     46 H12        27.1486    1.8113   54.6375 H         1 0MA         0.0258
     47 H13        27.0366    2.6530   53.0546 H         1 0MA         0.0258
     48 H14        28.0349    0.8874   51.0862 H         1 0MA         0.0223
     49 H15        29.8031    1.0475   51.3589 H         1 0MA         0.0223
     50 H16        28.7439    2.4947   51.4607 H         1 0MA         0.0223
     51 H17        30.2545    2.2657   56.0683 H         1 0MA         0.0068
     52 H18        29.4985    0.6626   55.7768 H         1 0MA         0.0068
     53 H19        28.4845    2.1453   55.7872 H         1 0MA         0.0068
     54 H20        28.9311    3.9064   54.2633 H         1 0MA         0.0103
     55 H21        29.5152    3.5457   52.6033 H         1 0MA         0.0103
     56 H22        31.2553    4.0388   55.0777 H         1 0MA         0.0251
     57 H23        30.9948    5.1723   53.7088 H         1 0MA         0.0251
     58 H24        33.2913    5.3313   53.4540 H         1 0MA         0.0264
     59 H25        34.2167    4.0410   52.6141 H         1 0MA         0.0264
     60 H26        33.8237    4.5127   55.5843 H         1 0MA         0.0270
     61 H27        35.3462    4.3393   54.6470 H         1 0MA         0.0270
     62 H28        35.4454    0.6360   54.7019 H         1 0MA         0.0235
     63 H29        36.4145    2.1248   54.4361 H         1 0MA         0.0235
     64 H30        35.0893    1.7010   53.3000 H         1 0MA         0.0235
     65 H31        34.1881    2.9725   57.3001 H         1 0MA         0.0235
     66 H32        35.8928    2.8386   56.7500 H         1 0MA         0.0235
     67 H33        34.9079    1.3559   56.9918 H         1 0MA         0.0235
     68 H34        32.3611    2.3409   55.8533 H         1 0MA         0.0292
     69 H35        33.0978    0.7746   55.3730 H         1 0MA         0.0292
     70 H36        33.1064    1.5105   53.0081 H         1 0MA         0.0435
     71 H37        32.1720   -0.4774   53.0371 H         1 0MA         0.1467
     72 H38        30.3255   -1.8903   53.7115 H         1 0MA         0.0680
     73 H39        30.0664   -1.2989   52.0352 H         1 0MA         0.0680
     74 H40        28.7902   -0.3979   54.6195 H         1 0MA         0.0353
     75 H41        26.6598   -2.3160   51.4604 H         1 0MA         0.0235
     76 H42        28.4476   -2.1603   51.3819 H         1 0MA         0.0235
     77 H43        27.4076   -0.7233   51.0986 H         1 0MA         0.0235
     78 H44        28.0572   -2.4234   54.9888 H         1 0MA         0.0296
     79 H45        28.6332   -3.1879   53.4688 H         1 0MA         0.0296
     80 H46        26.3600   -3.9036   52.9175 H         1 0MA         0.0619
     81 H47        26.1187   -5.3234   54.7484 H         1 0MA         0.2099
@<TRIPOS>BOND
     1    1    2 1  
     2    2    3 1  
     3    2   33 1  
     4    3    4 1  
     5    3    5 1  
     6    3    6 1  
     7    6    7 1  
     8    6   30 1  
     9    7    8 1  
    10    8    9 1  
    11    9   10 1  
    12    9   11 1  
    13    9   29 1  
    14   11   12 1  
    15   11   13 1  
    16   11   26 1  
    17   13   14 1  
    18   14   15 1  
    19   15   16 1  
    20   15   19 1  
    21   15   25 1  
    22   16   17 ar 
    23   16   18 ar 
    24   19   20 1  
    25   20   21 1  
    26   21   22 1  
    27   21   23 1  
    28   21   24 1  
    29   24   25 1  
    30   25   26 1  
    31   26   27 2  
    32   27   28 1  
    33   28   29 1  
    34   29   30 1  
    35   30   31 1  
    36   30   32 1  
    37   32   33 1  
    38   33   34 1  
    39    1   35 1  
    40    2   36 1  
    41    4   37 1  
    42    4   38 1  
    43    4   39 1  
    44    5   40 1  
    45    5   41 1  
    46    5   42 1  
    47    6   43 1  
    48    7   44 1  
    49    7   45 1  
    50    8   46 1  
    51    8   47 1  
    52   10   48 1  
    53   10   49 1  
    54   10   50 1  
    55   12   51 1  
    56   12   52 1  
    57   12   53 1  
    58   13   54 1  
    59   13   55 1  
    60   14   56 1  
    61   14   57 1  
    62   19   58 1  
    63   19   59 1  
    64   20   60 1  
    65   20   61 1  
    66   22   62 1  
    67   22   63 1  
    68   22   64 1  
    69   23   65 1  
    70   23   66 1  
    71   23   67 1  
    72   24   68 1  
    73   24   69 1  
    74   25   70 1  
    75   27   71 1  
    76   28   72 1  
    77   28   73 1  
    78   29   74 1  
    79   31   75 1  
    80   31   76 1  
    81   31   77 1  
    82   32   78 1  
    83   32   79 1  
    84   33   80 1  
    85   34   81 1  
@<TRIPOS>SUBSTRUCTURE
     1 0MA         1

