### 
### Created by X-TOOL on Mon Sep 10 21:12:57 2018
### 

@<TRIPOS>MOLECULE
2qn3_ligand
   41    42     1     0     0
SMALL
GAST_HUCK


@<TRIPOS>ATOM
      1 C14        35.8240   25.8530   34.2070 C.ar      1 F55        -0.0411
      2 C13        36.9520   26.3210   34.8820 C.ar      1 F55        -0.0422
      3 C12        38.0560   26.7640   34.1530 C.ar      1 F55         0.0450
      4 CL1        39.4610   27.3440   34.9890 Cl        1 F55        -0.0665
      5 C11        38.0370   26.7420   32.7590 C.ar      1 F55        -0.0422
      6 C10        36.9070   26.2750   32.0830 C.ar      1 F55        -0.0411
      7 C9         35.8000   25.8280   32.8100 C.ar      1 F55         0.0551
      8 C8         34.5490   25.3040   32.0840 C.2       1 F55         0.2333
      9 O8         33.4320   25.4690   32.5800 O.2       1 F55        -0.3744
     10 N2         34.7960   24.6790   30.9190 N.am      1 F55        -0.1846
     11 C7         33.8620   24.1360   30.1190 C.2       1 F55         0.2892
     12 O7         32.6550   24.1650   30.3840 O.2       1 F55        -0.3915
     13 N1         34.3180   23.5620   29.0000 N.am      1 F55        -0.2397
     14 C1         33.3870   22.9280   28.0250 C.3       1 F55         0.1725
     15 O5         33.3520   21.5000   28.2530 O.3       1 F55        -0.3438
     16 C5         32.2800   20.8800   27.4940 C.3       1 F55         0.1127
     17 C6         32.2130   19.4090   27.9320 C.3       1 F55         0.0730
     18 O6         33.2950   18.6770   27.3460 O.3       1 F55        -0.3924
     19 C4         32.4990   21.0580   25.9720 C.3       1 F55         0.1119
     20 O4         31.3390   20.6100   25.2600 O.3       1 F55        -0.3865
     21 C3         32.7960   22.5260   25.5980 C.3       1 F55         0.1138
     22 O3         33.2980   22.5760   24.2570 O.3       1 F55        -0.3864
     23 C2         33.8170   23.1610   26.5650 C.3       1 F55         0.1306
     24 O2         33.9640   24.5610   26.2990 O.3       1 F55        -0.3844
     25 H1         34.9633   25.5076   34.7682 H         1 F55         0.0669
     26 H2         36.9704   26.3402   35.9657 H         1 F55         0.0634
     27 H3         38.8990   27.0872   32.1997 H         1 F55         0.0634
     28 H4         36.8888   26.2594   30.9993 H         1 F55         0.0669
     29 H5         35.7494   24.6130   30.6247 H         1 F55         0.2248
     30 H6         35.3007   23.5584   28.8148 H         1 F55         0.1879
     31 H7         32.3819   23.3496   28.1731 H         1 F55         0.0893
     32 H8         31.3285   21.3665   27.7549 H         1 F55         0.0647
     33 H9         31.2578   18.9736   27.6035 H         1 F55         0.0584
     34 H10        32.2847   19.3510   29.0281 H         1 F55         0.0584
     35 H11        34.1203   19.0521   27.6302 H         1 F55         0.2095
     36 H12        33.3598   20.4424   25.6720 H         1 F55         0.0647
     37 H13        30.5853   21.1206   25.5316 H         1 F55         0.2100
     38 H14        31.8593   23.1001   25.6519 H         1 F55         0.0647
     39 H15        33.4822   23.4779   24.0225 H         1 F55         0.2100
     40 H16        34.7915   22.6753   26.4084 H         1 F55         0.0668
     41 H17        33.1253   24.9931   26.4102 H         1 F55         0.2101
@<TRIPOS>BOND
     1    1    2 ar 
     2    1    7 ar 
     3    2    3 ar 
     4    3    4 1  
     5    3    5 ar 
     6    5    6 ar 
     7    6    7 ar 
     8    7    8 1  
     9    8    9 2  
    10    8   10 am 
    11   10   11 am 
    12   11   12 2  
    13   11   13 am 
    14   13   14 1  
    15   14   15 1  
    16   14   23 1  
    17   15   16 1  
    18   16   17 1  
    19   16   19 1  
    20   17   18 1  
    21   19   20 1  
    22   19   21 1  
    23   21   22 1  
    24   21   23 1  
    25   23   24 1  
    26    1   25 1  
    27    2   26 1  
    28    5   27 1  
    29    6   28 1  
    30   10   29 1  
    31   13   30 1  
    32   14   31 1  
    33   16   32 1  
    34   17   33 1  
    35   17   34 1  
    36   18   35 1  
    37   19   36 1  
    38   20   37 1  
    39   21   38 1  
    40   22   39 1  
    41   23   40 1  
    42   24   41 1  
@<TRIPOS>SUBSTRUCTURE
     1 F55         1

