### 
### Created by X-TOOL on Mon Sep 10 21:12:58 2018
### 

@<TRIPOS>MOLECULE
2qnb_ligand
   41    42     1     0     0
SMALL
GAST_HUCK


@<TRIPOS>ATOM
      1 O5         33.2690   21.6000   28.3550 O.3       1 BZD        -0.3438
      2 C1         33.3250   23.0170   28.0760 C.3       1 BZD         0.1725
      3 C2         33.7860   23.1820   26.6150 C.3       1 BZD         0.1306
      4 O2         33.9870   24.5640   26.3150 O.3       1 BZD        -0.3844
      5 C3         32.7460   22.5530   25.6620 C.3       1 BZD         0.1138
      6 O3         33.2050   22.5940   24.3020 O.3       1 BZD        -0.3864
      7 C4         32.4610   21.0920   26.0620 C.3       1 BZD         0.1119
      8 O4         31.3240   20.5970   25.3410 O.3       1 BZD        -0.3865
      9 C5         32.2230   20.9420   27.5860 C.3       1 BZD         0.1127
     10 C6         32.1840   19.4770   28.0500 C.3       1 BZD         0.0730
     11 O6         33.2640   18.7340   27.4580 O.3       1 BZD        -0.3924
     12 N1         34.2380   23.6330   29.0770 N.am      1 BZD        -0.2397
     13 C7         33.7460   24.1970   30.1860 C.2       1 BZD         0.2892
     14 O7         32.5350   24.2170   30.4150 O.2       1 BZD        -0.3915
     15 N2         34.6460   24.7240   31.0320 N.am      1 BZD        -0.1846
     16 C8         34.3310   25.3260   32.1920 C.2       1 BZD         0.2333
     17 O8         33.1870   25.4740   32.6300 O.2       1 BZD        -0.3744
     18 C9         35.5300   25.8380   33.0020 C.ar      1 BZD         0.0551
     19 C10        36.7060   26.2370   32.3620 C.ar      1 BZD        -0.0415
     20 C11        37.7810   26.6870   33.1360 C.ar      1 BZD        -0.0561
     21 C12        37.6780   26.7360   34.5270 C.ar      1 BZD        -0.0575
     22 C13        36.5040   26.3450   35.1700 C.ar      1 BZD        -0.0561
     23 C14        35.4330   25.8900   34.3990 C.ar      1 BZD        -0.0415
     24 H1         32.3261   23.4646   28.1850 H         1 BZD         0.0893
     25 H2         34.7426   22.6547   26.4854 H         1 BZD         0.0668
     26 H3         33.1720   25.0358   26.4399 H         1 BZD         0.2101
     27 H4         31.8119   23.1291   25.7363 H         1 BZD         0.0647
     28 H5         33.3486   23.4970   24.0445 H         1 BZD         0.2100
     29 H6         33.3381   20.4861   25.7909 H         1 BZD         0.0647
     30 H7         30.5647   21.1305   25.5443 H         1 BZD         0.2100
     31 H8         31.2565   21.4112   27.8220 H         1 BZD         0.0647
     32 H9         31.2266   19.0268   27.7487 H         1 BZD         0.0584
     33 H10        32.2774   19.4412   29.1454 H         1 BZD         0.0584
     34 H11        34.0923   19.1195   27.7185 H         1 BZD         0.2095
     35 H12        35.2255   23.6253   28.9197 H         1 BZD         0.1879
     36 H13        35.6127   24.6648   30.7831 H         1 BZD         0.2248
     37 H14        36.7844   26.1985   31.2815 H         1 BZD         0.0670
     38 H15        38.6995   26.9995   32.6524 H         1 BZD         0.0629
     39 H16        38.5206   27.0821   35.1145 H         1 BZD         0.0653
     40 H17        36.4245   26.3936   36.2500 H         1 BZD         0.0629
     41 H18        34.5174   25.5738   34.8856 H         1 BZD         0.0670
@<TRIPOS>BOND
     1    1    2 1  
     2    1    9 1  
     3    2    3 1  
     4    2   12 1  
     5    3    4 1  
     6    3    5 1  
     7    5    6 1  
     8    5    7 1  
     9    7    8 1  
    10    7    9 1  
    11    9   10 1  
    12   10   11 1  
    13   12   13 am 
    14   13   14 2  
    15   13   15 am 
    16   15   16 am 
    17   16   17 2  
    18   16   18 1  
    19   18   19 ar 
    20   18   23 ar 
    21   19   20 ar 
    22   20   21 ar 
    23   21   22 ar 
    24   22   23 ar 
    25    2   24 1  
    26    3   25 1  
    27    4   26 1  
    28    5   27 1  
    29    6   28 1  
    30    7   29 1  
    31    8   30 1  
    32    9   31 1  
    33   10   32 1  
    34   10   33 1  
    35   11   34 1  
    36   12   35 1  
    37   15   36 1  
    38   19   37 1  
    39   20   38 1  
    40   21   39 1  
    41   22   40 1  
    42   23   41 1  
@<TRIPOS>SUBSTRUCTURE
     1 BZD         1

