### 
### Created by X-TOOL on Mon Sep 10 21:12:57 2018
### 

@<TRIPOS>MOLECULE
2qnn_ligand
   85    89     1     0     0
SMALL
GAST_HUCK


@<TRIPOS>ATOM
      1 N1          5.4650  -14.7950  -15.7110 N.am      1 QN1        -0.3001
      2 C8          6.6870  -14.4800  -15.2260 C.2       1 QN1         0.2025
      3 C6          7.7030  -15.5870  -15.1660 C.ar      1 QN1         0.0498
      4 C2          8.9190  -15.3360  -14.5120 C.ar      1 QN1        -0.0401
      5 C18         9.8700  -16.3580  -14.4340 C.ar      1 QN1        -0.0295
      6 C27         9.5590  -17.6180  -14.9240 C.ar      1 QN1         0.1128
      7 C20         8.3650  -17.8910  -15.6180 C.ar      1 QN1        -0.0295
      8 C5          7.4340  -16.8520  -15.7020 C.ar      1 QN1        -0.0401
      9 S9         10.7120  -18.9050  -14.7960 S.o2      1 QN1         0.0753
     10 O40        11.0780  -18.9590  -13.3840 O.2       1 QN1        -0.1494
     11 O11        10.0950  -20.0770  -15.4220 O.2       1 QN1        -0.1494
     12 N32        12.1460  -18.5450  -15.6620 N.am      1 QN1        -0.2069
     13 C33        13.3740  -18.2470  -14.9170 C.3       1 QN1         0.0789
     14 C34        14.1730  -19.5530  -14.6580 C.ar      1 QN1         0.0074
     15 C38        15.5200  -19.6240  -15.0740 C.ar      1 QN1        -0.0266
     16 C39        16.2970  -20.7690  -14.8450 C.ar      1 QN1        -0.0371
     17 C37        15.7060  -21.8970  -14.2370 C.ar      1 QN1         0.0385
     18 C10        16.5620  -23.1420  -13.9740 C.3       1 QN1         0.3684
     19 F6         16.0650  -24.2710  -14.5290 F         1 QN1        -0.2274
     20 F5         17.8310  -22.9200  -14.4370 F         1 QN1        -0.2274
     21 F4         16.6890  -23.2940  -12.6310 F         1 QN1        -0.2274
     22 C36        14.3730  -21.8360  -13.8250 C.ar      1 QN1        -0.0371
     23 C35        13.6040  -20.6820  -14.0630 C.ar      1 QN1        -0.0266
     24 C24        12.0200  -18.6950  -17.1220 C.3       1 QN1         0.1085
     25 C25        12.7820  -17.6020  -17.8960 C.3       1 QN1        -0.0110
     26 N22        14.1300  -18.1670  -18.2000 N.4       1 QN1         0.2298
     27 C21        14.0500  -19.6200  -18.2230 C.3       1 QN1        -0.0110
     28 C23        12.7260  -20.0290  -17.5390 C.3       1 QN1         0.1085
     29 N28        11.9440  -20.8450  -18.4430 N.am      1 QN1        -0.2069
     30 C7         11.4650  -20.4150  -19.7450 C.3       1 QN1         0.0789
     31 C12        10.1870  -19.6400  -19.8400 C.ar      1 QN1         0.0074
     32 C14        10.1350  -18.6430  -20.8180 C.ar      1 QN1        -0.0266
     33 C30         8.9730  -17.9150  -21.0010 C.ar      1 QN1        -0.0371
     34 C31         7.8790  -18.1210  -20.1800 C.ar      1 QN1         0.0385
     35 C11         6.6210  -17.2570  -20.4290 C.3       1 QN1         0.3684
     36 F3          7.0570  -16.0210  -20.8730 F         1 QN1        -0.2274
     37 F2          5.9840  -17.8300  -21.4720 F         1 QN1        -0.2274
     38 F1          5.9090  -17.0620  -19.3220 F         1 QN1        -0.2274
     39 C29         7.9460  -19.0880  -19.1750 C.ar      1 QN1        -0.0371
     40 C13         9.1030  -19.8280  -18.9860 C.ar      1 QN1        -0.0266
     41 S8         11.7530  -22.4550  -18.0800 S.o2      1 QN1         0.0753
     42 C26        13.2540  -23.1460  -18.7230 C.ar      1 QN1         0.1128
     43 C17        13.3330  -23.4130  -20.0920 C.ar      1 QN1        -0.0295
     44 C1         14.5120  -23.9520  -20.6350 C.ar      1 QN1        -0.0401
     45 C4         15.5610  -24.2390  -19.7680 C.ar      1 QN1         0.0498
     46 C9         16.8530  -24.7890  -20.3680 C.2       1 QN1         0.2025
     47 O1         17.1470  -24.4690  -21.5110 O.2       1 QN1        -0.3849
     48 N2         17.6640  -25.5970  -19.6980 N.am      1 QN1        -0.3001
     49 C3         15.4810  -23.9470  -18.4130 C.ar      1 QN1        -0.0401
     50 C19        14.3050  -23.4120  -17.8350 C.ar      1 QN1        -0.0295
     51 O41        10.6580  -22.9630  -18.8910 O.2       1 QN1        -0.1494
     52 O10        11.7310  -22.6690  -16.6410 O.2       1 QN1        -0.1494
     53 O2          6.9750  -13.3560  -14.8400 O.2       1 QN1        -0.3849
     54 H1          4.7548  -14.0935  -15.7711 H         1 QN1         0.1808
     55 H2          5.2713  -15.7295  -16.0097 H         1 QN1         0.1808
     56 H3          9.1180  -14.3646  -14.0740 H         1 QN1         0.0670
     57 H4         10.8423  -16.1673  -13.9943 H         1 QN1         0.0649
     58 H5          8.1768  -18.8602  -16.0656 H         1 QN1         0.0649
     59 H6          6.4837  -17.0294  -16.1925 H         1 QN1         0.0670
     60 H7         13.1119  -17.7842  -13.9541 H         1 QN1         0.0716
     61 H8         13.9941  -17.5514  -15.5014 H         1 QN1         0.0716
     62 H9         15.9636  -18.7751  -15.5815 H         1 QN1         0.0653
     63 H10        17.3420  -20.7873  -15.1325 H         1 QN1         0.0836
     64 H11        13.9274  -22.6842  -13.3180 H         1 QN1         0.0836
     65 H12        12.5573  -20.6686  -13.7813 H         1 QN1         0.0653
     66 H13        10.9571  -18.6977  -17.4051 H         1 QN1         0.0591
     67 H14        12.8789  -16.6960  -17.2797 H         1 QN1         0.0833
     68 H15        12.2528  -17.3563  -18.8285 H         1 QN1         0.0833
     69 H16        14.7842  -17.8773  -17.4900 H         1 QN1         0.2015
     70 H17        14.4400  -17.8328  -19.0991 H         1 QN1         0.2015
     71 H18        14.9022  -20.0508  -17.6770 H         1 QN1         0.0833
     72 H19        14.0611  -19.9793  -19.2626 H         1 QN1         0.0833
     73 H20        12.9388  -20.6195  -16.6357 H         1 QN1         0.0591
     74 H21        11.3356  -21.3218  -20.3541 H         1 QN1         0.0716
     75 H22        12.2537  -19.7871  -20.1850 H         1 QN1         0.0716
     76 H23        11.0045  -18.4403  -21.4327 H         1 QN1         0.0653
     77 H24         8.9194  -17.1776  -21.7937 H         1 QN1         0.0836
     78 H25         7.0866  -19.2615  -18.5375 H         1 QN1         0.0836
     79 H26         9.1636  -20.5486  -18.1784 H         1 QN1         0.0653
     80 H27        12.4856  -23.2046  -20.7350 H         1 QN1         0.0649
     81 H28        14.6012  -24.1387  -21.6991 H         1 QN1         0.0670
     82 H29        18.5010  -25.9348  -20.1286 H         1 QN1         0.1808
     83 H30        17.4384  -25.8684  -18.7623 H         1 QN1         0.1808
     84 H31        16.3418  -24.1337  -17.7812 H         1 QN1         0.0670
     85 H32        14.2224  -23.2199  -16.7714 H         1 QN1         0.0649
@<TRIPOS>BOND
     1    1    2 am 
     2    2    3 1  
     3    2   53 2  
     4    3    4 ar 
     5    3    8 ar 
     6    4    5 ar 
     7    5    6 ar 
     8    6    7 ar 
     9    6    9 1  
    10    7    8 ar 
    11    9   10 2  
    12    9   11 2  
    13    9   12 am 
    14   12   13 1  
    15   12   24 1  
    16   13   14 1  
    17   14   15 ar 
    18   14   23 ar 
    19   15   16 ar 
    20   16   17 ar 
    21   17   18 1  
    22   17   22 ar 
    23   18   19 1  
    24   18   20 1  
    25   18   21 1  
    26   22   23 ar 
    27   24   25 1  
    28   24   28 1  
    29   25   26 1  
    30   26   27 1  
    31   27   28 1  
    32   28   29 1  
    33   29   30 1  
    34   29   41 am 
    35   30   31 1  
    36   31   32 ar 
    37   31   40 ar 
    38   32   33 ar 
    39   33   34 ar 
    40   34   35 1  
    41   34   39 ar 
    42   35   36 1  
    43   35   37 1  
    44   35   38 1  
    45   39   40 ar 
    46   41   42 1  
    47   41   51 2  
    48   41   52 2  
    49   42   43 ar 
    50   42   50 ar 
    51   43   44 ar 
    52   44   45 ar 
    53   45   46 1  
    54   45   49 ar 
    55   46   47 2  
    56   46   48 am 
    57   49   50 ar 
    58    1   54 1  
    59    1   55 1  
    60    4   56 1  
    61    5   57 1  
    62    7   58 1  
    63    8   59 1  
    64   13   60 1  
    65   13   61 1  
    66   15   62 1  
    67   16   63 1  
    68   22   64 1  
    69   23   65 1  
    70   24   66 1  
    71   25   67 1  
    72   25   68 1  
    73   26   69 1  
    74   26   70 1  
    75   27   71 1  
    76   27   72 1  
    77   28   73 1  
    78   30   74 1  
    79   30   75 1  
    80   32   76 1  
    81   33   77 1  
    82   39   78 1  
    83   40   79 1  
    84   43   80 1  
    85   44   81 1  
    86   48   82 1  
    87   48   83 1  
    88   49   84 1  
    89   50   85 1  
@<TRIPOS>SUBSTRUCTURE
     1 QN1         1

