### 
### Created by X-TOOL on Mon Sep 10 21:12:57 2018
### 

@<TRIPOS>MOLECULE
2qnp_ligand
   71    75     1     0     0
SMALL
GAST_HUCK


@<TRIPOS>ATOM
      1 C1         15.2980   19.1990   -1.7390 C.ar      1 QN2        -0.0599
      2 C17        16.3380   19.6680   -2.5470 C.ar      1 QN2        -0.0351
      3 C26        16.1210   19.9560   -3.8860 C.ar      1 QN2         0.1085
      4 C19        14.8980   19.7400   -4.5270 C.ar      1 QN2        -0.0351
      5 C3         13.8700   19.2120   -3.7140 C.ar      1 QN2        -0.0599
      6 C4         14.0730   18.9590   -2.3690 C.ar      1 QN2        -0.0616
      7 S8         17.4690   20.6260   -4.8430 S.o2      1 QN2         0.0728
      8 N28        17.1950   22.3030   -4.5200 N.am      1 QN2        -0.2123
      9 C7         17.6520   22.9060   -3.2900 C.3       1 QN2         0.0650
     10 C12        19.0420   23.4980   -3.1970 C.ar      1 QN2        -0.0218
     11 C14        19.2430   24.4300   -2.1670 C.ar      1 QN2        -0.0559
     12 C30        20.4790   25.0270   -1.9590 C.ar      1 QN2        -0.0575
     13 C31        21.5030   24.7170   -2.8430 C.ar      1 QN2         0.0023
     14 I2         23.3480   25.5540   -2.5420 I         1 QN2        -0.0552
     15 C29        21.3250   23.8270   -3.8880 C.ar      1 QN2        -0.0575
     16 C13        20.0870   23.2010   -4.0600 C.ar      1 QN2        -0.0559
     17 C23        16.4020   23.0880   -5.4550 C.3       1 QN2         0.1076
     18 C24        16.9870   24.4730   -5.8650 C.3       1 QN2         0.1076
     19 N32        16.9530   24.6100   -7.3240 N.am      1 QN2        -0.2123
     20 S9         18.3990   24.4210   -8.1760 S.o2      1 QN2         0.0728
     21 O11        19.1390   23.3670   -7.4750 O.2       1 QN2        -0.1499
     22 C27        19.4050   25.8510   -8.2430 C.ar      1 QN2         0.1085
     23 C18        20.7360   25.7180   -7.7900 C.ar      1 QN2        -0.0351
     24 C2         21.5910   26.8250   -7.8290 C.ar      1 QN2        -0.0599
     25 C6         21.1310   28.0640   -8.2980 C.ar      1 QN2        -0.0616
     26 C5         19.8130   28.2030   -8.7580 C.ar      1 QN2        -0.0599
     27 C20        18.9830   27.0750   -8.7480 C.ar      1 QN2        -0.0351
     28 O40        18.0870   24.1310   -9.5870 O.2       1 QN2        -0.1499
     29 C33        15.6970   24.8170   -8.0700 C.3       1 QN2         0.0650
     30 C34        14.9150   23.5050   -8.3500 C.ar      1 QN2        -0.0218
     31 C38        13.5870   23.3820   -7.9110 C.ar      1 QN2        -0.0559
     32 C39        12.8270   22.2260   -8.1390 C.ar      1 QN2        -0.0575
     33 C37        13.4230   21.1660   -8.8270 C.ar      1 QN2         0.0023
     34 I1         12.4060   19.4040   -9.2050 I         1 QN2        -0.0552
     35 C36        14.7510   21.2650   -9.2470 C.ar      1 QN2        -0.0575
     36 C35        15.4930   22.4190   -9.0300 C.ar      1 QN2        -0.0559
     37 C25        16.1870   25.4370   -4.9770 C.3       1 QN2        -0.0110
     38 N22        14.8400   24.8350   -4.8270 N.4       1 QN2         0.2298
     39 C21        15.0200   23.3860   -4.7830 C.3       1 QN2        -0.0110
     40 O41        18.6690   20.2080   -4.1580 O.2       1 QN2        -0.1499
     41 O10        17.2300   20.3500   -6.2270 O.2       1 QN2        -0.1499
     42 H1         15.4345   19.0298   -0.6770 H         1 QN2         0.0618
     43 H2         17.3253   19.8081   -2.1220 H         1 QN2         0.0637
     44 H3         14.7481   19.9626   -5.5773 H         1 QN2         0.0637
     45 H4         12.9018   19.0007   -4.1534 H         1 QN2         0.0618
     46 H5         13.2530   18.5604   -1.7826 H         1 QN2         0.0618
     47 H6         17.5876   22.1286   -2.5145 H         1 QN2         0.0646
     48 H7         16.9472   23.7173   -3.0554 H         1 QN2         0.0646
     49 H8         18.4139   24.6897   -1.5188 H         1 QN2         0.0564
     50 H9         20.6388   25.7120   -1.1342 H         1 QN2         0.0627
     51 H10        22.1413   23.6165   -4.5695 H         1 QN2         0.0627
     52 H11        19.9442   22.4873   -4.8633 H         1 QN2         0.0564
     53 H12        16.2582   22.4886   -6.3660 H         1 QN2         0.0590
     54 H13        18.0444   24.5400   -5.5694 H         1 QN2         0.0590
     55 H14        21.0926   24.7655   -7.4149 H         1 QN2         0.0637
     56 H15        22.6170   26.7241   -7.4941 H         1 QN2         0.0618
     57 H16        21.7974   28.9189   -8.3051 H         1 QN2         0.0618
     58 H17        19.4462   29.1595   -9.1123 H         1 QN2         0.0618
     59 H18        17.9787   27.1594   -9.1472 H         1 QN2         0.0637
     60 H19        15.9389   25.2896   -9.0334 H         1 QN2         0.0646
     61 H20        15.0515   25.4879   -7.4842 H         1 QN2         0.0646
     62 H21        13.1336   24.2094   -7.3773 H         1 QN2         0.0564
     63 H22        11.8030   22.1564   -7.7903 H         1 QN2         0.0627
     64 H23        15.2122   20.4243   -9.7526 H         1 QN2         0.0627
     65 H24        16.5155   22.4820   -9.3843 H         1 QN2         0.0564
     66 H25        16.1127   26.4246   -5.4557 H         1 QN2         0.0833
     67 H26        16.6702   25.5412   -3.9944 H         1 QN2         0.0833
     68 H27        14.2590   25.0876   -5.6110 H         1 QN2         0.2015
     69 H28        14.4107   25.1562   -3.9734 H         1 QN2         0.2015
     70 H29        15.0210   23.0349   -3.7405 H         1 QN2         0.0833
     71 H30        14.2123   22.8860   -5.3376 H         1 QN2         0.0833
@<TRIPOS>BOND
     1    1    2 ar 
     2    1    6 ar 
     3    2    3 ar 
     4    3    4 ar 
     5    3    7 1  
     6    4    5 ar 
     7    5    6 ar 
     8    7    8 am 
     9    7   40 2  
    10    7   41 2  
    11    8    9 1  
    12    8   17 1  
    13    9   10 1  
    14   10   11 ar 
    15   10   16 ar 
    16   11   12 ar 
    17   12   13 ar 
    18   13   14 1  
    19   13   15 ar 
    20   15   16 ar 
    21   17   18 1  
    22   17   39 1  
    23   18   19 1  
    24   18   37 1  
    25   19   20 am 
    26   19   29 1  
    27   20   21 2  
    28   20   22 1  
    29   20   28 2  
    30   22   23 ar 
    31   22   27 ar 
    32   23   24 ar 
    33   24   25 ar 
    34   25   26 ar 
    35   26   27 ar 
    36   29   30 1  
    37   30   31 ar 
    38   30   36 ar 
    39   31   32 ar 
    40   32   33 ar 
    41   33   34 1  
    42   33   35 ar 
    43   35   36 ar 
    44   37   38 1  
    45   38   39 1  
    46    1   42 1  
    47    2   43 1  
    48    4   44 1  
    49    5   45 1  
    50    6   46 1  
    51    9   47 1  
    52    9   48 1  
    53   11   49 1  
    54   12   50 1  
    55   15   51 1  
    56   16   52 1  
    57   17   53 1  
    58   18   54 1  
    59   23   55 1  
    60   24   56 1  
    61   25   57 1  
    62   26   58 1  
    63   27   59 1  
    64   29   60 1  
    65   29   61 1  
    66   31   62 1  
    67   32   63 1  
    68   35   64 1  
    69   36   65 1  
    70   37   66 1  
    71   37   67 1  
    72   38   68 1  
    73   38   69 1  
    74   39   70 1  
    75   39   71 1  
@<TRIPOS>SUBSTRUCTURE
     1 QN2         1

