### 
### Created by X-TOOL on Mon Sep 10 21:12:58 2018
### 

@<TRIPOS>MOLECULE
2qnx_ligand
   36    35     1     0     0
SMALL
GAST_HUCK


@<TRIPOS>ATOM
      1 C11        40.2930   37.1090   51.8930 C.3       1 UDT        -0.0653
      2 C10        39.1200   36.1230   51.8070 C.3       1 UDT        -0.0559
      3 C9         38.9100   35.6480   50.3620 C.3       1 UDT        -0.0533
      4 C8         37.5710   36.1310   49.8030 C.3       1 UDT        -0.0531
      5 C7         36.4550   35.1080   50.0590 C.3       1 UDT        -0.0531
      6 C6         35.1990   35.4370   49.2510 C.3       1 UDT        -0.0531
      7 C5         35.0220   34.4540   48.0900 C.3       1 UDT        -0.0530
      8 C4         33.7700   34.7820   47.2670 C.3       1 UDT        -0.0507
      9 C3         34.0840   34.7180   45.7720 C.3       1 UDT        -0.0250
     10 C2         32.8300   34.4150   44.9530 C.3       1 UDT         0.0776
     11 O2         32.9180   34.9810   43.6150 O.3       1 UDT        -0.2682
     12 C1         32.1980   34.2610   42.7110 C.2       1 UDT         0.2945
     13 O1         32.7100   33.8620   41.6670 O.2       1 UDT        -0.3576
     14 S1         30.5370   33.9000   43.0320 S.3       1 UDT        -0.0361
     15 H1         40.4230   37.4340   52.9358 H         1 UDT         0.0230
     16 H2         40.0839   37.9837   51.2597 H         1 UDT         0.0230
     17 H3         41.2127   36.6159   51.5453 H         1 UDT         0.0230
     18 H4         38.2044   36.6205   52.1594 H         1 UDT         0.0263
     19 H5         39.3332   35.2527   52.4450 H         1 UDT         0.0263
     20 H6         38.9307   34.5484   50.3405 H         1 UDT         0.0265
     21 H7         39.7226   36.0424   49.7343 H         1 UDT         0.0265
     22 H8         37.6713   36.2873   48.7188 H         1 UDT         0.0265
     23 H9         37.3030   37.0816   50.2873 H         1 UDT         0.0265
     24 H10        36.2032   35.1138   51.1298 H         1 UDT         0.0265
     25 H11        36.8133   34.1084   49.7720 H         1 UDT         0.0265
     26 H12        35.2866   36.4571   48.8488 H         1 UDT         0.0265
     27 H13        34.3207   35.3770   49.9105 H         1 UDT         0.0265
     28 H14        34.9281   33.4353   48.4943 H         1 UDT         0.0265
     29 H15        35.9049   34.5091   47.4362 H         1 UDT         0.0265
     30 H16        33.4236   35.7945   47.5217 H         1 UDT         0.0266
     31 H17        32.9799   34.0540   47.5030 H         1 UDT         0.0266
     32 H18        34.8269   33.9262   45.5956 H         1 UDT         0.0291
     33 H19        34.4963   35.6859   45.4508 H         1 UDT         0.0291
     34 H20        31.9560   34.8432   45.4656 H         1 UDT         0.0613
     35 H21        32.7102   33.3245   44.8727 H         1 UDT         0.0613
     36 H22        30.2742   34.2955   43.9211 H         1 UDT         0.1314
@<TRIPOS>BOND
     1    1    2 1  
     2    2    3 1  
     3    3    4 1  
     4    4    5 1  
     5    5    6 1  
     6    6    7 1  
     7    7    8 1  
     8    8    9 1  
     9    9   10 1  
    10   10   11 1  
    11   11   12 1  
    12   12   13 2  
    13   12   14 1  
    14    1   15 1  
    15    1   16 1  
    16    1   17 1  
    17    2   18 1  
    18    2   19 1  
    19    3   20 1  
    20    3   21 1  
    21    4   22 1  
    22    4   23 1  
    23    5   24 1  
    24    5   25 1  
    25    6   26 1  
    26    6   27 1  
    27    7   28 1  
    28    7   29 1  
    29    8   30 1  
    30    8   31 1  
    31    9   32 1  
    32    9   33 1  
    33   10   34 1  
    34   10   35 1  
    35   14   36 1  
@<TRIPOS>SUBSTRUCTURE
     1 UDT         1

