### 
### Created by X-TOOL on Mon Sep 10 21:12:57 2018
### 

@<TRIPOS>MOLECULE
2qnz_ligand
   35    34     1     0     0
SMALL
GAST_HUCK


@<TRIPOS>ATOM
      1 C11        35.2460   44.3170   33.6920 C.3       1 DFD        -0.0653
      2 C10        34.0010   43.4680   33.8700 C.3       1 DFD        -0.0559
      3 C9         33.8850   42.9120   35.2880 C.3       1 DFD        -0.0533
      4 C8         32.7410   41.9110   35.4370 C.3       1 DFD        -0.0531
      5 C7         33.1880   40.4840   35.1430 C.3       1 DFD        -0.0531
      6 C6         32.0870   39.4710   35.4340 C.3       1 DFD        -0.0531
      7 C5         32.2860   38.8280   36.8020 C.3       1 DFD        -0.0530
      8 C4         31.5050   37.5280   36.9090 C.3       1 DFD        -0.0506
      9 C3         31.9750   36.7130   38.1040 C.3       1 DFD        -0.0249
     10 C2         30.7860   36.1710   38.8820 C.3       1 DFD         0.0768
     11 O2         31.1720   34.9650   39.5380 O.3       1 DFD        -0.2784
     12 C1         30.1810   34.0780   40.1270 C.2       1 DFD         0.2279
     13 O1         29.3750   34.5390   40.9120 O.2       1 DFD        -0.3548
     14 H1         35.2877   44.6947   32.6597 H         1 DFD         0.0230
     15 H2         36.1382   43.7066   33.8954 H         1 DFD         0.0230
     16 H3         35.2146   45.1652   34.3917 H         1 DFD         0.0230
     17 H4         34.0399   42.6277   33.1613 H         1 DFD         0.0263
     18 H5         33.1163   44.0862   33.6576 H         1 DFD         0.0263
     19 H6         33.7129   43.7487   35.9811 H         1 DFD         0.0265
     20 H7         34.8284   42.4092   35.5471 H         1 DFD         0.0265
     21 H8         31.9379   42.1829   34.7362 H         1 DFD         0.0265
     22 H9         32.3599   41.9583   36.4678 H         1 DFD         0.0265
     23 H10        34.0615   40.2491   35.7689 H         1 DFD         0.0265
     24 H11        33.4670   40.4105   34.0815 H         1 DFD         0.0265
     25 H12        32.1053   38.6877   34.6620 H         1 DFD         0.0265
     26 H13        31.1132   39.9822   35.4148 H         1 DFD         0.0265
     27 H14        31.9376   39.5226   37.5806 H         1 DFD         0.0265
     28 H15        33.3558   38.6186   36.9494 H         1 DFD         0.0265
     29 H16        31.6542   36.9409   35.9908 H         1 DFD         0.0266
     30 H17        30.4359   37.7581   37.0274 H         1 DFD         0.0266
     31 H18        32.5776   37.3539   38.7644 H         1 DFD         0.0291
     32 H19        32.5889   35.8720   37.7493 H         1 DFD         0.0291
     33 H20        29.9555   35.9653   38.1907 H         1 DFD         0.0614
     34 H21        30.4659   36.9115   39.6298 H         1 DFD         0.0614
     35 H22        30.1613   33.0201   39.8695 H         1 DFD         0.1697
@<TRIPOS>BOND
     1    1    2 1  
     2    2    3 1  
     3    3    4 1  
     4    4    5 1  
     5    5    6 1  
     6    6    7 1  
     7    7    8 1  
     8    8    9 1  
     9    9   10 1  
    10   10   11 1  
    11   11   12 1  
    12   12   13 2  
    13    1   14 1  
    14    1   15 1  
    15    1   16 1  
    16    2   17 1  
    17    2   18 1  
    18    3   19 1  
    19    3   20 1  
    20    4   21 1  
    21    4   22 1  
    22    5   23 1  
    23    5   24 1  
    24    6   25 1  
    25    6   26 1  
    26    7   27 1  
    27    7   28 1  
    28    8   29 1  
    29    8   30 1  
    30    9   31 1  
    31    9   32 1  
    32   10   33 1  
    33   10   34 1  
    34   12   35 1  
@<TRIPOS>SUBSTRUCTURE
     1 DFD         1

