### 
### Created by X-TOOL on Mon Sep 10 21:12:59 2018
### 

@<TRIPOS>MOLECULE
2qo1_ligand
   38    37     1     0     0
SMALL
GAST_HUCK


@<TRIPOS>ATOM
      1 O3         40.6950   39.7100   57.2840 O.co2     1 VZZ        -0.5690
      2 C12        41.1620   40.4870   56.4150 C.2       1 VZZ         0.0348
      3 O4         41.6120   41.6370   56.6280 O.co2     1 VZZ        -0.5690
      4 C11        41.1900   40.0030   54.9530 C.3       1 VZZ         0.0002
      5 C10        40.6840   38.5660   54.7750 C.3       1 VZZ        -0.0414
      6 C9         40.1810   38.3660   53.3430 C.3       1 VZZ        -0.0516
      7 C8         40.3830   36.9240   52.8710 C.3       1 VZZ        -0.0530
      8 C7         39.0750   36.1260   52.9630 C.3       1 VZZ        -0.0531
      9 C6         38.5240   35.8100   51.5690 C.3       1 VZZ        -0.0531
     10 C5         37.5180   36.8650   51.1010 C.3       1 VZZ        -0.0530
     11 C4         36.1160   36.2750   51.0760 C.3       1 VZZ        -0.0507
     12 C3         35.5590   36.3080   49.6590 C.3       1 VZZ        -0.0250
     13 C2         34.5190   35.2030   49.4510 C.3       1 VZZ         0.0776
     14 O2         33.5790   35.5780   48.4220 O.3       1 VZZ        -0.2682
     15 C1         33.8840   35.0560   47.1980 C.2       1 VZZ         0.2945
     16 O1         34.7810   34.2270   47.0650 O.2       1 VZZ        -0.3576
     17 S1         32.9850   35.5590   45.7850 S.3       1 VZZ        -0.0361
     18 H1         42.2266   40.0548   54.5888 H         1 VZZ         0.0430
     19 H2         40.5564   40.6722   54.3524 H         1 VZZ         0.0430
     20 H3         39.8610   38.3788   55.4804 H         1 VZZ         0.0283
     21 H4         41.5055   37.8623   54.9749 H         1 VZZ         0.0283
     22 H5         40.7332   39.0415   52.6731 H         1 VZZ         0.0266
     23 H6         39.1085   38.6073   53.3044 H         1 VZZ         0.0266
     24 H7         41.1435   36.4420   53.5029 H         1 VZZ         0.0265
     25 H8         40.7263   36.9324   51.8260 H         1 VZZ         0.0265
     26 H9         38.3315   36.7171   53.5179 H         1 VZZ         0.0265
     27 H10        39.2659   35.1831   53.4963 H         1 VZZ         0.0265
     28 H11        38.0247   34.8303   51.5975 H         1 VZZ         0.0265
     29 H12        39.3604   35.7747   50.8554 H         1 VZZ         0.0265
     30 H13        37.7887   37.2027   50.0897 H         1 VZZ         0.0265
     31 H14        37.5403   37.7208   51.7917 H         1 VZZ         0.0265
     32 H15        35.4623   36.8624   51.7375 H         1 VZZ         0.0266
     33 H16        36.1533   35.2335   51.4279 H         1 VZZ         0.0266
     34 H17        36.3835   36.1646   48.9451 H         1 VZZ         0.0291
     35 H18        35.0859   37.2850   49.4813 H         1 VZZ         0.0291
     36 H19        33.9762   35.0354   50.3929 H         1 VZZ         0.0613
     37 H20        35.0308   34.2762   49.1528 H         1 VZZ         0.0613
     38 H21        32.2895   36.2370   46.0545 H         1 VZZ         0.1314
@<TRIPOS>BOND
     1    1    2 ar 
     2    2    3 ar 
     3    2    4 1  
     4    4    5 1  
     5    5    6 1  
     6    6    7 1  
     7    7    8 1  
     8    8    9 1  
     9    9   10 1  
    10   10   11 1  
    11   11   12 1  
    12   12   13 1  
    13   13   14 1  
    14   14   15 1  
    15   15   16 2  
    16   15   17 1  
    17    4   18 1  
    18    4   19 1  
    19    5   20 1  
    20    5   21 1  
    21    6   22 1  
    22    6   23 1  
    23    7   24 1  
    24    7   25 1  
    25    8   26 1  
    26    8   27 1  
    27    9   28 1  
    28    9   29 1  
    29   10   30 1  
    30   10   31 1  
    31   11   32 1  
    32   11   33 1  
    33   12   34 1  
    34   12   35 1  
    35   13   36 1  
    36   13   37 1  
    37   17   38 1  
@<TRIPOS>SUBSTRUCTURE
     1 VZZ         1

