### 
### Created by X-TOOL on Mon Sep 10 21:12:57 2018
### 

@<TRIPOS>MOLECULE
2qo8_ligand
   49    50     1     0     0
SMALL
GAST_HUCK


@<TRIPOS>ATOM
      1 C1         -4.1360    2.5460   15.0980 C.ar      1 3CC        -0.0402
      2 C2         -5.3780    2.4270   15.7410 C.ar      1 3CC         0.0943
      3 C3         -6.3370    3.4800   15.7110 C.ar      1 3CC        -0.0489
      4 C4         -6.0410    4.6680   15.0240 C.ar      1 3CC        -0.0649
      5 C5         -3.8470    3.7650   14.4010 C.ar      1 3CC        -0.0368
      6 C6         -4.8280    4.7930   14.3920 C.ar      1 3CC        -0.0385
      7 C7         -4.2810    5.9060   13.6180 C.3       1 3CC         0.0032
      8 C8         -3.2090    5.3530   12.8240 C.3       1 3CC         0.0590
      9 C9         -2.6640    4.2220   13.6290 C.3       1 3CC         0.0033
     10 S1         -5.8200    0.9510   16.6350 S.o2      1 3CC         0.0613
     11 O1         -5.2710    1.0780   17.9540 O.2       1 3CC        -0.1515
     12 O2         -7.2490    0.8090   16.5010 O.2       1 3CC        -0.1515
     13 N1         -5.1460   -0.3060   15.9840 N.am      1 3CC        -0.2618
     14 N2         -2.1590    6.3770   12.5290 N.am      1 3CC        -0.2801
     15 C10        -2.3190    7.4950   11.7640 C.2       1 3CC         0.1796
     16 O3         -3.4470    7.6510   11.2820 O.2       1 3CC        -0.3968
     17 C11        -1.2010    8.5590   11.4660 C.3       1 3CC         0.0486
     18 C12        -0.5330    9.0940   12.7750 C.3       1 3CC        -0.0335
     19 C13        -1.4750    9.6020   13.8930 C.3       1 3CC        -0.0536
     20 C14        -0.8660    9.3860   15.2820 C.3       1 3CC        -0.0651
     21 C15        -0.1390    7.9690   10.4650 C.3       1 3CC        -0.0335
     22 C16        -0.6710    7.3110    9.1660 C.3       1 3CC        -0.0536
     23 C17        -0.6590    8.2810    7.9780 C.3       1 3CC        -0.0651
     24 H1         -3.4144    1.7376   15.1277 H         1 3CC         0.0557
     25 H2         -7.2895    3.3647   16.2155 H         1 3CC         0.0561
     26 H3         -6.7615    5.4773   14.9927 H         1 3CC         0.0538
     27 H4         -3.8946    6.6856   14.2910 H         1 3CC         0.0435
     28 H5         -5.0563    6.3354   12.9664 H         1 3CC         0.0435
     29 H6         -3.6073    4.9745   11.8711 H         1 3CC         0.0598
     30 H7         -2.2822    3.4212   12.9787 H         1 3CC         0.0435
     31 H8         -1.8617    4.5638   14.2994 H         1 3CC         0.0435
     32 H9         -5.2991   -1.2139   16.3743 H         1 3CC         0.1634
     33 H10        -4.5630   -0.1999   15.1785 H         1 3CC         0.1634
     34 H11        -1.2552    6.2279   12.9302 H         1 3CC         0.1857
     35 H12        -1.6825    9.4160   10.9724 H         1 3CC         0.0538
     36 H13         0.1260    9.9284   12.4931 H         1 3CC         0.0292
     37 H14         0.0703    8.2765   13.1967 H         1 3CC         0.0292
     38 H15        -2.4284    9.0568   13.8322 H         1 3CC         0.0264
     39 H16        -1.6571   10.6768   13.7459 H         1 3CC         0.0264
     40 H17        -1.5613    9.7578   16.0490 H         1 3CC         0.0230
     41 H18         0.0859    9.9325   15.3541 H         1 3CC         0.0230
     42 H19        -0.6854    8.3126   15.4403 H         1 3CC         0.0230
     43 H20         0.4385    7.2066   11.0083 H         1 3CC         0.0292
     44 H21         0.5279    8.7920   10.1686 H         1 3CC         0.0292
     45 H22        -1.7038    6.9735    9.3372 H         1 3CC         0.0264
     46 H23        -0.0378    6.4451    8.9226 H         1 3CC         0.0264
     47 H24        -1.0438    7.7697    7.0833 H         1 3CC         0.0230
     48 H25         0.3707    8.6202    7.7920 H         1 3CC         0.0230
     49 H26        -1.2953    9.1487    8.2066 H         1 3CC         0.0230
@<TRIPOS>BOND
     1    1    2 ar 
     2    1    5 ar 
     3    2    3 ar 
     4    2   10 1  
     5    3    4 ar 
     6    4    6 ar 
     7    5    6 ar 
     8    5    9 1  
     9    6    7 1  
    10    7    8 1  
    11    8    9 1  
    12    8   14 1  
    13   10   11 2  
    14   10   12 2  
    15   10   13 am 
    16   14   15 am 
    17   15   16 2  
    18   15   17 1  
    19   17   18 1  
    20   17   21 1  
    21   18   19 1  
    22   19   20 1  
    23   21   22 1  
    24   22   23 1  
    25    1   24 1  
    26    3   25 1  
    27    4   26 1  
    28    7   27 1  
    29    7   28 1  
    30    8   29 1  
    31    9   30 1  
    32    9   31 1  
    33   13   32 1  
    34   13   33 1  
    35   14   34 1  
    36   17   35 1  
    37   18   36 1  
    38   18   37 1  
    39   19   38 1  
    40   19   39 1  
    41   20   40 1  
    42   20   41 1  
    43   20   42 1  
    44   21   43 1  
    45   21   44 1  
    46   22   45 1  
    47   22   46 1  
    48   23   47 1  
    49   23   48 1  
    50   23   49 1  
@<TRIPOS>SUBSTRUCTURE
     1 3CC         1

