### 
### Created by X-TOOL on Mon Sep 10 21:12:57 2018
### 

@<TRIPOS>MOLECULE
2qoa_ligand
   24    25     1     0     0
SMALL
GAST_HUCK


@<TRIPOS>ATOM
      1 C1         -5.9060    3.3040   15.2620 C.ar      1 MAJ        -0.0403
      2 C2         -5.1180    2.2440   15.7130 C.ar      1 MAJ         0.0943
      3 C3         -3.7180    2.1880   15.4380 C.ar      1 MAJ        -0.0489
      4 C4         -3.1230    3.2270   14.6870 C.ar      1 MAJ        -0.0650
      5 C5         -5.2930    4.3460   14.5040 C.ar      1 MAJ        -0.0390
      6 C6         -3.9010    4.2780   14.2420 C.ar      1 MAJ        -0.0408
      7 C7         -3.5290    5.4720   13.4500 C.3       1 MAJ        -0.0200
      8 C8         -4.7500    6.1760   13.1140 C.3       1 MAJ        -0.0355
      9 C9         -5.8590    5.5680   13.9090 C.3       1 MAJ        -0.0199
     10 S1         -5.8500    0.9300   16.6770 S.o2      1 MAJ         0.0613
     11 O1         -7.2650    0.9890   16.4730 O.2       1 MAJ        -0.1515
     12 O2         -5.3300    1.0710   18.0030 O.2       1 MAJ        -0.1515
     13 N1         -5.3110   -0.4260   16.1300 N.am      1 MAJ        -0.2618
     14 H1         -6.9666    3.3352   15.4840 H         1 MAJ         0.0557
     15 H2         -3.1196    1.3599   15.8003 H         1 MAJ         0.0561
     16 H3         -2.0630    3.1993   14.4617 H         1 MAJ         0.0538
     17 H4         -3.0088    5.1647   12.5308 H         1 MAJ         0.0413
     18 H5         -2.8713    6.1247   14.0428 H         1 MAJ         0.0413
     19 H6         -4.9589    6.0716   12.0391 H         1 MAJ         0.0306
     20 H7         -4.6492    7.2420   13.3661 H         1 MAJ         0.0306
     21 H8         -6.1918    6.2603   14.6963 H         1 MAJ         0.0413
     22 H9         -6.7086    5.3196   13.2560 H         1 MAJ         0.0413
     23 H10        -5.6084   -1.2861   16.5445 H         1 MAJ         0.1634
     24 H11        -4.6677   -0.4361   15.3644 H         1 MAJ         0.1634
@<TRIPOS>BOND
     1    1    2 ar 
     2    1    5 ar 
     3    2    3 ar 
     4    2   10 1  
     5    3    4 ar 
     6    4    6 ar 
     7    5    6 ar 
     8    5    9 1  
     9    6    7 1  
    10    7    8 1  
    11    8    9 1  
    12   10   11 2  
    13   10   12 2  
    14   10   13 am 
    15    1   14 1  
    16    3   15 1  
    17    4   16 1  
    18    7   17 1  
    19    7   18 1  
    20    8   19 1  
    21    8   20 1  
    22    9   21 1  
    23    9   22 1  
    24   13   23 1  
    25   13   24 1  
@<TRIPOS>SUBSTRUCTURE
     1 MAJ         1

