### 
### Created by X-TOOL on Mon Sep 10 21:12:55 2018
### 

@<TRIPOS>MOLECULE
2qoe_ligand
   47    49     1     0     0
SMALL
GAST_HUCK


@<TRIPOS>ATOM
      1 F9         33.2850   48.5150   36.1680 F         1 448        -0.1911
      2 C6         34.5020   49.0660   36.2650 C.ar      1 448         0.1560
      3 C1         34.6640   50.4110   36.5640 C.ar      1 448        -0.0030
      4 C2         35.9420   50.9410   36.6590 C.ar      1 448         0.1274
      5 F10        36.0700   52.2300   36.9630 F         1 448        -0.1934
      6 C5         35.6880   48.2170   36.0360 C.ar      1 448         0.1544
      7 F8         35.4520   46.9300   35.7330 F         1 448        -0.1895
      8 C4         36.9770   48.7530   36.1330 C.ar      1 448        -0.0298
      9 C3         37.1480   50.1080   36.4390 C.ar      1 448        -0.0094
     10 C11        38.5310   50.7510   36.5500 C.3       1 448         0.0243
     11 C12        39.1910   50.7920   35.1520 C.3       1 448         0.0010
     12 N20        38.3380   51.5500   34.2390 N.4       1 448         0.2238
     13 C15        40.6270   51.3520   35.1590 C.3       1 448         0.0821
     14 C16        41.5800   50.4780   35.9660 C.2       1 448         0.1869
     15 O22        41.2310   49.3460   36.2980 O.2       1 448        -0.3964
     16 N19        42.7730   50.9710   36.3590 N.am      1 448        -0.2469
     17 C25        43.5390   52.0920   35.7530 C.3       1 448         0.0694
     18 C26        45.0090   51.7200   35.4350 C.3       1 448         0.1103
     19 C29        43.3590   50.3210   37.5590 C.3       1 448         0.1308
     20 C34        42.8110   50.8850   38.8790 C.3       1 448        -0.0227
     21 C28        44.8370   50.3670   37.5470 C.2       1 448         0.1924
     22 N27        45.5280   50.9940   36.5920 N.pl3     1 448        -0.1274
     23 N39        46.9050   50.8900   36.8160 N.2       1 448        -0.1159
     24 N41        45.7080   49.8080   38.4420 N.2       1 448        -0.2738
     25 C40        46.9200   50.1390   37.9540 C.2       1 448         0.1785
     26 C41        48.1930   49.7250   38.6650 C.3       1 448         0.3972
     27 F29        48.0260   49.7910   39.9850 F         1 448        -0.2188
     28 F27        49.1080   50.5910   38.2490 F         1 448        -0.2188
     29 F28        48.5680   48.4740   38.3790 F         1 448        -0.2188
     30 H1         33.7978   51.0432   36.7222 H         1 448         0.0562
     31 H2         37.8418   48.1197   35.9714 H         1 448         0.0522
     32 H3         39.1570   50.1596   37.2343 H         1 448         0.0467
     33 H4         38.4297   51.7752   36.9383 H         1 448         0.0467
     34 H5         39.2488   49.7571   34.7837 H         1 448         0.0898
     35 H6         38.7650   51.5790   33.3264 H         1 448         0.2000
     36 H7         38.2246   52.4893   34.5868 H         1 448         0.2000
     37 H8         37.4361   51.1046   34.1740 H         1 448         0.2000
     38 H9         40.6123   52.3602   35.5986 H         1 448         0.0560
     39 H10        40.9903   51.4093   34.1223 H         1 448         0.0560
     40 H11        43.5360   52.9385   36.4555 H         1 448         0.0556
     41 H12        43.0429   52.3900   34.8176 H         1 448         0.0556
     42 H13        45.6007   52.6316   35.2650 H         1 448         0.0690
     43 H14        45.0518   51.0828   34.5394 H         1 448         0.0690
     44 H15        43.0671   49.2612   37.5179 H         1 448         0.0833
     45 H16        43.2832   50.3635   39.7246 H         1 448         0.0283
     46 H17        41.7220   50.7352   38.9177 H         1 448         0.0283
     47 H18        43.0356   51.9601   38.9397 H         1 448         0.0283
@<TRIPOS>BOND
     1    1    2 1  
     2    2    3 ar 
     3    2    6 ar 
     4    3    4 ar 
     5    4    5 1  
     6    4    9 ar 
     7    6    7 1  
     8    6    8 ar 
     9    8    9 ar 
    10    9   10 1  
    11   10   11 1  
    12   11   12 1  
    13   11   13 1  
    14   13   14 1  
    15   14   15 2  
    16   14   16 am 
    17   16   17 1  
    18   16   19 1  
    19   17   18 1  
    20   18   22 1  
    21   19   20 1  
    22   19   21 1  
    23   21   22 1  
    24   21   24 2  
    25   22   23 1  
    26   23   25 2  
    27   24   25 1  
    28   25   26 1  
    29   26   27 1  
    30   26   28 1  
    31   26   29 1  
    32    3   30 1  
    33    8   31 1  
    34   10   32 1  
    35   10   33 1  
    36   11   34 1  
    37   12   35 1  
    38   12   36 1  
    39   12   37 1  
    40   13   38 1  
    41   13   39 1  
    42   17   40 1  
    43   17   41 1  
    44   18   42 1  
    45   18   43 1  
    46   19   44 1  
    47   20   45 1  
    48   20   46 1  
    49   20   47 1  
@<TRIPOS>SUBSTRUCTURE
     1 448         1

