### 
### Created by X-TOOL on Mon Sep 10 21:12:56 2018
### 

@<TRIPOS>MOLECULE
2qoh_ligand
   48    51     1     0     0
SMALL
GAST_HUCK


@<TRIPOS>ATOM
      1 N1         -4.3300    9.2820   24.2840 N.ar      1 P3Y        -0.2827
      2 C2         -3.6810    8.4920   25.1910 C.ar      1 P3Y         0.0050
      3 C3         -2.6480    7.6050   24.7920 C.ar      1 P3Y         0.0023
      4 C4         -2.3220    7.5860   23.4120 C.ar      1 P3Y        -0.0439
      5 C5         -3.0230    8.4280   22.4740 C.ar      1 P3Y         0.0123
      6 C6         -4.0160    9.2540   22.9490 C.ar      1 P3Y         0.1398
      7 C9         -2.9290    8.6200   21.0500 C.2       1 P3Y        -0.0075
      8 C10        -3.9350    9.5940   20.8170 C.2       1 P3Y         0.0396
      9 N11        -4.6030    9.9910   21.9510 N.pl3     1 P3Y        -0.2616
     10 C14        -2.0240    7.9930   20.0120 C.ar      1 P3Y        -0.0067
     11 C15        -1.7860    6.5760   19.9090 C.ar      1 P3Y         0.0921
     12 C16        -0.9080    6.0890   18.8770 C.ar      1 P3Y        -0.0377
     13 C17        -0.2940    6.9720   17.9750 C.ar      1 P3Y        -0.0760
     14 C18        -0.5290    8.3520   18.0760 C.ar      1 P3Y        -0.0784
     15 C19        -1.3860    8.8520   19.0840 C.ar      1 P3Y        -0.0709
     16 O1         -2.4310    5.7350   20.8330 O.3       1 P3Y        -0.3225
     17 C24        -1.9340    6.7220   25.7790 C.ar      1 P3Y         0.0138
     18 C25        -1.7690    5.3190   25.5640 C.ar      1 P3Y         0.0215
     19 N26        -1.1130    4.5020   26.4570 N.ar      1 P3Y        -0.2914
     20 C27        -0.5920    5.0430   27.6060 C.ar      1 P3Y         0.0298
     21 C28        -0.7230    6.4300   27.8850 C.ar      1 P3Y         0.0769
     22 C29        -1.3990    7.2480   26.9530 C.ar      1 P3Y        -0.0165
     23 C33        -0.1550    7.0020   29.1110 C.2       1 P3Y         0.2145
     24 O34         1.0560    6.9700   29.2950 O.2       1 P3Y        -0.3815
     25 N35        -1.0060    7.6070   30.0220 N.am      1 P3Y        -0.2774
     26 C41        -2.2980    7.0490   30.4830 C.3       1 P3Y         0.0219
     27 C45        -0.5140    8.8570   30.6420 C.3       1 P3Y         0.0219
     28 C1         -2.5830    4.3260   20.5700 C.3       1 P3Y         0.0590
     29 H1         -3.9613    8.5442   26.2368 H         1 P3Y         0.0767
     30 H2         -1.5354    6.9298   23.0574 H         1 P3Y         0.0692
     31 H3         -4.1578    9.9914   19.8279 H         1 P3Y         0.0993
     32 H4         -5.3647   10.6795   22.0325 H         1 P3Y         0.2330
     33 H5         -0.7184    5.0248   18.7954 H         1 P3Y         0.0524
     34 H6          0.3610    6.5884   17.2011 H         1 P3Y         0.0544
     35 H7         -0.0535    9.0349   17.3812 H         1 P3Y         0.0511
     36 H8         -1.5590    9.9202   19.1480 H         1 P3Y         0.0537
     37 H9         -2.1771    4.8800   24.6608 H         1 P3Y         0.0854
     38 H10        -0.0733    4.4029   28.3105 H         1 P3Y         0.0864
     39 H11        -1.5038    8.3078   27.1554 H         1 P3Y         0.0785
     40 H12        -2.7595    7.7400   31.2037 H         1 P3Y         0.0486
     41 H13        -2.1256    6.0762   30.9666 H         1 P3Y         0.0486
     42 H14        -2.9686    6.9164   29.6212 H         1 P3Y         0.0486
     43 H15         0.4503    9.1348   30.1916 H         1 P3Y         0.0486
     44 H16        -0.3828    8.7031   31.7232 H         1 P3Y         0.0486
     45 H17        -1.2436    9.6625   30.4721 H         1 P3Y         0.0486
     46 H18        -3.1106    3.8510   21.4103 H         1 P3Y         0.0577
     47 H19        -1.5908    3.8657   20.4528 H         1 P3Y         0.0577
     48 H20        -3.1637    4.1859   19.6463 H         1 P3Y         0.0577
@<TRIPOS>BOND
     1    1    2 ar 
     2    1    6 ar 
     3    2    3 ar 
     4    3    4 ar 
     5    3   17 1  
     6    4    5 ar 
     7    5    6 ar 
     8    5    7 1  
     9    6    9 1  
    10    7    8 2  
    11    7   10 1  
    12    8    9 1  
    13   10   11 ar 
    14   10   15 ar 
    15   11   12 ar 
    16   11   16 1  
    17   12   13 ar 
    18   13   14 ar 
    19   14   15 ar 
    20   16   28 1  
    21   17   18 ar 
    22   17   22 ar 
    23   18   19 ar 
    24   19   20 ar 
    25   20   21 ar 
    26   21   22 ar 
    27   21   23 1  
    28   23   24 2  
    29   23   25 am 
    30   25   26 1  
    31   25   27 1  
    32    2   29 1  
    33    4   30 1  
    34    8   31 1  
    35    9   32 1  
    36   12   33 1  
    37   13   34 1  
    38   14   35 1  
    39   15   36 1  
    40   18   37 1  
    41   20   38 1  
    42   22   39 1  
    43   26   40 1  
    44   26   41 1  
    45   26   42 1  
    46   27   43 1  
    47   27   44 1  
    48   27   45 1  
    49   28   46 1  
    50   28   47 1  
    51   28   48 1  
@<TRIPOS>SUBSTRUCTURE
     1 P3Y         1

