### 
### Created by X-TOOL on Mon Sep 10 21:12:57 2018
### 

@<TRIPOS>MOLECULE
2qp6_ligand
   19    19     1     0     0
SMALL
GAST_HUCK


@<TRIPOS>ATOM
      1 S1         -5.9390    0.7660   16.7530 S.o2      1 MB1         0.0676
      2 O1         -7.3710    0.7070   16.7030 O.2       1 MB1        -0.1504
      3 O2         -5.3000    1.0570   18.0070 O.2       1 MB1        -0.1504
      4 N1         -5.3660   -0.6030   16.2430 N.am      1 MB1        -0.2608
      5 C1         -4.7460    4.0060   13.6990 C.ar      1 MB1        -0.0184
      6 C2         -4.4700    2.6270   13.4780 C.ar      1 MB1         0.2014
      7 C3         -4.8400    1.6650   14.4260 C.ar      1 MB1         0.0082
      8 C4         -5.4920    2.0550   15.6090 C.ar      1 MB1         0.1298
      9 C5         -5.7820    3.4240   15.8520 C.ar      1 MB1         0.0726
     10 C6         -5.3990    4.3950   14.8840 C.ar      1 MB1        -0.0379
     11 CL         -6.5810    3.9020   17.2770 Cl        1 MB1        -0.0636
     12 N2         -3.7880    2.1750   12.2150 N.2       1 MB1         0.3147
     13 O3         -4.1600    2.7420   10.9650 O.2       1 MB1         0.1781
     14 O4         -2.8030    1.1630   12.2730 O.2       1 MB1         0.1781
     15 H1         -5.6855   -0.9871   15.3768 H         1 MB1         0.1635
     16 H2         -4.6814   -1.0912   16.7843 H         1 MB1         0.1635
     17 H3         -4.4567    4.7478   12.9634 H         1 MB1         0.0692
     18 H4         -4.6234    0.6180   14.2474 H         1 MB1         0.0711
     19 H5         -5.6120    5.4430   15.0609 H         1 MB1         0.0638
@<TRIPOS>BOND
     1    1    2 2  
     2    1    3 2  
     3    1    4 am 
     4    8    1 1  
     5    6    5 ar 
     6    5   10 ar 
     7    7    6 ar 
     8    6   12 1  
     9    7    8 ar 
    10    8    9 ar 
    11    9   10 ar 
    12    9   11 1  
    13   12   13 2  
    14   12   14 2  
    15    4   15 1  
    16    4   16 1  
    17    5   17 1  
    18    7   18 1  
    19   10   19 1  
@<TRIPOS>SUBSTRUCTURE
     1 MB1         1

