### 
### Created by X-TOOL on Mon Sep 10 21:12:57 2018
### 

@<TRIPOS>MOLECULE
2qp8_ligand
   84    86     1     0     0
SMALL
GAST_HUCK


@<TRIPOS>ATOM
      1 F1         26.7980   11.1020   18.9300 F         1 SC7        -0.1863
      2 F2         22.6980   13.4690   18.4630 F         1 SC7        -0.1863
      3 C1         26.8900   15.5380   24.5010 C.ar      1 SC7        -0.0367
      4 C2         27.0410   14.3580   23.7240 C.ar      1 SC7         0.0490
      5 C3         25.8960   13.5540   23.4110 C.ar      1 SC7        -0.0289
      6 C4         24.6080   13.9450   23.8700 C.ar      1 SC7         0.0488
      7 C5         24.4570   15.1350   24.6360 C.ar      1 SC7        -0.0367
      8 C6         25.5980   15.9260   24.9520 C.ar      1 SC7        -0.0353
      9 C7         28.3720   13.9440   23.2960 C.2       1 SC7         0.2069
     10 N1         28.6340   13.7350   21.9750 N.am      1 SC7        -0.2724
     11 O1         29.2470   13.7730   24.1410 O.2       1 SC7        -0.3844
     12 C8         29.9800   13.2970   21.6310 C.3       1 SC7         0.0331
     13 C9         27.6810   13.9310   20.8860 C.3       1 SC7         0.0331
     14 C10        28.2480   15.0030   19.9460 C.3       1 SC7        -0.0354
     15 C11        28.8740   16.2060   20.7110 C.3       1 SC7        -0.0634
     16 C12        29.9330   11.8140   21.1640 C.3       1 SC7        -0.0354
     17 C13        29.0850   10.8990   22.0660 C.3       1 SC7        -0.0634
     18 C14        25.4250   17.1550   25.7530 C.3       1 SC7        -0.0293
     19 C15        23.4280   13.1540   23.5430 C.2       1 SC7         0.2049
     20 O2         22.3200   13.6550   23.4000 O.2       1 SC7        -0.3846
     21 N2         23.6590   11.8240   23.4120 N.am      1 SC7        -0.2784
     22 C16        22.5540   10.9140   23.0530 C.3       1 SC7         0.0820
     23 C17        22.0350   10.0930   24.2620 C.3       1 SC7         0.1221
     24 O3         21.0190    9.1660   23.8190 O.3       1 SC7        -0.3837
     25 C18        23.0400    9.9800   21.9220 C.3       1 SC7         0.0048
     26 C19        23.6410   10.7890   20.7880 C.ar      1 SC7        -0.0445
     27 C20        24.9840   10.5600   20.3790 C.ar      1 SC7        -0.0310
     28 C21        25.5450   11.3190   19.3110 C.ar      1 SC7         0.1242
     29 C22        24.7680   12.3100   18.6570 C.ar      1 SC7        -0.0019
     30 C23        23.4300   12.5370   19.0710 C.ar      1 SC7         0.1242
     31 C24        22.8630   11.7820   20.1300 C.ar      1 SC7        -0.0310
     32 C25        21.4040   10.9750   25.3310 C.3       1 SC7         0.0086
     33 C26        20.1920   11.7470   24.7670 C.3       1 SC7         0.0192
     34 C27        19.3930   12.4410   25.8540 C.3       1 SC7         0.0687
     35 C28        19.0170   11.4570   26.9580 C.3       1 SC7         0.0139
     36 C29        20.2560   10.7860   27.5320 C.3       1 SC7        -0.0309
     37 N3         20.9960   10.0930   26.4420 N.4       1 SC7         0.2312
     38 O4         18.2350   12.9880   25.2360 O.3       1 SC7        -0.3764
     39 C30        17.4450   13.6970   26.1740 C.3       1 SC7         0.0452
     40 C31        16.4120   14.5050   25.3830 C.3       1 SC7        -0.0416
     41 H1         27.7564   16.1404   24.7492 H         1 SC7         0.0642
     42 H2         26.0119   12.6493   22.8253 H         1 SC7         0.0665
     43 H3         23.4744   15.4388   24.9785 H         1 SC7         0.0642
     44 H4         30.6317   13.3843   22.5128 H         1 SC7         0.0522
     45 H5         30.3751   13.9257   20.8194 H         1 SC7         0.0522
     46 H6         26.7142   14.2639   21.2915 H         1 SC7         0.0522
     47 H7         27.5431   12.9881   20.3365 H         1 SC7         0.0522
     48 H8         27.4338   15.3774   19.3081 H         1 SC7         0.0282
     49 H9         29.0249   14.5438   19.3171 H         1 SC7         0.0282
     50 H10        29.2619   16.9385   19.9879 H         1 SC7         0.0230
     51 H11        29.6967   15.8479   21.3473 H         1 SC7         0.0230
     52 H12        28.1056   16.6816   21.3383 H         1 SC7         0.0230
     53 H13        30.9616   11.4245   21.1459 H         1 SC7         0.0282
     54 H14        29.5118   11.7846   20.1483 H         1 SC7         0.0282
     55 H15        29.1036    9.8734   21.6688 H         1 SC7         0.0230
     56 H16        28.0479   11.2649   22.0880 H         1 SC7         0.0230
     57 H17        29.4976   10.9048   23.0857 H         1 SC7         0.0230
     58 H18        26.4027   17.6371   25.9006 H         1 SC7         0.0391
     59 H19        24.9918   16.8975   26.7308 H         1 SC7         0.0391
     60 H20        24.7518   17.8457   25.2241 H         1 SC7         0.0391
     61 H21        24.5787   11.4597   23.5588 H         1 SC7         0.1851
     62 H22        21.7176   11.5197   22.6742 H         1 SC7         0.0606
     63 H23        22.8779    9.5390   24.7009 H         1 SC7         0.0675
     64 H24        21.3897    8.5767   23.1727 H         1 SC7         0.2102
     65 H25        22.1874    9.3992   21.5403 H         1 SC7         0.0448
     66 H26        23.8018    9.2940   22.3209 H         1 SC7         0.0448
     67 H27        25.5816    9.8072   20.8803 H         1 SC7         0.0508
     68 H28        25.1939   12.8899   17.8463 H         1 SC7         0.0532
     69 H29        21.8390   11.9614   20.4372 H         1 SC7         0.0508
     70 H30        22.1474   11.7004   25.6930 H         1 SC7         0.0878
     71 H31        19.5342   11.0381   24.2428 H         1 SC7         0.0346
     72 H32        20.5548   12.5046   24.0568 H         1 SC7         0.0346
     73 H33        19.9930   13.2522   26.2920 H         1 SC7         0.0600
     74 H34        18.3503   10.6871   26.5425 H         1 SC7         0.0342
     75 H35        18.4960   11.9987   27.7612 H         1 SC7         0.0342
     76 H36        19.9555   10.0526   28.2948 H         1 SC7         0.0815
     77 H37        20.9056   11.5463   27.9901 H         1 SC7         0.0815
     78 H38        21.8254    9.6783   26.8372 H         1 SC7         0.2017
     79 H39        20.4031    9.3683   26.0688 H         1 SC7         0.2017
     80 H40        18.0795   14.3738   26.7650 H         1 SC7         0.0557
     81 H41        16.9356   12.9912   26.8466 H         1 SC7         0.0557
     82 H42        15.7773   15.0713   26.0805 H         1 SC7         0.0252
     83 H43        15.7864   13.8208   24.7911 H         1 SC7         0.0252
     84 H44        16.9303   15.2033   24.7094 H         1 SC7         0.0252
@<TRIPOS>BOND
     1   28    1 1  
     2   30    2 1  
     3    4    3 ar 
     4    8    3 ar 
     5    5    4 ar 
     6    4    9 1  
     7    6    5 ar 
     8    6    7 ar 
     9   19    6 1  
    10    7    8 ar 
    11    8   18 1  
    12    9   10 am 
    13    9   11 2  
    14   10   12 1  
    15   10   13 1  
    16   12   16 1  
    17   13   14 1  
    18   14   15 1  
    19   16   17 1  
    20   19   20 2  
    21   21   19 am 
    22   22   21 1  
    23   22   23 1  
    24   25   22 1  
    25   23   24 1  
    26   23   32 1  
    27   26   25 1  
    28   27   26 ar 
    29   26   31 ar 
    30   28   27 ar 
    31   29   28 ar 
    32   29   30 ar 
    33   30   31 ar 
    34   32   33 1  
    35   32   37 1  
    36   33   34 1  
    37   34   35 1  
    38   34   38 1  
    39   35   36 1  
    40   36   37 1  
    41   38   39 1  
    42   39   40 1  
    43    3   41 1  
    44    5   42 1  
    45    7   43 1  
    46   12   44 1  
    47   12   45 1  
    48   13   46 1  
    49   13   47 1  
    50   14   48 1  
    51   14   49 1  
    52   15   50 1  
    53   15   51 1  
    54   15   52 1  
    55   16   53 1  
    56   16   54 1  
    57   17   55 1  
    58   17   56 1  
    59   17   57 1  
    60   18   58 1  
    61   18   59 1  
    62   18   60 1  
    63   21   61 1  
    64   22   62 1  
    65   23   63 1  
    66   24   64 1  
    67   25   65 1  
    68   25   66 1  
    69   27   67 1  
    70   29   68 1  
    71   31   69 1  
    72   32   70 1  
    73   33   71 1  
    74   33   72 1  
    75   34   73 1  
    76   35   74 1  
    77   35   75 1  
    78   36   76 1  
    79   36   77 1  
    80   37   78 1  
    81   37   79 1  
    82   39   80 1  
    83   39   81 1  
    84   40   82 1  
    85   40   83 1  
    86   40   84 1  
@<TRIPOS>SUBSTRUCTURE
     1 SC7         1

