### 
### Created by X-TOOL on Mon Sep 10 21:12:55 2018
### 

@<TRIPOS>MOLECULE
2qpq_ligand
   18    17     1     0     0
SMALL
GAST_HUCK


@<TRIPOS>ATOM
      1 C1         17.7600   -2.0790   63.6750 C.2       1 CIT         0.0371
      2 O1         17.1360   -2.7910   64.4770 O.co2     1 CIT        -0.5690
      3 O2         19.0030   -2.2360   63.5230 O.co2     1 CIT        -0.5690
      4 C2         17.0030   -1.0520   62.8600 C.3       1 CIT         0.0356
      5 C3         16.4370   -1.7890   61.6530 C.3       1 CIT         0.1328
      6 O7         15.5850   -2.8390   62.1850 O.3       1 CIT        -0.3818
      7 C4         17.5140   -2.4930   60.7930 C.3       1 CIT         0.0356
      8 C5         16.9450   -3.0100   59.4810 C.2       1 CIT         0.0371
      9 O3         17.7080   -3.4240   58.5750 O.co2     1 CIT        -0.5690
     10 O4         15.7030   -3.0450   59.2730 O.co2     1 CIT        -0.5690
     11 C6         15.6000   -0.7730   60.8610 C.2       1 CIT         0.0796
     12 O5         16.0900    0.1050   60.1210 O.co2     1 CIT        -0.5449
     13 O6         14.3760   -0.8310   60.9510 O.co2     1 CIT        -0.5449
     14 H1         17.6823   -0.2514   62.5321 H         1 CIT         0.0452
     15 H2         16.1873   -0.6189   63.4575 H         1 CIT         0.0452
     16 H3         15.2051   -3.3313   61.4669 H         1 CIT         0.2091
     17 H4         17.9241   -3.3409   61.3611 H         1 CIT         0.0452
     18 H5         18.3183   -1.7755   60.5733 H         1 CIT         0.0452
@<TRIPOS>BOND
     1    1    2 ar 
     2    1    3 ar 
     3    1    4 1  
     4    4    5 1  
     5    5    6 1  
     6    5    7 1  
     7    5   11 1  
     8    7    8 1  
     9    8    9 ar 
    10    8   10 ar 
    11   11   12 ar 
    12   11   13 ar 
    13    4   14 1  
    14    4   15 1  
    15    6   16 1  
    16    7   17 1  
    17    7   18 1  
@<TRIPOS>SUBSTRUCTURE
     1 CIT         1

