### 
### Created by X-TOOL on Mon Sep 10 21:12:57 2018
### 

@<TRIPOS>MOLECULE
2qpu_ligand
   68    70     1     0     0
SMALL
GAST_HUCK


@<TRIPOS>ATOM
      1 C1A       165.2180   50.6870   14.9210 C.3       1 QPU         0.0336
      2 C2A       163.7320   50.2960   14.7110 C.3       1 QPU         0.1281
      3 C3A       162.8630   51.5520   14.8410 C.3       1 QPU         0.1125
      4 C4A       162.6800   51.8270   16.3400 C.3       1 QPU         0.0888
      5 C5A       164.0770   51.9780   16.9810 C.3       1 QPU         0.0161
      6 C6A       164.2210   52.6830   18.3220 C.3       1 QPU        -0.0574
      7 C7A       165.3380   51.4040   16.2850 C.3       1 QPU         0.1051
      8 O2A       163.5750   49.6760   13.4460 O.3       1 QPU        -0.3834
      9 O3A       161.5850   51.3740   14.2350 O.3       1 QPU        -0.3864
     10 O4A       161.8850   53.0020   16.4990 O.3       1 QPU        -0.3888
     11 O6A       166.0420   50.5590   17.1940 O.3       1 QPU        -0.3858
     12 C1B       168.6980   50.7780   10.8650 C.3       1 QPU         0.1886
     13 C2B       167.2730   50.2200   10.6620 C.3       1 QPU         0.1370
     14 C3B       166.2690   50.9990   11.5220 C.3       1 QPU         0.1304
     15 C4B       166.6840   50.8540   12.9970 C.3       1 QPU         0.0335
     16 C5B       168.1290   51.4330   13.1540 C.3       1 QPU         0.1038
     17 C6B       168.6350   51.3040   14.5860 C.3       1 QPU        -0.0332
     18 N4B       165.7070   51.5780   13.8460 N.4       1 QPU         0.2388
     19 O2B       166.9340   50.2990    9.2860 O.3       1 QPU        -0.3840
     20 O3B       164.9610   50.4730   11.3260 O.3       1 QPU        -0.3834
     21 O5B       169.0390   50.7100   12.2690 O.3       1 QPU        -0.3401
     22 C1C       170.3570   54.2040    7.0280 C.3       1 QPU         0.0767
     23 C2C       169.0450   53.4090    6.8610 C.3       1 QPU         0.1068
     24 C3C       168.4010   53.1750    8.2380 C.3       1 QPU         0.1118
     25 C4C       169.3780   52.3820    9.1000 C.3       1 QPU         0.1182
     26 C5C       170.6920   53.2160    9.2490 C.3       1 QPU         0.1104
     27 C6C       171.7760   52.5180   10.0680 C.3       1 QPU         0.0729
     28 O2C       168.1610   54.1360    6.0080 O.3       1 QPU        -0.3869
     29 O3C       167.2040   52.4420    8.0850 O.3       1 QPU        -0.3865
     30 O4C       168.7760   52.1310   10.4050 O.3       1 QPU        -0.3401
     31 O5C       171.2600   53.5030    7.9240 O.3       1 QPU        -0.3690
     32 O6C       172.2350   53.3370   11.1280 O.3       1 QPU        -0.3924
     33 H1        165.8319   49.7743   14.9308 H         1 QPU         0.0903
     34 H2        163.4346   49.5795   15.4909 H         1 QPU         0.0678
     35 H3        163.3724   52.4016   14.3628 H         1 QPU         0.0647
     36 H4        162.1604   50.9794   16.8107 H         1 QPU         0.0623
     37 H5        164.2173   52.9336   16.4547 H         1 QPU         0.0351
     38 H6        165.2803   52.6948   18.6181 H         1 QPU         0.0234
     39 H7        163.6336   52.1478   19.0826 H         1 QPU         0.0234
     40 H8        163.8532   53.7160   18.2346 H         1 QPU         0.0234
     41 H9        165.9776   52.2779   16.0923 H         1 QPU         0.0654
     42 H10       163.8268   50.2857   12.7623 H         1 QPU         0.2102
     43 H11       161.6967   51.2037   13.3071 H         1 QPU         0.2100
     44 H12       161.0373   52.8669   16.0920 H         1 QPU         0.2099
     45 H13       166.8141   50.2085   16.7656 H         1 QPU         0.2101
     46 H14       169.4089   50.1654   10.2911 H         1 QPU         0.0938
     47 H15       167.2550   49.1646   10.9716 H         1 QPU         0.0672
     48 H16       166.2812   52.0614   11.2371 H         1 QPU         0.0679
     49 H17       166.6871   49.7911   13.2801 H         1 QPU         0.0903
     50 H18       168.1166   52.4969   12.8747 H         1 QPU         0.0652
     51 H19       169.6506   51.7209   14.6549 H         1 QPU         0.0257
     52 H20       168.6541   50.2425   14.8739 H         1 QPU         0.0257
     53 H21       167.9656   51.8555   15.2625 H         1 QPU         0.0257
     54 H22       166.1529   52.3835   14.2563 H         1 QPU         0.2023
     55 H23       164.9287   51.8769   13.2795 H         1 QPU         0.2023
     56 H24       166.9386   51.2085    9.0116 H         1 QPU         0.2101
     57 H25       164.3449   50.9480   11.8713 H         1 QPU         0.2102
     58 H26       170.1297   55.1962    7.4450 H         1 QPU         0.0586
     59 H27       170.8383   54.3206    6.0458 H         1 QPU         0.0586
     60 H28       169.2675   52.4350    6.4008 H         1 QPU         0.0643
     61 H29       168.1824   54.1415    8.7156 H         1 QPU         0.0647
     62 H30       169.6065   51.4216    8.6149 H         1 QPU         0.0650
     63 H31       170.4367   54.1636    9.7459 H         1 QPU         0.0646
     64 H32       172.6234   52.2787    9.4088 H         1 QPU         0.0584
     65 H33       171.3639   51.5884   10.4875 H         1 QPU         0.0584
     66 H34       167.3575   53.6426    5.8921 H         1 QPU         0.2100
     67 H35       166.8183   52.2859    8.9390 H         1 QPU         0.2100
     68 H36       172.9063   52.8747   11.6160 H         1 QPU         0.2095
@<TRIPOS>BOND
     1    1    2 1  
     2    1    7 1  
     3   18    1 1  
     4    2    3 1  
     5    2    8 1  
     6    3    4 1  
     7    3    9 1  
     8    5    4 1  
     9    4   10 1  
    10    5    6 1  
    11    7    5 1  
    12    7   11 1  
    13   12   13 1  
    14   12   21 1  
    15   30   12 1  
    16   13   14 1  
    17   13   19 1  
    18   14   15 1  
    19   14   20 1  
    20   16   15 1  
    21   15   18 1  
    22   16   17 1  
    23   21   16 1  
    24   23   22 1  
    25   22   31 1  
    26   24   23 1  
    27   23   28 1  
    28   25   24 1  
    29   24   29 1  
    30   25   26 1  
    31   25   30 1  
    32   26   27 1  
    33   26   31 1  
    34   27   32 1  
    35    1   33 1  
    36    2   34 1  
    37    3   35 1  
    38    4   36 1  
    39    5   37 1  
    40    6   38 1  
    41    6   39 1  
    42    6   40 1  
    43    7   41 1  
    44    8   42 1  
    45    9   43 1  
    46   10   44 1  
    47   11   45 1  
    48   12   46 1  
    49   13   47 1  
    50   14   48 1  
    51   15   49 1  
    52   16   50 1  
    53   17   51 1  
    54   17   52 1  
    55   17   53 1  
    56   18   54 1  
    57   18   55 1  
    58   19   56 1  
    59   20   57 1  
    60   22   58 1  
    61   22   59 1  
    62   23   60 1  
    63   24   61 1  
    64   25   62 1  
    65   26   63 1  
    66   27   64 1  
    67   27   65 1  
    68   28   66 1  
    69   29   67 1  
    70   32   68 1  
@<TRIPOS>SUBSTRUCTURE
     1 QPU         1

