### 
### Created by X-TOOL on Mon Sep 10 21:12:58 2018
### 

@<TRIPOS>MOLECULE
2qq7_ligand
   50    52     1     0     0
SMALL
GAST_HUCK


@<TRIPOS>ATOM
      1 C4          6.4920   -4.9110   -8.4140 C.ar      1 SR2        -0.0272
      2 C3          5.5350   -4.4390   -9.3070 C.ar      1 SR2         0.0042
      3 BRR1        5.9640   -4.3990  -11.1730 Br        1 SR2        -0.0528
      4 C22         4.2920   -4.0070   -8.8180 C.ar      1 SR2        -0.0632
      5 C21         4.0220   -4.0460   -7.4430 C.ar      1 SR2        -0.0680
      6 C20         4.9890   -4.5210   -6.5550 C.ar      1 SR2        -0.0342
      7 C5          6.2250   -4.9490   -7.0470 C.ar      1 SR2         0.0708
      8 N1          7.1450   -5.4100   -6.2050 N.pl3     1 SR2        -0.2472
      9 C6          8.4580   -5.1500   -6.3030 C.ar      1 SR2         0.1549
     10 C7          9.3400   -5.8390   -5.4670 C.ar      1 SR2         0.0428
     11 C8          8.8800   -6.7950   -4.5380 C.ar      1 SR2        -0.0233
     12 N3          8.9590   -4.2290   -7.1720 N.ar      1 SR2        -0.2575
     13 C19        10.2650   -3.9730   -7.2490 C.ar      1 SR2         0.0558
     14 N2         11.1330   -4.6240   -6.4790 N.ar      1 SR2        -0.3004
     15 C18        10.7070   -5.5430   -5.5900 C.ar      1 SR2         0.0351
     16 C17        11.6230   -6.1960   -4.7810 C.ar      1 SR2        -0.0453
     17 C13        11.1650   -7.1360   -3.8630 C.ar      1 SR2        -0.0283
     18 C9          9.8080   -7.4500   -3.7290 C.ar      1 SR2         0.0745
     19 N11         9.5110   -8.3540   -2.7820 N.am      1 SR2        -0.2321
     20 C10         8.5050   -8.2370   -1.8920 C.2       1 SR2         0.2044
     21 O61         7.6640   -7.3310   -1.8730 O.2       1 SR2        -0.3845
     22 C11         8.4440   -9.3830   -0.8680 C.3       1 SR2         0.0481
     23 C51         7.6910   -9.1230    0.4720 C.3       1 SR2         0.0049
     24 C61         6.1500   -9.0200    0.2960 C.3       1 SR2        -0.0303
     25 N63         5.4880   -9.6940    1.4510 N.4       1 SR2         0.2310
     26 C65         4.0320   -9.6820    1.2150 C.3       1 SR2        -0.0433
     27 C67         5.7730   -9.0290    2.7260 C.3       1 SR2        -0.0433
     28 H1          7.4521   -5.2516   -8.7844 H         1 SR2         0.0569
     29 H2          3.5382   -3.6419   -9.5062 H         1 SR2         0.0550
     30 H3          3.0625   -3.7074   -7.0692 H         1 SR2         0.0596
     31 H4          4.7825   -4.5575   -5.4915 H         1 SR2         0.0566
     32 H5          6.8293   -6.0058   -5.4264 H         1 SR2         0.2216
     33 H6          7.8223   -7.0171   -4.4541 H         1 SR2         0.0508
     34 H7         10.6240   -3.2256   -7.9472 H         1 SR2         0.1015
     35 H8         12.6817   -5.9776   -4.8621 H         1 SR2         0.0616
     36 H9         11.8843   -7.6426   -3.2297 H         1 SR2         0.0618
     37 H10        10.0785   -9.1759   -2.7330 H         1 SR2         0.2265
     38 H11         9.4801   -9.6519   -0.6149 H         1 SR2         0.0510
     39 H12         7.9533  -10.2360   -1.3595 H         1 SR2         0.0510
     40 H13         8.0579   -8.1795    0.9023 H         1 SR2         0.0341
     41 H14         7.9098   -9.9506    1.1627 H         1 SR2         0.0341
     42 H15         5.8511   -9.5132   -0.6407 H         1 SR2         0.0816
     43 H16         5.8513   -7.9618    0.2648 H         1 SR2         0.0816
     44 H17         5.8137  -10.6465    1.5036 H         1 SR2         0.2028
     45 H18         3.5204  -10.1746    2.0550 H         1 SR2         0.0777
     46 H19         3.8072  -10.2202    0.2824 H         1 SR2         0.0777
     47 H20         3.6826   -8.6423    1.1317 H         1 SR2         0.0777
     48 H21         6.8578   -9.0346    2.9080 H         1 SR2         0.0777
     49 H22         5.2619   -9.5632    3.5405 H         1 SR2         0.0777
     50 H23         5.4133   -7.9903    2.6863 H         1 SR2         0.0777
@<TRIPOS>BOND
     1    1    2 ar 
     2    1    7 ar 
     3    2    3 1  
     4    2    4 ar 
     5    4    5 ar 
     6    5    6 ar 
     7    6    7 ar 
     8    7    8 1  
     9    8    9 1  
    10    9   10 ar 
    11    9   12 ar 
    12   10   11 ar 
    13   10   15 ar 
    14   11   18 ar 
    15   12   13 ar 
    16   13   14 ar 
    17   14   15 ar 
    18   15   16 ar 
    19   16   17 ar 
    20   17   18 ar 
    21   18   19 1  
    22   19   20 am 
    23   20   21 2  
    24   20   22 1  
    25   22   23 1  
    26   23   24 1  
    27   24   25 1  
    28   25   26 1  
    29   25   27 1  
    30    1   28 1  
    31    4   29 1  
    32    5   30 1  
    33    6   31 1  
    34    8   32 1  
    35   11   33 1  
    36   13   34 1  
    37   16   35 1  
    38   17   36 1  
    39   19   37 1  
    40   22   38 1  
    41   22   39 1  
    42   23   40 1  
    43   23   41 1  
    44   24   42 1  
    45   24   43 1  
    46   25   44 1  
    47   26   45 1  
    48   26   46 1  
    49   26   47 1  
    50   27   48 1  
    51   27   49 1  
    52   27   50 1  
@<TRIPOS>SUBSTRUCTURE
     1 SR2         1

