### 
### Created by X-TOOL on Fri Sep 26 17:34:40 2014
### 

@<TRIPOS>MOLECULE
2qrg_ligand
   42    44     1     0     0
SMALL
GAST_HUCK


@<TRIPOS>ATOM
      1 C15        37.2640   26.6140   35.0690 C.3       1 M07         0.0599
      2 O8         37.9810   26.0510   33.9560 O.3       1 M07        -0.3200
      3 C12        37.1670   25.5740   32.9600 C.ar      1 M07         0.0925
      4 C11        37.7550   25.0240   31.8220 C.ar      1 M07        -0.0313
      5 C10        36.9620   24.5260   30.7830 C.ar      1 M07        -0.0606
      6 C13        35.7670   25.6230   33.0530 C.ar      1 M07        -0.0313
      7 C14        34.9750   25.1210   32.0150 C.ar      1 M07        -0.0606
      8 C9         35.5710   24.5660   30.8780 C.ar      1 M07        -0.0145
      9 C8         34.7850   24.0860   29.8200 C.2       1 M07         0.0531
     10 C7         35.2840   23.3430   28.5820 C.3       1 M07         0.0562
     11 N1         33.4700   24.2530   29.6950 N.2       1 M07        -0.1743
     12 O7         32.9520   23.6970   28.4860 O.3       1 M07        -0.2146
     13 C1         33.9930   22.9180   27.8760 C.3       1 M07         0.2468
     14 O5         33.7750   21.5110   28.1170 O.3       1 M07        -0.3315
     15 C5         32.5500   20.9950   27.5300 C.3       1 M07         0.1139
     16 C6         32.4080   19.5330   27.9740 C.3       1 M07         0.0730
     17 O6         33.4000   18.7350   27.3090 O.3       1 M07        -0.3924
     18 C4         32.5900   21.1640   25.9950 C.3       1 M07         0.1120
     19 O4         31.3630   20.6960   25.4160 O.3       1 M07        -0.3865
     20 C3         32.8400   22.6280   25.6070 C.3       1 M07         0.1151
     21 O3         33.0610   22.7310   24.1940 O.3       1 M07        -0.3864
     22 C2         34.0610   23.1980   26.3570 C.3       1 M07         0.1453
     23 O2         34.1640   24.6070   26.1110 O.3       1 M07        -0.3831
     24 H1         37.9802   26.9731   35.8227 H         1 M07         0.0579
     25 H2         36.6170   25.8445   35.5154 H         1 M07         0.0579
     26 H3         36.6466   27.4548   34.7200 H         1 M07         0.0579
     27 H4         38.8352   24.9819   31.7417 H         1 M07         0.0548
     28 H5         37.4306   24.1070   29.8999 H         1 M07         0.0598
     29 H6         35.2984   26.0511   33.9318 H         1 M07         0.0548
     30 H7         33.8945   25.1623   32.0922 H         1 M07         0.0598
     31 H8         35.8844   22.4659   28.8651 H         1 M07         0.0489
     32 H9         35.8831   24.0059   27.9404 H         1 M07         0.0489
     33 H10        31.6924   21.5654   27.9161 H         1 M07         0.0647
     34 H11        31.4050   19.1654   27.7118 H         1 M07         0.0584
     35 H12        32.5508   19.4643   29.0625 H         1 M07         0.0584
     36 H13        34.2656   19.0538   27.5361 H         1 M07         0.2095
     37 H14        33.4171   20.5556   25.6004 H         1 M07         0.0647
     38 H15        31.3977   20.8042   24.4728 H         1 M07         0.2100
     39 H16        31.9520   23.2195   25.8745 H         1 M07         0.0648
     40 H17        33.2146   23.6399   23.9641 H         1 M07         0.2100
     41 H18        34.9638   22.7091   25.9621 H         1 M07         0.0682
     42 H19        33.3754   25.0393   26.4172 H         1 M07         0.2102
@<TRIPOS>BOND
     1    1    2 1  
     2    2    3 1  
     3    3    4 ar 
     4    3    6 ar 
     5    4    5 ar 
     6    5    8 ar 
     7    6    7 ar 
     8    7    8 ar 
     9    8    9 1  
    10    9   10 1  
    11    9   11 2  
    12   10   13 1  
    13   11   12 1  
    14   12   13 1  
    15   13   14 1  
    16   13   22 1  
    17   14   15 1  
    18   15   16 1  
    19   15   18 1  
    20   16   17 1  
    21   18   19 1  
    22   18   20 1  
    23   20   21 1  
    24   20   22 1  
    25   22   23 1  
    26    1   24 1  
    27    1   25 1  
    28    1   26 1  
    29    4   27 1  
    30    5   28 1  
    31    6   29 1  
    32    7   30 1  
    33   10   31 1  
    34   10   32 1  
    35   15   33 1  
    36   16   34 1  
    37   16   35 1  
    38   17   36 1  
    39   18   37 1  
    40   19   38 1  
    41   20   39 1  
    42   21   40 1  
    43   22   41 1  
    44   23   42 1  
@<TRIPOS>SUBSTRUCTURE
     1 M07         1

