### 
### Created by X-TOOL on Fri Sep 26 17:34:40 2014
### 

@<TRIPOS>MOLECULE
2qrh_ligand
   38    40     1     0     0
SMALL
GAST_HUCK


@<TRIPOS>ATOM
      1 C10        36.8630   24.4410   30.8680 C.ar      1 M08        -0.0537
      2 C11        37.6340   24.8740   31.9530 C.ar      1 M08        -0.0620
      3 C12        37.0060   25.3460   33.1030 C.ar      1 M08        -0.0626
      4 C13        35.6120   25.3910   33.1770 C.ar      1 M08        -0.0620
      5 C14        34.8420   24.9550   32.0950 C.ar      1 M08        -0.0537
      6 C9         35.4680   24.4780   30.9410 C.ar      1 M08        -0.0048
      7 C8         34.7020   24.0540   29.8520 C.2       1 M08         0.0621
      8 C7         35.2310   23.3450   28.6120 C.3       1 M08         0.0581
      9 N1         33.3890   24.2240   29.7090 N.2       1 M08        -0.1650
     10 O7         32.9030   23.7020   28.4730 O.3       1 M08        -0.2095
     11 C1         33.9570   22.9260   27.8830 C.3       1 M08         0.2486
     12 O5         33.7250   21.5120   28.1200 O.3       1 M08        -0.3313
     13 C5         32.4970   21.0230   27.5240 C.3       1 M08         0.1139
     14 C6         32.3190   19.5650   27.9670 C.3       1 M08         0.0730
     15 O6         33.3060   18.7600   27.3130 O.3       1 M08        -0.3924
     16 C4         32.5900   21.1960   25.9930 C.3       1 M08         0.1120
     17 O4         31.3940   20.7240   25.3640 O.3       1 M08        -0.3865
     18 C3         32.8320   22.6630   25.6110 C.3       1 M08         0.1151
     19 O3         33.0330   22.7460   24.1940 O.3       1 M08        -0.3864
     20 C2         34.0550   23.2250   26.3670 C.3       1 M08         0.1456
     21 O2         34.1880   24.6390   26.1340 O.3       1 M08        -0.3830
     22 H1         37.3486   24.0765   29.9700 H         1 M08         0.0618
     23 H2         38.7162   24.8421   31.8984 H         1 M08         0.0615
     24 H3         37.6019   25.6800   33.9446 H         1 M08         0.0611
     25 H4         35.1278   25.7636   34.0724 H         1 M08         0.0615
     26 H5         33.7599   24.9870   32.1514 H         1 M08         0.0618
     27 H6         35.8356   22.4680   28.8863 H         1 M08         0.0489
     28 H7         35.8335   24.0270   27.9940 H         1 M08         0.0489
     29 H8         31.6439   21.6119   27.8919 H         1 M08         0.0647
     30 H9         31.3137   19.2146   27.6902 H         1 M08         0.0584
     31 H10        32.4456   19.4918   29.0572 H         1 M08         0.0584
     32 H11        34.1726   19.0663   27.5530 H         1 M08         0.2095
     33 H12        33.4379   20.5974   25.6287 H         1 M08         0.0647
     34 H13        31.4664   20.8370   24.4235 H         1 M08         0.2100
     35 H14        31.9462   23.2557   25.8831 H         1 M08         0.0648
     36 H15        32.2612   22.4198   23.7461 H         1 M08         0.2100
     37 H16        34.9556   22.7272   25.9784 H         1 M08         0.0682
     38 H17        33.4059   25.0840   26.4386 H         1 M08         0.2102
@<TRIPOS>BOND
     1    1    2 ar 
     2    1    6 ar 
     3    2    3 ar 
     4    3    4 ar 
     5    4    5 ar 
     6    5    6 ar 
     7    6    7 1  
     8    7    8 1  
     9    7    9 2  
    10    8   11 1  
    11    9   10 1  
    12   10   11 1  
    13   11   12 1  
    14   11   20 1  
    15   12   13 1  
    16   13   14 1  
    17   13   16 1  
    18   14   15 1  
    19   16   17 1  
    20   16   18 1  
    21   18   19 1  
    22   18   20 1  
    23   20   21 1  
    24    1   22 1  
    25    2   23 1  
    26    3   24 1  
    27    4   25 1  
    28    5   26 1  
    29    8   27 1  
    30    8   28 1  
    31   13   29 1  
    32   14   30 1  
    33   14   31 1  
    34   15   32 1  
    35   16   33 1  
    36   17   34 1  
    37   18   35 1  
    38   19   36 1  
    39   20   37 1  
    40   21   38 1  
@<TRIPOS>SUBSTRUCTURE
     1 M08         1

