### 
### Created by X-TOOL on Mon Sep 10 21:12:56 2018
### 

@<TRIPOS>MOLECULE
2qrl_ligand
   13    12     1     0     0
SMALL
GAST_HUCK


@<TRIPOS>ATOM
      1 C1         44.4200   54.5490   16.2100 C.2       1 OGA         0.1433
      2 C2         45.1230   53.8940   17.3170 C.2       1 OGA         0.2452
      3 C4         46.2560   54.3270   19.4840 C.3       1 OGA         0.0841
      4 C5         46.6180   55.5610   20.2870 C.2       1 OGA         0.0572
      5 O1         44.1960   55.7740   16.3160 O.co2     1 OGA        -0.5457
      6 O2         44.0210   53.8850   15.2300 O.co2     1 OGA        -0.5457
      7 O2'        45.2590   52.6740   17.3840 O.2       1 OGA        -0.3655
      8 O3         47.0710   55.3280   21.4390 O.co2     1 OGA        -0.5669
      9 N1         45.5520   54.7050   18.2640 N.am      1 OGA        -0.2659
     10 O4         46.4710   56.7320   19.8030 O.co2     1 OGA        -0.5669
     11 H1         45.6080   53.6769   20.0901 H         1 OGA         0.0691
     12 H2         47.1752   53.7841   19.2190 H         1 OGA         0.0691
     13 H3         45.3764   55.6806   18.1320 H         1 OGA         0.1886
@<TRIPOS>BOND
     1    2    1 1  
     2    1    5 ar 
     3    1    6 ar 
     4    2    7 2  
     5    9    2 am 
     6    3    4 1  
     7    3    9 1  
     8    4    8 ar 
     9    4   10 ar 
    10    3   11 1  
    11    3   12 1  
    12    9   13 1  
@<TRIPOS>SUBSTRUCTURE
     1 OGA         1

