### 
### Created by X-TOOL on Fri Sep 26 17:34:40 2014
### 

@<TRIPOS>MOLECULE
2qrm_ligand
   40    42     1     0     0
SMALL
GAST_HUCK


@<TRIPOS>ATOM
      1 C10        36.6780   24.5020   31.1920 C.ar      1 M09         0.0382
      2 C11        37.3420   24.9560   32.3400 C.ar      1 M09         0.0384
      3 C12        36.6090   25.4560   33.4240 C.ar      1 M09         0.1487
      4 N2         37.2180   25.8980   34.5350 N.2       1 M09        -0.1673
      5 O9         38.6190   26.1100   34.5570 O.2       1 M09        -0.4636
      6 O8         36.4580   26.1600   35.7100 O.2       1 M09        -0.4636
      7 C13        35.2160   25.4980   33.3520 C.ar      1 M09         0.0384
      8 C14        34.5570   25.0440   32.2090 C.ar      1 M09         0.0382
      9 C9         35.2780   24.5430   31.1280 C.ar      1 M09         0.1673
     10 C8         34.5840   24.1120   29.9890 C.2       1 M09         0.3374
     11 C7         35.1790   23.4320   28.7600 C.3       1 M09         0.1705
     12 N1         33.2710   24.2520   29.7820 N.2       1 M09         0.2153
     13 O7         32.8500   23.7430   28.5110 O.3       1 M09         0.0216
     14 C1         33.9420   22.9760   27.9790 C.3       1 M09         0.3614
     15 O5         33.7100   21.5730   28.2340 O.3       1 M09        -0.3134
     16 C5         32.5160   21.0510   27.5850 C.3       1 M09         0.1157
     17 C6         32.3730   19.5830   28.0010 C.3       1 M09         0.0731
     18 O6         33.4110   18.8130   27.3890 O.3       1 M09        -0.3924
     19 C4         32.6240   21.2220   26.0500 C.3       1 M09         0.1121
     20 O4         31.4130   20.7890   25.4240 O.3       1 M09        -0.3865
     21 C3         32.9120   22.6730   25.6560 C.3       1 M09         0.1171
     22 O3         33.1810   22.7210   24.2440 O.3       1 M09        -0.3863
     23 C2         34.1110   23.2240   26.4560 C.3       1 M09         0.1686
     24 O2         34.3030   24.6190   26.1700 O.3       1 M09        -0.3811
     25 H1         37.2474   24.1189   30.3529 H         1 M09         0.1096
     26 H2         38.4243   24.9201   32.3890 H         1 M09         0.0882
     27 H3         34.6437   25.8849   34.1874 H         1 M09         0.0882
     28 H4         33.4747   25.0816   32.1620 H         1 M09         0.1096
     29 H5         35.8027   22.5728   29.0477 H         1 M09         0.0876
     30 H6         35.7795   24.1396   28.1696 H         1 M09         0.0876
     31 H7         31.6355   21.6093   27.9357 H         1 M09         0.0648
     32 H8         31.3935   19.2029   27.6754 H         1 M09         0.0584
     33 H9         32.4525   19.5021   29.0951 H         1 M09         0.0584
     34 H10        34.2563   19.1424   27.6709 H         1 M09         0.2095
     35 H11        33.4524   20.5941   25.6902 H         1 M09         0.0647
     36 H12        31.4879   20.8973   24.4831 H         1 M09         0.2100
     37 H13        32.0274   23.2888   25.8757 H         1 M09         0.0649
     38 H14        32.4243   22.4003   23.7675 H         1 M09         0.2100
     39 H15        35.0119   22.6847   26.1281 H         1 M09         0.0703
     40 H16        34.4714   24.7305   25.2417 H         1 M09         0.2102
@<TRIPOS>BOND
     1    1    2 ar 
     2    1    9 ar 
     3    2    3 ar 
     4    3    4 1  
     5    3    7 ar 
     6    4    5 2  
     7    4    6 2  
     8    7    8 ar 
     9    8    9 ar 
    10    9   10 1  
    11   10   11 1  
    12   10   12 2  
    13   11   14 1  
    14   12   13 1  
    15   13   14 1  
    16   14   15 1  
    17   14   23 1  
    18   15   16 1  
    19   16   17 1  
    20   16   19 1  
    21   17   18 1  
    22   19   20 1  
    23   19   21 1  
    24   21   22 1  
    25   21   23 1  
    26   23   24 1  
    27    1   25 1  
    28    2   26 1  
    29    7   27 1  
    30    8   28 1  
    31   11   29 1  
    32   11   30 1  
    33   16   31 1  
    34   17   32 1  
    35   17   33 1  
    36   18   34 1  
    37   19   35 1  
    38   20   36 1  
    39   21   37 1  
    40   22   38 1  
    41   23   39 1  
    42   24   40 1  
@<TRIPOS>SUBSTRUCTURE
     1 M09         1

