### 
### Created by X-TOOL on Fri Sep 26 17:34:40 2014
### 

@<TRIPOS>MOLECULE
2qrp_ligand
   44    47     1     0     0
SMALL
GAST_HUCK


@<TRIPOS>ATOM
      1 C10        36.2690   24.6150   30.4880 C.ar      1 S06        -0.0464
      2 C11        36.9200   25.1130   31.6240 C.ar      1 S06        -0.0184
      3 C12        38.2910   25.3550   31.5810 C.ar      1 S06        -0.0546
      4 C13        38.9300   25.8500   32.7220 C.ar      1 S06        -0.0616
      5 C14        38.2130   26.1050   33.8940 C.ar      1 S06        -0.0616
      6 C15        36.8410   25.8670   33.9390 C.ar      1 S06        -0.0545
      7 C16        36.1980   25.3730   32.7990 C.ar      1 S06        -0.0184
      8 C17        34.8280   25.1280   32.8400 C.ar      1 S06        -0.0538
      9 C18        34.1850   24.6370   31.7040 C.ar      1 S06        -0.0528
     10 C9         34.8970   24.3690   30.5300 C.ar      1 S06        -0.0042
     11 C8         34.2170   23.8950   29.4030 C.2       1 S06         0.0623
     12 C7         34.8140   23.2020   28.1810 C.3       1 S06         0.0582
     13 N1         32.9080   24.0230   29.2040 N.2       1 S06        -0.1645
     14 O7         32.4780   23.4740   27.9610 O.3       1 S06        -0.2091
     15 C1         33.5790   22.7290   27.4130 C.3       1 S06         0.2488
     16 O5         33.3860   21.3180   27.6420 O.3       1 S06        -0.3313
     17 C5         32.1730   20.7930   27.0250 C.3       1 S06         0.1139
     18 C6         32.0140   19.3370   27.4590 C.3       1 S06         0.0730
     19 O6         33.0630   18.5510   26.8780 O.3       1 S06        -0.3924
     20 C4         32.2790   20.9650   25.4970 C.3       1 S06         0.1120
     21 O4         31.1080   20.4510   24.8440 O.3       1 S06        -0.3865
     22 C3         32.4960   22.4410   25.1320 C.3       1 S06         0.1151
     23 O3         32.7230   22.5600   23.7220 O.3       1 S06        -0.3864
     24 C2         33.7070   23.0090   25.9020 C.3       1 S06         0.1457
     25 O2         33.8470   24.4170   25.6640 O.3       1 S06        -0.3830
     26 H1         36.8292   24.4217   29.5803 H         1 S06         0.0619
     27 H2         38.8549   25.1623   30.6755 H         1 S06         0.0620
     28 H3         39.9972   26.0387   32.6970 H         1 S06         0.0617
     29 H4         38.7249   26.4885   34.7692 H         1 S06         0.0614
     30 H5         36.2792   26.0620   34.8453 H         1 S06         0.0623
     31 H6         34.2659   25.3173   33.7473 H         1 S06         0.0623
     32 H7         33.1159   24.4601   31.7312 H         1 S06         0.0622
     33 H8         35.4441   22.3508   28.4782 H         1 S06         0.0489
     34 H9         35.4080   23.9054   27.5790 H         1 S06         0.0489
     35 H10        31.3023   21.3633   27.3809 H         1 S06         0.0647
     36 H11        31.0392   18.9569   27.1194 H         1 S06         0.0584
     37 H12        32.0710   19.2723   28.5556 H         1 S06         0.0584
     38 H13        33.9041   18.8806   27.1719 H         1 S06         0.2095
     39 H14        33.1492   20.3913   25.1456 H         1 S06         0.0647
     40 H15        31.1939   20.5667   23.9050 H         1 S06         0.2100
     41 H16        31.5971   23.0141   25.4030 H         1 S06         0.0648
     42 H17        31.9683   22.2258   23.2515 H         1 S06         0.2100
     43 H18        34.6135   22.5058   25.5344 H         1 S06         0.0682
     44 H19        33.0613   24.8656   25.9537 H         1 S06         0.2102
@<TRIPOS>BOND
     1    1    2 ar 
     2    1   10 ar 
     3    2    3 ar 
     4    2    7 ar 
     5    3    4 ar 
     6    4    5 ar 
     7    5    6 ar 
     8    6    7 ar 
     9    7    8 ar 
    10    8    9 ar 
    11    9   10 ar 
    12   10   11 1  
    13   11   12 1  
    14   11   13 2  
    15   12   15 1  
    16   13   14 1  
    17   14   15 1  
    18   15   16 1  
    19   15   24 1  
    20   16   17 1  
    21   17   18 1  
    22   17   20 1  
    23   18   19 1  
    24   20   21 1  
    25   20   22 1  
    26   22   23 1  
    27   22   24 1  
    28   24   25 1  
    29    1   26 1  
    30    3   27 1  
    31    4   28 1  
    32    5   29 1  
    33    6   30 1  
    34    8   31 1  
    35    9   32 1  
    36   12   33 1  
    37   12   34 1  
    38   17   35 1  
    39   18   36 1  
    40   18   37 1  
    41   19   38 1  
    42   20   39 1  
    43   21   40 1  
    44   22   41 1  
    45   23   42 1  
    46   24   43 1  
    47   25   44 1  
@<TRIPOS>SUBSTRUCTURE
     1 S06         1

