### 
### Created by X-TOOL on Fri Sep 26 17:34:41 2014
### 

@<TRIPOS>MOLECULE
2qrq_ligand
   41    43     1     0     0
SMALL
GAST_HUCK


@<TRIPOS>ATOM
      1 C10        36.1830   24.3820   30.5880 C.ar      1 S13        -0.0593
      2 C11        36.8720   24.8340   31.7180 C.ar      1 S13        -0.0596
      3 C12        36.1690   25.1700   32.8760 C.ar      1 S13        -0.0454
      4 C15        36.9190   25.6700   34.1180 C.3       1 S13        -0.0308
      5 C13        34.7840   25.0400   32.9140 C.ar      1 S13        -0.0596
      6 C14        34.0970   24.5900   31.7840 C.ar      1 S13        -0.0593
      7 C9         34.7930   24.2510   30.6210 C.ar      1 S13        -0.0108
      8 C8         34.0920   23.8180   29.4920 C.2       1 S13         0.0565
      9 C7         34.6730   23.1140   28.2650 C.3       1 S13         0.0569
     10 N1         32.7880   23.9840   29.2900 N.2       1 S13        -0.1707
     11 O7         32.3570   23.4600   28.0260 O.3       1 S13        -0.2126
     12 C1         33.4330   22.6820   27.4820 C.3       1 S13         0.2475
     13 O5         33.1850   21.2790   27.7170 O.3       1 S13        -0.3314
     14 C5         31.9990   20.7720   27.0420 C.3       1 S13         0.1139
     15 C6         31.8590   19.3100   27.4690 C.3       1 S13         0.0730
     16 O6         32.9300   18.5450   26.9100 O.3       1 S13        -0.3924
     17 C4         32.1420   20.9370   25.5180 C.3       1 S13         0.1120
     18 O4         30.9640   20.4610   24.8430 O.3       1 S13        -0.3865
     19 C3         32.4090   22.4070   25.1530 C.3       1 S13         0.1151
     20 O3         32.6890   22.5110   23.7530 O.3       1 S13        -0.3864
     21 C2         33.5950   22.9670   25.9670 C.3       1 S13         0.1454
     22 O2         33.7220   24.3740   25.7390 O.3       1 S13        -0.3831
     23 H1         36.7287   24.1329   29.6851 H         1 S13         0.0605
     24 H2         37.9521   24.9234   31.6945 H         1 S13         0.0559
     25 H3         36.1979   25.8814   34.9213 H         1 S13         0.0394
     26 H4         37.4698   26.5889   33.8686 H         1 S13         0.0394
     27 H5         37.6268   24.8981   34.4544 H         1 S13         0.0394
     28 H6         34.2396   25.2873   33.8182 H         1 S13         0.0559
     29 H7         33.0168   24.5033   31.8097 H         1 S13         0.0605
     30 H8         35.2752   22.2421   28.5602 H         1 S13         0.0489
     31 H9         35.2920   23.8035   27.6722 H         1 S13         0.0489
     32 H10        31.1129   21.3338   27.3723 H         1 S13         0.0647
     33 H11        30.8983   18.9133   27.1089 H         1 S13         0.0584
     34 H12        31.8950   19.2435   28.5664 H         1 S13         0.0584
     35 H13        33.7592   18.8883   27.2216 H         1 S13         0.2095
     36 H14        33.0002   20.3353   25.1842 H         1 S13         0.0647
     37 H15        31.0713   20.5711   23.9055 H         1 S13         0.2100
     38 H16        31.5108   22.9986   25.3836 H         1 S13         0.0648
     39 H17        31.9436   22.1926   23.2576 H         1 S13         0.2100
     40 H18        34.5145   22.4724   25.6209 H         1 S13         0.0682
     41 H19        32.9225   24.8108   26.0085 H         1 S13         0.2102
@<TRIPOS>BOND
     1    1    2 ar 
     2    1    7 ar 
     3    2    3 ar 
     4    3    4 1  
     5    3    5 ar 
     6    5    6 ar 
     7    6    7 ar 
     8    7    8 1  
     9    8    9 1  
    10    8   10 2  
    11    9   12 1  
    12   10   11 1  
    13   11   12 1  
    14   12   13 1  
    15   12   21 1  
    16   13   14 1  
    17   14   15 1  
    18   14   17 1  
    19   15   16 1  
    20   17   18 1  
    21   17   19 1  
    22   19   20 1  
    23   19   21 1  
    24   21   22 1  
    25    1   23 1  
    26    2   24 1  
    27    4   25 1  
    28    4   26 1  
    29    4   27 1  
    30    5   28 1  
    31    6   29 1  
    32    9   30 1  
    33    9   31 1  
    34   14   32 1  
    35   15   33 1  
    36   15   34 1  
    37   16   35 1  
    38   17   36 1  
    39   18   37 1  
    40   19   38 1  
    41   20   39 1  
    42   21   40 1  
    43   22   41 1  
@<TRIPOS>SUBSTRUCTURE
     1 S13         1

