### 
### Created by X-TOOL on Mon Sep 10 21:12:58 2018
### 

@<TRIPOS>MOLECULE
2qt5_ligand
   55    54     1     0     0
SMALL
GAST_HUCK


@<TRIPOS>ATOM
      1 N           7.7610   25.6870    0.2540 N.4       1 GLY         0.2357
      2 CA          7.6030   24.9110    1.5200 C.3       1 GLY         0.0545
      3 C           8.6570   25.2400    2.5600 C.2       1 GLY         0.2237
      4 O           9.6320   25.9400    2.2730 O.2       1 GLY        -0.3910
      5 N           8.4710   24.7190    3.7690 N.am      1 THR        -0.2589
      6 CA          9.3880   24.9910    4.8790 C.3       1 THR         0.1566
      7 C           9.9550   23.6930    5.4550 C.2       1 THR         0.2065
      8 O           9.2210   22.7170    5.6540 O.2       1 THR        -0.3943
      9 CB          8.6800   25.7940    5.9930 C.3       1 THR         0.0924
     10 OG1         7.8960   26.8450    5.4070 O.3       1 THR        -0.3874
     11 CG2         9.6890   26.3720    6.9910 C.3       1 THR        -0.0346
     12 N          11.2600   23.6980    5.7220 N.am      1 GLU        -0.2635
     13 CA         11.9490   22.5410    6.2840 C.3       1 GLU         0.1324
     14 C          11.8140   22.4500    7.7980 C.2       1 GLU         0.2035
     15 O          11.9580   23.4490    8.5140 O.2       1 GLU        -0.3944
     16 CB         13.4370   22.5520    5.9090 C.3       1 GLU        -0.0008
     17 CG         14.1760   21.2640    6.2970 C.3       1 GLU         0.0044
     18 CD         15.5940   21.1940    5.7530 C.2       1 GLU         0.0350
     19 OE1        16.2810   22.2430    5.6890 O.co2     1 GLU        -0.5690
     20 OE2        16.0280   20.0800    5.3910 O.co2     1 GLU        -0.5690
     21 N          11.5420   21.2370    8.2720 N.am      1 VAL        -0.2692
     22 CA         11.5150   20.9340    9.6990 C.3       1 VAL         0.0967
     23 C          12.4770   19.7840   10.0020 C.2       1 VAL         0.0603
     24 O          13.1510   19.2670    9.0970 O.co2     1 VAL        -0.5666
     25 CB         10.0810   20.6060   10.2110 C.3       1 VAL        -0.0118
     26 CG1         9.1640   21.8100   10.0370 C.3       1 VAL        -0.0590
     27 CG2         9.5050   19.3660    9.5050 C.3       1 VAL        -0.0590
     28 OXT        12.6010   19.3510   11.1520 O.co2     1 VAL        -0.5666
     29 H1          7.0345   25.4248   -0.3937 H         1 GLY         0.2012
     30 H2          8.6615   25.4872   -0.1524 H         1 GLY         0.2012
     31 H3          7.6936   26.6728    0.4535 H         1 GLY         0.2012
     32 H4          7.6689   23.8389    1.2831 H         1 GLY         0.1061
     33 H5          6.6126   25.1326    1.9443 H         1 GLY         0.1061
     34 H6          7.6824   24.1243    3.9253 H         1 THR         0.1885
     35 H7         10.2238   25.5936    4.4938 H         1 THR         0.0826
     36 H8          8.0068   25.1152    6.5370 H         1 THR         0.0639
     37 H9          7.2449   26.4673    4.8274 H         1 THR         0.2101
     38 H10         9.1534   26.9362    7.7687 H         1 THR         0.0257
     39 H11        10.3831   27.0430    6.4637 H         1 THR         0.0257
     40 H12        10.2548   25.5518    7.4570 H         1 THR         0.0257
     41 H13        11.7873   24.5257    5.5301 H         1 GLU         0.1883
     42 H14        11.4913   21.6399    5.8497 H         1 GLU         0.0801
     43 H15        13.9189   23.3976    6.4215 H         1 GLU         0.0330
     44 H16        13.5207   22.6869    4.8205 H         1 GLU         0.0330
     45 H17        13.6098   20.4058    5.9059 H         1 GLU         0.0433
     46 H18        14.2203   21.2046    7.3945 H         1 GLU         0.0433
     47 H19        11.3478   20.5017    7.6227 H         1 VAL         0.1875
     48 H20        11.8656   21.8257   10.2394 H         1 VAL         0.0729
     49 H21        10.1476   20.3816   11.2858 H         1 VAL         0.0336
     50 H22         8.1573   21.5602   10.4034 H         1 VAL         0.0234
     51 H23         9.1102   22.0790    8.9718 H         1 VAL         0.0234
     52 H24         9.5623   22.6601   10.6103 H         1 VAL         0.0234
     53 H25        10.1861   18.5139    9.6468 H         1 VAL         0.0234
     54 H26         9.3962   19.5734    8.4302 H         1 VAL         0.0234
     55 H27         8.5211   19.1242    9.9333 H         1 VAL         0.0234
@<TRIPOS>BOND
     1    1    2 1  
     2    2    3 1  
     3    3    4 2  
     4    3    5 am 
     5    5    6 1  
     6    6    7 1  
     7    6    9 1  
     8    7    8 2  
     9    7   12 am 
    10    9   10 1  
    11    9   11 1  
    12   12   13 1  
    13   13   14 1  
    14   13   16 1  
    15   14   15 2  
    16   14   21 am 
    17   16   17 1  
    18   17   18 1  
    19   18   19 ar 
    20   18   20 ar 
    21   21   22 1  
    22   22   23 1  
    23   22   25 1  
    24   23   24 ar 
    25   23   28 ar 
    26   25   26 1  
    27   25   27 1  
    28    1   29 1  
    29    1   30 1  
    30    1   31 1  
    31    2   32 1  
    32    2   33 1  
    33    5   34 1  
    34    6   35 1  
    35    9   36 1  
    36   10   37 1  
    37   11   38 1  
    38   11   39 1  
    39   11   40 1  
    40   12   41 1  
    41   13   42 1  
    42   16   43 1  
    43   16   44 1  
    44   17   45 1  
    45   17   46 1  
    46   21   47 1  
    47   22   48 1  
    48   25   49 1  
    49   26   50 1  
    50   26   51 1  
    51   26   52 1  
    52   27   53 1  
    53   27   54 1  
    54   27   55 1  
@<TRIPOS>SUBSTRUCTURE
     1 GLY         1

