### 
### Created by X-TOOL on Mon Sep 10 21:12:55 2018
### 

@<TRIPOS>MOLECULE
2qt9_ligand
   63    66     1     0     0
SMALL
GAST_HUCK


@<TRIPOS>ATOM
      1 C2         47.8790   52.6120   33.5670 C.2       1 524        -0.0188
      2 C4         45.4160   52.4660   33.1680 C.2       1 524        -0.0177
      3 C5         45.1830   51.9390   34.4340 C.2       1 524         0.1285
      4 C1         47.6300   52.0450   34.9130 C.2       1 524         0.1549
      5 C3         46.8000   52.8040   32.7380 C.2       1 524        -0.0653
      6 N6         46.3710   51.7390   35.3100 N.pl3     1 524        -0.1256
      7 N7         46.3820   51.2820   36.4620 N.2       1 524        -0.1872
      8 C8         47.6660   51.2870   36.8440 C.2       1 524         0.0396
      9 N9         48.4960   51.7650   35.8930 N.2       1 524        -0.3166
     10 C14        39.4910   51.7900   36.1070 C.3       1 524         0.1114
     11 C15        38.3680   51.3080   35.1480 C.3       1 524         0.0849
     12 C16        36.9530   51.2460   35.7540 C.2       1 524         0.2297
     13 N17        36.1580   50.1610   35.7020 N.am      1 524        -0.2656
     14 C18        39.6940   50.6780   37.2370 C.2       1 524         0.1892
     15 N19        38.2000   52.2210   34.0330 N.4       1 524         0.2398
     16 O20        36.5350   52.2770   36.2890 O.2       1 524        -0.3905
     17 O21        39.7550   49.4960   36.8020 O.2       1 524        -0.3962
     18 N22        39.8250   50.9160   38.6240 N.am      1 524        -0.2788
     19 C23        39.7900   52.1870   39.3540 C.3       1 524         0.0223
     20 C27        40.0340   49.7090   39.4580 C.3       1 524         0.0223
     21 C31        36.4860   48.8670   35.1370 C.3       1 524         0.0652
     22 C32        35.2080   48.0510   35.3840 C.3       1 524         0.1230
     23 C33        34.1150   48.9220   36.0450 C.3       1 524         0.0007
     24 C34        34.8540   50.2980   36.2400 C.3       1 524         0.0368
     25 F41        35.4950   47.2440   36.4790 F         1 524        -0.2433
     26 C43        43.8540   51.5620   35.0070 C.3       1 524         0.0400
     27 C44        43.3240   52.7760   35.7830 C.3       1 524        -0.0322
     28 C45        41.9530   52.5130   36.4380 C.3       1 524        -0.0446
     29 C46        40.8750   52.0130   35.4060 C.3       1 524        -0.0134
     30 C47        41.4640   50.7840   34.6140 C.3       1 524        -0.0446
     31 C48        42.7960   51.1480   33.9470 C.3       1 524        -0.0322
     32 H1         48.8869   52.8689   33.2443 H         1 524         0.0507
     33 H2         44.5816   52.6321   32.4882 H         1 524         0.0478
     34 H3         46.9617   53.2135   31.7420 H         1 524         0.0661
     35 H4         48.0047   50.9416   37.8197 H         1 524         0.0851
     36 H5         39.1741   52.7369   36.5685 H         1 524         0.0624
     37 H6         38.6492   50.3097   34.7814 H         1 524         0.1128
     38 H7         37.4667   51.8831   33.4296 H         1 524         0.2017
     39 H8         39.0620   52.2795   33.5138 H         1 524         0.2017
     40 H9         37.9545   53.1347   34.3809 H         1 524         0.2017
     41 H10        39.9255   51.9963   40.4288 H         1 524         0.0486
     42 H11        38.8199   52.6784   39.1883 H         1 524         0.0486
     43 H12        40.5983   52.8398   38.9927 H         1 524         0.0486
     44 H13        40.0436   48.8164   38.8152 H         1 524         0.0486
     45 H14        39.2183   49.6241   40.1911 H         1 524         0.0486
     46 H15        40.9952   49.7905   39.9866 H         1 524         0.0486
     47 H16        37.3481   48.4175   35.6515 H         1 524         0.0551
     48 H17        36.7021   48.9480   34.0615 H         1 524         0.0551
     49 H18        34.8695   47.5165   34.4842 H         1 524         0.0672
     50 H19        33.7987   48.4996   37.0101 H         1 524         0.0313
     51 H20        33.2398   49.0297   35.3874 H         1 524         0.0313
     52 H21        34.3108   51.0944   35.7102 H         1 524         0.0523
     53 H22        34.9133   50.5441   37.3105 H         1 524         0.0523
     54 H23        43.9988   50.7176   35.6969 H         1 524         0.0566
     55 H24        43.2247   53.6222   35.0872 H         1 524         0.0300
     56 H25        44.0469   53.0324   36.5714 H         1 524         0.0300
     57 H26        41.5960   53.4475   36.8953 H         1 524         0.0272
     58 H27        42.0762   51.7469   37.2177 H         1 524         0.0272
     59 H28        40.7198   52.8155   34.6699 H         1 524         0.0331
     60 H29        40.7457   50.4774   33.8394 H         1 524         0.0272
     61 H30        41.6276   49.9505   35.3129 H         1 524         0.0272
     62 H31        43.1684   50.2769   33.3881 H         1 524         0.0300
     63 H32        42.6339   51.9865   33.2538 H         1 524         0.0300
@<TRIPOS>BOND
     1    4    1 1  
     2    5    1 2  
     3    3    2 2  
     4    2    5 1  
     5    3    6 1  
     6   26    3 1  
     7    6    4 1  
     8    4    9 2  
     9    6    7 1  
    10    7    8 2  
    11    8    9 1  
    12   10   11 1  
    13   10   14 1  
    14   29   10 1  
    15   11   12 1  
    16   11   15 1  
    17   12   13 am 
    18   12   16 2  
    19   13   21 1  
    20   13   24 1  
    21   14   17 2  
    22   14   18 am 
    23   18   19 1  
    24   18   20 1  
    25   21   22 1  
    26   23   22 1  
    27   22   25 1  
    28   24   23 1  
    29   27   26 1  
    30   26   31 1  
    31   28   27 1  
    32   28   29 1  
    33   29   30 1  
    34   30   31 1  
    35    1   32 1  
    36    2   33 1  
    37    5   34 1  
    38    8   35 1  
    39   10   36 1  
    40   11   37 1  
    41   15   38 1  
    42   15   39 1  
    43   15   40 1  
    44   19   41 1  
    45   19   42 1  
    46   19   43 1  
    47   20   44 1  
    48   20   45 1  
    49   20   46 1  
    50   21   47 1  
    51   21   48 1  
    52   22   49 1  
    53   23   50 1  
    54   23   51 1  
    55   24   52 1  
    56   24   53 1  
    57   26   54 1  
    58   27   55 1  
    59   27   56 1  
    60   28   57 1  
    61   28   58 1  
    62   29   59 1  
    63   30   60 1  
    64   30   61 1  
    65   31   62 1  
    66   31   63 1  
@<TRIPOS>SUBSTRUCTURE
     1 524         1

