### 
### Created by X-TOOL on Mon Sep 10 21:12:55 2018
### 

@<TRIPOS>MOLECULE
2qtb_ligand
   63    66     1     0     0
SMALL
GAST_HUCK


@<TRIPOS>ATOM
      1 C1         39.4600   51.4740   36.3070 C.3       1 474         0.1114
      2 C2         38.3490   51.0840   35.2830 C.3       1 474         0.0849
      3 C3         36.9340   51.2220   35.8910 C.2       1 474         0.2298
      4 N4         36.1340   50.1150   35.8650 N.am      1 474        -0.2626
      5 C5         39.6620   50.5030   37.3120 C.2       1 474         0.1892
      6 N6         38.3350   51.9220   34.0800 N.4       1 474         0.2398
      7 O7         36.5650   52.2830   36.3690 O.2       1 474        -0.3905
      8 O8         39.6690   49.3410   36.8670 O.2       1 474        -0.3962
      9 N9         39.8410   50.7430   38.6840 N.am      1 474        -0.2788
     10 C10        39.8400   52.0530   39.3650 C.3       1 474         0.0223
     11 C14        40.0490   49.5400   39.5210 C.3       1 474         0.0223
     12 C18        36.4680   48.7750   35.3410 C.3       1 474         0.0974
     13 C19        35.2210   47.9690   35.6210 C.3       1 474         0.2705
     14 C20        34.1370   49.0000   35.6290 C.3       1 474         0.0332
     15 C21        34.7750   50.1580   36.3930 C.3       1 474         0.0398
     16 F28        35.3120   47.4430   36.8590 F         1 474        -0.2034
     17 C29        43.9150   51.5700   35.2350 C.3       1 474        -0.0071
     18 C30        43.2120   52.7430   35.9650 C.3       1 474        -0.0417
     19 C31        41.9060   52.3700   36.6390 C.3       1 474        -0.0458
     20 C32        40.8650   51.8300   35.6160 C.3       1 474        -0.0135
     21 C33        41.5390   50.6190   34.8280 C.3       1 474        -0.0458
     22 C34        42.9090   50.9930   34.1840 C.3       1 474        -0.0417
     23 C48        47.9280   52.3380   33.7030 C.2       1 474         0.1580
     24 C49        46.8350   52.7230   32.7650 C.2       1 474        -0.0103
     25 C50        45.5410   52.5440   33.1610 C.2       1 474        -0.0493
     26 C51        45.2380   51.8890   34.4870 C.2       1 474         0.0029
     27 C52        46.2370   51.5180   35.3430 C.2       1 474         0.1029
     28 N53        47.6470   51.7120   34.8780 N.pl3     1 474        -0.1396
     29 N54        48.7020   51.4680   35.5080 N.2       1 474        -0.1885
     30 C55        49.6960   51.8710   34.6930 C.2       1 474         0.0407
     31 N56        49.2510   52.4130   33.5330 N.2       1 474        -0.3142
     32 F62        35.0350   47.0020   34.7230 F         1 474        -0.2034
     33 H1         39.1083   52.3874   36.8090 H         1 474         0.0624
     34 H2         38.5187   50.0380   34.9879 H         1 474         0.1128
     35 H3         37.5967   51.6158   33.4658 H         1 474         0.2017
     36 H4         39.2209   51.8436   33.6055 H         1 474         0.2017
     37 H5         38.1778   52.8827   34.3415 H         1 474         0.2017
     38 H6         40.0059   51.9062   40.4425 H         1 474         0.0486
     39 H7         38.8701   52.5475   39.2074 H         1 474         0.0486
     40 H8         40.6433   52.6813   38.9526 H         1 474         0.0486
     41 H9         40.0257   48.6426   38.8853 H         1 474         0.0486
     42 H10        39.2510   49.4757   40.2754 H         1 474         0.0486
     43 H11        41.0248   49.6076   40.0242 H         1 474         0.0486
     44 H12        37.3365   48.3519   35.8669 H         1 474         0.0581
     45 H13        36.6767   48.8151   34.2617 H         1 474         0.0581
     46 H14        33.2413   48.6288   36.1484 H         1 474         0.0343
     47 H15        33.8691   49.3008   34.6054 H         1 474         0.0343
     48 H16        34.2818   51.1144   36.1650 H         1 474         0.0524
     49 H17        34.7567   49.9857   37.4793 H         1 474         0.0524
     50 H18        44.1388   50.8000   35.9880 H         1 474         0.0435
     51 H19        43.0050   53.5324   35.2274 H         1 474         0.0287
     52 H20        43.8973   53.1298   36.7336 H         1 474         0.0287
     53 H21        41.4918   53.2617   37.1322 H         1 474         0.0271
     54 H22        42.1025   51.5925   37.3919 H         1 474         0.0271
     55 H23        40.6631   52.6275   34.8858 H         1 474         0.0331
     56 H24        40.8540   50.2964   34.0301 H         1 474         0.0271
     57 H25        41.6985   49.7891   35.5321 H         1 474         0.0271
     58 H26        43.3467   50.0907   33.7321 H         1 474         0.0287
     59 H27        42.7393   51.7489   33.4031 H         1 474         0.0287
     60 H28        47.0641   53.1382   31.7847 H         1 474         0.0596
     61 H29        44.7256   52.8743   32.5191 H         1 474         0.0663
     62 H30        46.0164   51.0984   36.3234 H         1 474         0.1155
     63 H31        50.7516   51.7713   34.9413 H         1 474         0.0849
@<TRIPOS>BOND
     1    1    2 1  
     2    1    5 1  
     3   20    1 1  
     4    2    3 1  
     5    2    6 1  
     6    3    4 am 
     7    3    7 2  
     8    4   12 1  
     9    4   15 1  
    10    5    8 2  
    11    5    9 am 
    12    9   10 1  
    13    9   11 1  
    14   12   13 1  
    15   14   13 1  
    16   13   16 1  
    17   13   32 1  
    18   15   14 1  
    19   17   18 1  
    20   17   22 1  
    21   26   17 1  
    22   18   19 1  
    23   19   20 1  
    24   21   20 1  
    25   22   21 1  
    26   24   23 1  
    27   23   28 1  
    28   23   31 2  
    29   25   24 2  
    30   25   26 1  
    31   26   27 2  
    32   27   28 1  
    33   28   29 1  
    34   29   30 2  
    35   30   31 1  
    36    1   33 1  
    37    2   34 1  
    38    6   35 1  
    39    6   36 1  
    40    6   37 1  
    41   10   38 1  
    42   10   39 1  
    43   10   40 1  
    44   11   41 1  
    45   11   42 1  
    46   11   43 1  
    47   12   44 1  
    48   12   45 1  
    49   14   46 1  
    50   14   47 1  
    51   15   48 1  
    52   15   49 1  
    53   17   50 1  
    54   18   51 1  
    55   18   52 1  
    56   19   53 1  
    57   19   54 1  
    58   20   55 1  
    59   21   56 1  
    60   21   57 1  
    61   22   58 1  
    62   22   59 1  
    63   24   60 1  
    64   25   61 1  
    65   27   62 1  
    66   30   63 1  
@<TRIPOS>SUBSTRUCTURE
     1 474         1

