### 
### Created by X-TOOL on Mon Sep 10 21:12:57 2018
### 

@<TRIPOS>MOLECULE
2qtg_ligand
   36    38     1     0     0
SMALL
GAST_HUCK


@<TRIPOS>ATOM
      1 CS         14.1960   -4.3820    1.1750 C.3       1 MTH        -0.0180
      2 S5'        12.5660   -4.2730    0.4290 S.3       1 MTH        -0.1615
      3 C5'        12.5340   -2.5080    0.2870 C.3       1 MTH         0.0224
      4 C4'        12.1040   -1.7240    1.5360 C.3       1 MTH         0.0995
      5 O4'        12.2240   -0.3130    1.2310 O.3       1 MTH        -0.3387
      6 C2'         9.8930   -0.9370    1.1070 C.3       1 MTH         0.1380
      7 O2'         8.7340   -0.3160    1.7140 O.3       1 MTH        -0.3836
      8 C3'        10.6520   -1.9330    1.9740 C.3       1 MTH         0.1132
      9 O3'        10.5890   -1.6670    3.3860 O.3       1 MTH        -0.3864
     10 C1'        10.9230    0.1670    0.7700 C.3       1 MTH         0.1958
     11 N9         10.9960    0.3970   -0.6590 N.pl3     1 MTH        -0.2236
     12 C8         11.9570    0.9910   -1.2840 C.2       1 MTH         0.0302
     13 C7         11.7020    1.2460   -2.4900 C.2       1 MTH        -0.0543
     14 C5         10.7810    0.4730   -2.9710 C.ar      1 MTH         0.0433
     15 C6         10.2600    0.2540   -4.2160 C.ar      1 MTH         0.1162
     16 N6         10.8260    0.7840   -5.3360 N.pl3     1 MTH        -0.3157
     17 N1          9.1710   -0.5720   -4.2260 N.ar      1 MTH        -0.2733
     18 C2          8.6330   -1.0980   -3.0730 C.ar      1 MTH         0.0500
     19 N3          9.1620   -0.8640   -1.8320 N.ar      1 MTH        -0.2771
     20 C4         10.2380   -0.0430   -1.7750 C.ar      1 MTH         0.1399
     21 H1         14.4433   -5.4372    1.3632 H         1 MTH         0.0341
     22 H2         14.2019   -3.8289    2.1258 H         1 MTH         0.0341
     23 H3         14.9413   -3.9468    0.4930 H         1 MTH         0.0341
     24 H4         11.8369   -2.2513   -0.5242 H         1 MTH         0.0402
     25 H5         13.5478   -2.1766    0.0179 H         1 MTH         0.0402
     26 H6         12.7703   -1.9968    2.3676 H         1 MTH         0.0632
     27 H7          9.5652   -1.4461    0.1887 H         1 MTH         0.0676
     28 H8          9.0021    0.1616    2.4902 H         1 MTH         0.2101
     29 H9         10.3052   -2.9579    1.7759 H         1 MTH         0.0647
     30 H10         9.6829   -1.6873    3.6708 H         1 MTH         0.2100
     31 H11        10.6531    1.1024    1.2821 H         1 MTH         0.0991
     32 H12        12.9032    1.2483   -0.8103 H         1 MTH         0.0924
     33 H13        12.1990    2.0272   -3.0633 H         1 MTH         0.0311
     34 H14        10.4093    0.6003   -6.2599 H         1 MTH         0.1826
     35 H15        11.6707    1.3684   -5.2590 H         1 MTH         0.1826
     36 H16         7.7521   -1.7248   -3.1511 H         1 MTH         0.0975
@<TRIPOS>BOND
     1    2    1 1  
     2    3    2 1  
     3    4    3 1  
     4    4    5 1  
     5    8    4 1  
     6    5   10 1  
     7    6    7 1  
     8    6    8 1  
     9    6   10 1  
    10    8    9 1  
    11   10   11 1  
    12   11   12 1  
    13   11   20 1  
    14   12   13 2  
    15   13   14 1  
    16   14   15 ar 
    17   14   20 ar 
    18   15   16 1  
    19   15   17 ar 
    20   17   18 ar 
    21   18   19 ar 
    22   19   20 ar 
    23    1   21 1  
    24    1   22 1  
    25    1   23 1  
    26    3   24 1  
    27    3   25 1  
    28    4   26 1  
    29    6   27 1  
    30    7   28 1  
    31    8   29 1  
    32    9   30 1  
    33   10   31 1  
    34   12   32 1  
    35   13   33 1  
    36   16   34 1  
    37   16   35 1  
    38   18   36 1  
@<TRIPOS>SUBSTRUCTURE
     1 MTH         1

