### 
### Created by X-TOOL on Mon Sep 10 21:12:57 2018
### 

@<TRIPOS>MOLECULE
2qtt_ligand
   32    34     1     0     0
SMALL
GAST_HUCK


@<TRIPOS>ATOM
      1 N1        -19.3800  -18.7120  -26.3330 N.ar      1 FMC        -0.2657
      2 C2        -19.2430  -18.0660  -25.1520 C.ar      1 FMC         0.0517
      3 N3        -20.0690  -18.2420  -24.0900 N.ar      1 FMC        -0.3005
      4 C4        -21.0860  -19.1190  -24.2080 C.ar      1 FMC         0.0829
      5 C5        -21.3080  -19.8700  -25.4580 C.ar      1 FMC         0.1556
      6 C6        -20.3650  -19.6190  -26.5660 C.ar      1 FMC         0.1568
      7 N6        -20.4780  -20.2460  -27.7680 N.pl3     1 FMC        -0.3134
      8 N7        -22.3940  -20.6460  -25.2740 N.pl3     1 FMC        -0.2100
      9 N8        -22.8840  -20.4680  -23.9580 N.2       1 FMC        -0.2021
     10 C9        -22.1580  -19.5490  -23.2670 C.2       1 FMC         0.0849
     11 C1'       -22.3150  -19.0530  -21.8470 C.3       1 FMC         0.1318
     12 C2'       -21.3600  -17.9890  -21.2830 C.3       1 FMC         0.1192
     13 O2'       -20.4020  -18.5340  -20.3570 O.3       1 FMC        -0.3846
     14 C3'       -22.2740  -16.9590  -20.6320 C.3       1 FMC         0.1136
     15 O3'       -22.4730  -17.1990  -19.2310 O.3       1 FMC        -0.3863
     16 C4'       -23.6020  -17.1280  -21.3450 C.3       1 FMC         0.1129
     17 O4'       -23.6330  -18.5020  -21.6960 O.3       1 FMC        -0.3535
     18 C5'       -23.7230  -16.2720  -22.6080 C.3       1 FMC         0.0731
     19 O5'       -23.6660  -14.8660  -22.2770 O.3       1 FMC        -0.3924
     20 H1        -18.4229  -17.3648  -25.0479 H         1 FMC         0.0974
     21 H2        -21.2322  -20.9301  -27.9231 H         1 FMC         0.1813
     22 H3        -19.8093  -20.0366  -28.5230 H         1 FMC         0.1813
     23 H4        -22.8043  -21.2720  -25.9816 H         1 FMC         0.2449
     24 H5        -22.2183  -19.9386  -21.2018 H         1 FMC         0.0782
     25 H6        -20.8049  -17.5196  -22.1085 H         1 FMC         0.0668
     26 H7        -20.8605  -18.9303  -19.6254 H         1 FMC         0.2102
     27 H8        -21.8714  -15.9457  -20.7771 H         1 FMC         0.0648
     28 H9        -21.6355  -17.1687  -18.7836 H         1 FMC         0.2100
     29 H10       -24.4297  -16.8799  -20.6643 H         1 FMC         0.0648
     30 H11       -24.6821  -16.4887  -23.1011 H         1 FMC         0.0584
     31 H12       -22.8961  -16.5164  -23.2910 H         1 FMC         0.0584
     32 H13       -22.8376  -14.6749  -21.8533 H         1 FMC         0.2095
@<TRIPOS>BOND
     1    1    2 ar 
     2    1    6 ar 
     3    2    3 ar 
     4    3    4 ar 
     5    4    5 ar 
     6    4   10 1  
     7    5    6 ar 
     8    5    8 1  
     9    6    7 1  
    10    8    9 1  
    11    9   10 2  
    12   10   11 1  
    13   11   12 1  
    14   11   17 1  
    15   12   13 1  
    16   12   14 1  
    17   14   15 1  
    18   14   16 1  
    19   16   17 1  
    20   16   18 1  
    21   18   19 1  
    22    2   20 1  
    23    7   21 1  
    24    7   22 1  
    25    8   23 1  
    26   11   24 1  
    27   12   25 1  
    28   13   26 1  
    29   14   27 1  
    30   15   28 1  
    31   16   29 1  
    32   18   30 1  
    33   18   31 1  
    34   19   32 1  
@<TRIPOS>SUBSTRUCTURE
     1 FMC         1

