### 
### Created by X-TOOL on Mon Sep 10 21:12:56 2018
### 

@<TRIPOS>MOLECULE
2qtu_ligand
   46    49     1     0     0
SMALL
GAST_HUCK


@<TRIPOS>ATOM
      1 C1         80.6000   42.5230   68.0700 C.ar      1 3AS         0.0636
      2 C2         80.6450   42.5640   69.4510 C.ar      1 3AS        -0.0449
      3 C3         79.7810   41.7960   70.1760 C.ar      1 3AS        -0.0028
      4 C4         78.8430   40.9790   69.5460 C.ar      1 3AS         0.0879
      5 O5         78.0110   40.2480   70.3720 O.3       1 3AS        -0.3185
      6 C6         77.5250   39.0520   69.7450 C.3       1 3AS         0.1092
      7 C8         76.6120   38.2680   70.7200 C.ar      1 3AS        -0.0211
      8 C9         76.6030   38.5840   72.0860 C.ar      1 3AS        -0.0660
      9 C10        75.7930   37.8710   72.9670 C.ar      1 3AS        -0.0397
     10 C11        74.9850   36.8410   72.5040 C.ar      1 3AS         0.0805
     11 O12        74.2130   36.1510   73.3720 O.3       1 3AS        -0.3376
     12 C13        74.9820   36.5220   71.1520 C.ar      1 3AS        -0.0397
     13 C14        75.7910   37.2320   70.2650 C.ar      1 3AS        -0.0660
     14 C15        76.8140   39.3880   68.4170 C.3       1 3AS         0.0135
     15 C17        77.8040   40.0810   67.4280 C.3       1 3AS        -0.0004
     16 C19        78.7970   40.9380   68.1610 C.ar      1 3AS        -0.0244
     17 C20        79.6760   41.7130   67.4260 C.ar      1 3AS        -0.0468
     18 C21        76.9030   40.9690   66.5510 C.3       1 3AS         0.0219
     19 C22        75.5620   41.1300   67.3020 C.3       1 3AS         0.2513
     20 F23        75.3010   42.4760   67.4700 F         1 3AS        -0.2055
     21 F24        74.5270   40.5530   66.5830 F         1 3AS        -0.2055
     22 C25        75.6920   40.4070   68.6630 C.3       1 3AS         0.0198
     23 C26        79.8260   41.8320   71.6730 C.3       1 3AS         0.0757
     24 O27        80.6290   40.7550   72.1170 O.3       1 3AS        -0.3728
     25 C28        80.6160   40.8770   73.5180 C.3       1 3AS         0.0387
     26 O29        81.4450   43.2770   67.3500 O.3       1 3AS        -0.3436
     27 H1         81.3620   43.2021   69.9547 H         1 3AS         0.0399
     28 H2         78.3895   38.4141   69.5092 H         1 3AS         0.0787
     29 H3         77.2292   39.3868   72.4582 H         1 3AS         0.0531
     30 H4         75.7935   38.1221   74.0215 H         1 3AS         0.0525
     31 H5         74.7650   35.7371   74.0251 H         1 3AS         0.2458
     32 H6         74.3504   35.7206   70.7860 H         1 3AS         0.0525
     33 H7         75.7831   36.9777   69.2113 H         1 3AS         0.0531
     34 H8         76.4083   38.4672   67.9727 H         1 3AS         0.0373
     35 H9         78.3358   39.3338   66.8207 H         1 3AS         0.0442
     36 H10        79.6427   41.6873   66.3428 H         1 3AS         0.0398
     37 H11        76.7347   40.4900   65.5752 H         1 3AS         0.0345
     38 H12        77.3725   41.9523   66.4006 H         1 3AS         0.0345
     39 H13        75.9691   41.1134   69.4593 H         1 3AS         0.0329
     40 H14        74.7527   39.9015   68.9317 H         1 3AS         0.0329
     41 H15        78.8087   41.7299   72.0787 H         1 3AS         0.0697
     42 H16        80.2612   42.7845   72.0097 H         1 3AS         0.0697
     43 H17        81.2215   40.0729   73.9617 H         1 3AS         0.0525
     44 H18        79.5812   40.8007   73.8831 H         1 3AS         0.0525
     45 H19        81.0352   41.8526   73.8050 H         1 3AS         0.0525
     46 H20        80.9479   43.8787   66.8086 H         1 3AS         0.2442
@<TRIPOS>BOND
     1    1    2 ar 
     2    1   17 ar 
     3    1   26 1  
     4    2    3 ar 
     5    3    4 ar 
     6    3   23 1  
     7    4    5 1  
     8    4   16 ar 
     9    5    6 1  
    10    6    7 1  
    11    6   14 1  
    12    7    8 ar 
    13    7   13 ar 
    14    8    9 ar 
    15    9   10 ar 
    16   10   11 1  
    17   10   12 ar 
    18   12   13 ar 
    19   14   15 1  
    20   14   22 1  
    21   15   16 1  
    22   15   18 1  
    23   16   17 ar 
    24   18   19 1  
    25   19   20 1  
    26   19   21 1  
    27   19   22 1  
    28   23   24 1  
    29   24   25 1  
    30    2   27 1  
    31    6   28 1  
    32    8   29 1  
    33    9   30 1  
    34   11   31 1  
    35   12   32 1  
    36   13   33 1  
    37   14   34 1  
    38   15   35 1  
    39   17   36 1  
    40   18   37 1  
    41   18   38 1  
    42   22   39 1  
    43   22   40 1  
    44   23   41 1  
    45   23   42 1  
    46   25   43 1  
    47   25   44 1  
    48   25   45 1  
    49   26   46 1  
@<TRIPOS>SUBSTRUCTURE
     1 3AS         1

