### 
### Created by X-TOOL on Mon Sep 10 21:12:58 2018
### 

@<TRIPOS>MOLECULE
2qu2_ligand
   43    45     1     0     0
SMALL
GAST_HUCK


@<TRIPOS>ATOM
      1 C1         18.3370  -11.6980   18.9170 C.ar      1 251        -0.0645
      2 C2         17.0480  -11.0490   19.0270 C.ar      1 251        -0.0560
      3 C3         16.1190  -11.1040   17.9210 C.ar      1 251        -0.0012
      4 C4         16.4850  -11.7870   16.7150 C.ar      1 251        -0.0560
      5 C5         17.7610  -12.4340   16.5950 C.ar      1 251        -0.0645
      6 C6         18.6960  -12.3870   17.6920 C.ar      1 251        -0.0648
      7 C12        14.8110  -10.4690   17.9760 C.2       1 251         0.0662
      8 C13        13.8240  -10.7770   18.8570 C.2       1 251        -0.0658
      9 C14        12.6430   -9.9420   18.5990 C.2       1 251        -0.0658
     10 C15        12.8860   -9.1040   17.5430 C.2       1 251         0.0662
     11 N16        14.2800   -9.3890   17.0880 N.pl3     1 251        -0.2468
     12 C17        11.9070   -8.1160   16.9500 C.ar      1 251        -0.0012
     13 C18        12.2110   -6.6950   16.7440 C.ar      1 251        -0.0560
     14 C19        11.2440   -5.8120   16.1510 C.ar      1 251        -0.0645
     15 C20         9.9560   -6.3260   15.7640 C.ar      1 251        -0.0648
     16 C21         9.6490   -7.7050   15.9640 C.ar      1 251        -0.0645
     17 C22        10.5990   -8.5990   16.5500 C.ar      1 251        -0.0560
     18 C28        14.9770   -8.6830   15.9540 C.3       1 251         0.1414
     19 C29        15.5320   -7.3540   16.5190 C.2       1 251         0.2076
     20 N32        16.1700   -6.5730   15.5980 N.am      1 251        -0.2219
     21 O33        15.3750   -7.0450   17.7310 O.2       1 251        -0.3943
     22 C34        16.7230   -5.3640   15.8330 C.cat     1 251         0.3264
     23 N35        16.6880   -4.7960   17.0640 N.pl3     1 251        -0.2543
     24 N36        17.2880   -4.7770   14.7960 N.pl3     1 251        -0.2543
     25 H1         19.0324  -11.6693   19.7480 H         1 251         0.0609
     26 H2         16.7800  -10.5232   19.9363 H         1 251         0.0598
     27 H3         15.7900  -11.8153   15.8836 H         1 251         0.0598
     28 H4         18.0211  -12.9568   15.6817 H         1 251         0.0609
     29 H5         19.6645  -12.8653   17.6014 H         1 251         0.0592
     30 H6         13.8973  -11.5314   19.6390 H         1 251         0.0360
     31 H7         11.7126   -9.9832   19.1635 H         1 251         0.0360
     32 H8         13.1777   -6.3061   17.0430 H         1 251         0.0598
     33 H9         11.4830   -4.7661   15.9962 H         1 251         0.0609
     34 H10         9.2196   -5.6654   15.3208 H         1 251         0.0592
     35 H11         8.6773   -8.0821   15.6661 H         1 251         0.0609
     36 H12        10.3406   -9.6416   16.6958 H         1 251         0.0598
     37 H13        14.2643   -8.4792   15.1413 H         1 251         0.0857
     38 H14        15.8007   -9.3040   15.5722 H         1 251         0.0857
     39 H15        16.2332   -6.9287   14.6655 H         1 251         0.1857
     40 H16        17.1173   -3.8724   17.2174 H         1 251         0.3199
     41 H17        16.2321   -5.2882   17.8455 H         1 251         0.3199
     42 H18        17.2918   -5.2448   13.8784 H         1 251         0.3199
     43 H19        17.7255   -3.8508   14.9037 H         1 251         0.3199
@<TRIPOS>BOND
     1    1    2 ar 
     2    1    6 ar 
     3    2    3 ar 
     4    3    4 ar 
     5    3    7 1  
     6    4    5 ar 
     7    5    6 ar 
     8    7    8 2  
     9    7   11 1  
    10    8    9 1  
    11    9   10 2  
    12   10   11 1  
    13   10   12 1  
    14   11   18 1  
    15   12   13 ar 
    16   12   17 ar 
    17   13   14 ar 
    18   14   15 ar 
    19   15   16 ar 
    20   16   17 ar 
    21   18   19 1  
    22   19   20 am 
    23   19   21 2  
    24   20   22 ar 
    25   22   23 ar 
    26   22   24 ar 
    27    1   25 1  
    28    2   26 1  
    29    4   27 1  
    30    5   28 1  
    31    6   29 1  
    32    8   30 1  
    33    9   31 1  
    34   13   32 1  
    35   14   33 1  
    36   15   34 1  
    37   16   35 1  
    38   17   36 1  
    39   18   37 1  
    40   18   38 1  
    41   20   39 1  
    42   23   40 1  
    43   23   41 1  
    44   24   42 1  
    45   24   43 1  
@<TRIPOS>SUBSTRUCTURE
     1 251         1

