### 
### Created by X-TOOL on Mon Sep 10 21:12:59 2018
### 

@<TRIPOS>MOLECULE
2qu3_ligand
   52    54     1     0     0
SMALL
GAST_HUCK


@<TRIPOS>ATOM
      1 C1          8.8600   -2.0220   13.9810 C.3       1 462        -0.0628
      2 C2          8.5370   -3.2560   14.7620 C.3       1 462        -0.0279
      3 C3          9.6450   -4.2670   14.7850 C.3       1 462         0.0700
      4 O1          9.1350   -5.4170   15.4240 O.3       1 462        -0.3189
      5 C4          9.9380   -6.3600   15.9930 C.ar      1 462         0.0895
      6 C5          9.5660   -7.7070   16.2220 C.ar      1 462        -0.0348
      7 C6         10.4550   -8.6200   16.8300 C.ar      1 462        -0.0669
      8 C7         11.7580   -8.2410   17.1800 C.ar      1 462        -0.0405
      9 C8         12.1190   -6.8710   16.9410 C.ar      1 462        -0.0669
     10 C9         11.2500   -5.9650   16.3420 C.ar      1 462        -0.0348
     11 C10        12.6740   -9.2070   17.8060 C.2       1 462        -0.0223
     12 C11        12.3170  -10.0170   18.9300 C.2       1 462         0.0024
     13 S1         13.5460  -11.0820   19.4240 S.3       1 462        -0.0457
     14 C12        14.5830  -10.5440   18.2130 C.2       1 462         0.0366
     15 C13        13.9960   -9.5600   17.3730 C.2       1 462        -0.0195
     16 C14        14.7640   -8.9120   16.2320 C.3       1 462         0.0629
     17 C15        15.4510   -7.6670   16.7550 C.2       1 462         0.1864
     18 O2         15.7470   -7.6040   17.9260 O.2       1 462        -0.3947
     19 N1         15.7340   -6.8080   15.7290 N.am      1 462        -0.2228
     20 C16        16.2580   -5.6490   15.8760 C.cat     1 462         0.3265
     21 N2         16.7670   -5.1010   16.9950 N.pl3     1 462        -0.2543
     22 N3         16.4490   -4.8470   14.8020 N.pl3     1 462        -0.2543
     23 C17        15.8980  -11.0980   18.0410 C.ar      1 462        -0.0068
     24 C18        16.9250  -10.7100   18.9880 C.ar      1 462        -0.0599
     25 C19        18.2290  -11.2180   18.8530 C.ar      1 462        -0.0665
     26 C20        18.5600  -12.0590   17.7680 C.ar      1 462        -0.0662
     27 C21        17.5740  -12.4410   16.8330 C.ar      1 462        -0.0528
     28 C22        16.2540  -11.9470   16.9430 C.ar      1 462         0.0415
     29 CL1        15.1300  -12.4800   15.7320 Cl        1 462        -0.0741
     30 H1          8.0025   -1.3337   14.0117 H         1 462         0.0231
     31 H2          9.0743   -2.2944   12.9370 H         1 462         0.0231
     32 H3          9.7407   -1.5303   14.4199 H         1 462         0.0231
     33 H4          7.6483   -3.7260   14.3155 H         1 462         0.0288
     34 H5          8.3147   -2.9619   15.7984 H         1 462         0.0288
     35 H6         10.5056   -3.8729   15.3453 H         1 462         0.0613
     36 H7          9.9563   -4.5109   13.7586 H         1 462         0.0613
     37 H8          8.5795   -8.0438   15.9247 H         1 462         0.0540
     38 H9         10.1236   -9.6326   17.0297 H         1 462         0.0569
     39 H10        13.1045   -6.5311   17.2383 H         1 462         0.0569
     40 H11        11.5800   -4.9520   16.1419 H         1 462         0.0540
     41 H12        11.3479   -9.9568   19.4232 H         1 462         0.0770
     42 H13        14.0680   -8.6395   15.4249 H         1 462         0.0635
     43 H14        15.5163   -9.6153   15.8456 H         1 462         0.0635
     44 H15        15.5166   -7.1058   14.7995 H         1 462         0.1858
     45 H16        17.1607   -4.1496   16.9694 H         1 462         0.3199
     46 H17        16.7628   -5.6331   17.8769 H         1 462         0.3199
     47 H18        16.1100   -5.1392   13.8743 H         1 462         0.3199
     48 H19        16.9333   -3.9447   14.9127 H         1 462         0.3199
     49 H20        16.6880  -10.0299   19.7982 H         1 462         0.0579
     50 H21        18.9851  -10.9624   19.5865 H         1 462         0.0605
     51 H22        19.5779  -12.4135   17.6524 H         1 462         0.0576
     52 H23        17.8305  -13.1173   16.0256 H         1 462         0.0610
@<TRIPOS>BOND
     1    1    2 1  
     2    2    3 1  
     3    3    4 1  
     4    4    5 1  
     5    5    6 ar 
     6    5   10 ar 
     7    6    7 ar 
     8    7    8 ar 
     9    8    9 ar 
    10    8   11 1  
    11    9   10 ar 
    12   11   12 2  
    13   11   15 1  
    14   12   13 1  
    15   13   14 1  
    16   14   15 2  
    17   14   23 1  
    18   15   16 1  
    19   16   17 1  
    20   17   18 2  
    21   17   19 am 
    22   19   20 ar 
    23   20   21 ar 
    24   20   22 ar 
    25   23   24 ar 
    26   23   28 ar 
    27   24   25 ar 
    28   25   26 ar 
    29   26   27 ar 
    30   27   28 ar 
    31   28   29 1  
    32    1   30 1  
    33    1   31 1  
    34    1   32 1  
    35    2   33 1  
    36    2   34 1  
    37    3   35 1  
    38    3   36 1  
    39    6   37 1  
    40    7   38 1  
    41    9   39 1  
    42   10   40 1  
    43   12   41 1  
    44   16   42 1  
    45   16   43 1  
    46   19   44 1  
    47   21   45 1  
    48   21   46 1  
    49   22   47 1  
    50   22   48 1  
    51   24   49 1  
    52   25   50 1  
    53   26   51 1  
    54   27   52 1  
@<TRIPOS>SUBSTRUCTURE
     1 462         1

