### 
### Created by X-TOOL on Mon Sep 10 21:12:56 2018
### 

@<TRIPOS>MOLECULE
2qu5_ligand
   47    50     1     0     0
SMALL
GAST_HUCK


@<TRIPOS>ATOM
      1 C1         67.0220   90.6190   42.4480 C.ar      1 276         0.0027
      2 C2         66.8250   90.0640   41.1750 C.ar      1 276         0.0059
      3 N3         67.8350   89.9260   40.2650 N.ar      1 276        -0.2923
      4 C4         69.0930   90.3430   40.6020 C.ar      1 276         0.1119
      5 C5         69.3660   90.9030   41.8450 C.ar      1 276         0.0186
      6 C6         68.3340   91.0500   42.7830 C.ar      1 276         0.1393
      7 C10        70.2120   90.2100   39.6450 C.2       1 276         0.2205
      8 O11        71.3040   90.7980   39.7750 O.2       1 276        -0.3791
      9 N12        69.9370   89.3780   38.6010 N.am      1 276        -0.2874
     10 C13        70.9310   89.1270   37.5570 C.3       1 276         0.0193
     11 O17        68.7650   91.6190   43.9810 O.3       1 276        -0.2548
     12 C18        67.9410   92.1250   44.9770 C.ar      1 276         0.1038
     13 C19        67.2230   93.3370   44.8210 C.ar      1 276        -0.0114
     14 C20        66.4540   93.8150   45.8690 C.ar      1 276         0.0686
     15 C21        66.3840   93.0840   47.1060 C.ar      1 276         0.0049
     16 C22        67.0790   91.9000   47.2570 C.ar      1 276        -0.0732
     17 C23        67.8620   91.4110   46.1940 C.ar      1 276        -0.0442
     18 N27        65.6710   94.9350   46.0210 N.pl3     1 276        -0.2310
     19 C28        65.1660   94.8930   47.2630 C.2       1 276         0.2302
     20 N29        65.5680   93.8040   47.9380 N.2       1 276        -0.3146
     21 N32        64.2820   95.9030   47.8620 N.pl3     1 276        -0.2226
     22 C33        63.2770   96.6090   47.2720 C.ar      1 276         0.0965
     23 C34        62.8180   97.7120   47.9910 C.ar      1 276        -0.0090
     24 C35        61.7760   98.5450   47.5260 C.ar      1 276         0.0506
     25 C36        61.1880   98.2100   46.2550 C.ar      1 276         0.0628
     26 C37        61.6440   97.0950   45.5090 C.ar      1 276        -0.0256
     27 C38        62.6890   96.2950   46.0200 C.ar      1 276        -0.0081
     28 C43        61.3450   99.7240   48.3940 C.3       1 276         0.3727
     29 CL44       59.8900   99.1210   45.5280 Cl        1 276        -0.0510
     30 F45        60.1520   99.4120   48.8550 F         1 276        -0.2221
     31 F46        61.2950  100.8240   47.6670 F         1 276        -0.2221
     32 F47        62.2040   99.9190   49.4030 F         1 276        -0.2221
     33 H1         66.2027   90.7157   43.1512 H         1 276         0.0675
     34 H2         65.8303   89.7307   40.9018 H         1 276         0.0803
     35 H3         70.3723   91.2246   42.0880 H         1 276         0.0697
     36 H4         69.0432   88.9328   38.5478 H         1 276         0.1844
     37 H5         70.5138   88.4327   36.8128 H         1 276         0.0484
     38 H6         71.8317   88.6842   38.0071 H         1 276         0.0484
     39 H7         71.1947   90.0754   37.0661 H         1 276         0.0484
     40 H8         67.2754   93.8861   43.8878 H         1 276         0.0457
     41 H9         67.0219   91.3500   48.1894 H         1 276         0.0504
     42 H10        68.4074   90.4814   46.3097 H         1 276         0.0467
     43 H11        65.5040   95.6668   45.3156 H         1 276         0.2303
     44 H12        64.4435   96.1035   48.8593 H         1 276         0.2210
     45 H13        63.2793   97.9395   48.9452 H         1 276         0.0747
     46 H14        61.1934   96.8578   44.5521 H         1 276         0.0679
     47 H15        63.0423   95.4400   45.4550 H         1 276         0.0787
@<TRIPOS>BOND
     1    1    2 ar 
     2    1    6 ar 
     3    2    3 ar 
     4    3    4 ar 
     5    4    5 ar 
     6    4    7 1  
     7    5    6 ar 
     8    6   11 1  
     9    7    8 2  
    10    7    9 am 
    11    9   10 1  
    12   11   12 1  
    13   12   13 ar 
    14   12   17 ar 
    15   13   14 ar 
    16   14   15 ar 
    17   14   18 1  
    18   15   16 ar 
    19   15   20 1  
    20   16   17 ar 
    21   18   19 1  
    22   19   20 2  
    23   19   21 1  
    24   21   22 1  
    25   22   23 ar 
    26   22   27 ar 
    27   23   24 ar 
    28   24   25 ar 
    29   24   28 1  
    30   25   26 ar 
    31   25   29 1  
    32   26   27 ar 
    33   28   30 1  
    34   28   31 1  
    35   28   32 1  
    36    1   33 1  
    37    2   34 1  
    38    5   35 1  
    39    9   36 1  
    40   10   37 1  
    41   10   38 1  
    42   10   39 1  
    43   13   40 1  
    44   16   41 1  
    45   17   42 1  
    46   18   43 1  
    47   21   44 1  
    48   23   45 1  
    49   26   46 1  
    50   27   47 1  
@<TRIPOS>SUBSTRUCTURE
     1 276         1

