### 
### Created by X-TOOL on Mon Sep 10 21:12:56 2018
### 

@<TRIPOS>MOLECULE
2qu6_ligand
   63    67     1     0     0
SMALL
GAST_HUCK


@<TRIPOS>ATOM
      1 C21        39.6450   38.4890   10.4420 C.ar      1 857        -0.0656
      2 C24        38.7970   37.4690   10.9550 C.ar      1 857        -0.0480
      3 C25        37.6380   37.8100   11.7690 C.ar      1 857         0.0613
      4 C6         37.2520   39.1400   12.0840 C.ar      1 857        -0.0094
      5 C7         38.0880   40.1830   11.5640 C.ar      1 857         0.0963
      6 C10        39.2510   39.8260   10.7710 C.ar      1 857         0.0557
      7 C11        40.9570   27.6530   13.2560 C.ar      1 857         0.1119
      8 N3         40.9480   27.7800   11.8820 N.ar      1 857        -0.2922
      9 C12        40.1950   28.5270   14.0560 C.ar      1 857         0.0186
     10 C13        39.4410   29.4710   13.3130 C.ar      1 857         0.1391
     11 C8         39.4360   29.5680   11.8620 C.ar      1 857         0.0027
     12 C9         40.2500   28.6630   11.1300 C.ar      1 857         0.0059
     13 C14        38.6950   32.6260   13.5220 C.ar      1 857        -0.0330
     14 C15        37.8610   33.6870   13.0770 C.ar      1 857         0.0210
     15 C16        36.4470   33.4940   12.8460 C.ar      1 857         0.1301
     16 C17        35.7930   32.2230   13.1150 C.ar      1 857        -0.0378
     17 C1         36.5820   31.1190   13.6090 C.ar      1 857        -0.0404
     18 C18        38.0140   31.3540   13.7710 C.ar      1 857         0.1025
     19 C19        36.9340   35.5190   12.5550 C.2       1 857         0.2943
     20 N2         36.7430   36.9140   12.2430 N.pl3     1 857        -0.2187
     21 N4         38.1380   34.9840   12.9020 N.2       1 857        -0.2950
     22 CL         40.2450   41.0850   10.1650 Cl        1 857        -0.0889
     23 O1         38.7070   30.2420   14.1750 O.3       1 857        -0.2549
     24 O4         35.8870   34.6340   12.5110 O.3       1 857        -0.2008
     25 C20        41.6870   26.5810   13.9270 C.2       1 857         0.2205
     26 O2         41.6550   26.4290   15.1430 O.2       1 857        -0.3791
     27 N5         42.4110   25.7570   13.1440 N.am      1 857        -0.2874
     28 C22        43.1400   24.7140   13.8860 C.3       1 857         0.0193
     29 O3         37.7660   41.5070   11.8390 O.3       1 857        -0.3144
     30 C23        36.9760   41.7190   13.0240 C.3       1 857         0.1129
     31 N1         37.5600   43.9470   13.9550 N.4       1 857         0.2371
     32 C2         38.4760   44.8730   13.2250 C.3       1 857        -0.0316
     33 C3         38.0680   44.7030   11.7730 C.3       1 857        -0.0073
     34 C4         36.8280   43.8450   11.7420 C.3       1 857        -0.0023
     35 C5         36.5800   43.1900   13.0970 C.3       1 857         0.0074
     36 C26        37.1500   44.3340   15.3240 C.3       1 857        -0.0427
     37 H1         40.5240   38.2707    9.8464 H         1 857         0.0568
     38 H2         39.0149   36.4294   10.7385 H         1 857         0.0449
     39 H3         36.3749   39.3548   12.6837 H         1 857         0.0456
     40 H4         40.1858   28.4822   15.1390 H         1 857         0.0697
     41 H5         38.8291   30.3089   11.3542 H         1 857         0.0675
     42 H6         40.3081   28.6783   10.0477 H         1 857         0.0803
     43 H7         39.7621   32.7499   13.6671 H         1 857         0.0447
     44 H8         34.7285   32.1061   12.9471 H         1 857         0.0534
     45 H9         36.1328   30.1619   13.8481 H         1 857         0.0477
     46 H10        35.7931   37.2784   12.4035 H         1 857         0.2235
     47 H11        42.4498   25.8457   12.1487 H         1 857         0.1844
     48 H12        43.7030   24.0869   13.1791 H         1 857         0.0484
     49 H13        42.4237   24.0895   14.4400 H         1 857         0.0484
     50 H14        43.8377   25.1867   14.5929 H         1 857         0.0484
     51 H15        37.5650   41.4506   13.9134 H         1 857         0.0671
     52 H16        36.0713   41.0948   12.9813 H         1 857         0.0671
     53 H17        38.2030   43.2035   14.1783 H         1 857         0.2034
     54 H18        39.5271   44.5851   13.3743 H         1 857         0.0814
     55 H19        38.3299   45.9120   13.5554 H         1 857         0.0814
     56 H20        38.8769   44.2126   11.2116 H         1 857         0.0319
     57 H21        37.8549   45.6854   11.3263 H         1 857         0.0319
     58 H22        36.9528   43.0605   10.9811 H         1 857         0.0322
     59 H23        35.9629   44.4730   11.4828 H         1 857         0.0322
     60 H24        35.5412   43.3011   13.4412 H         1 857         0.0878
     61 H25        37.9727   44.8756   15.8138 H         1 857         0.0778
     62 H26        36.9092   43.4308   15.9038 H         1 857         0.0778
     63 H27        36.2636   44.9832   15.2716 H         1 857         0.0778
@<TRIPOS>BOND
     1    1    2 ar 
     2    6    1 ar 
     3    3    2 ar 
     4    4    3 ar 
     5    3   20 1  
     6    5    4 ar 
     7    5    6 ar 
     8   29    5 1  
     9    6   22 1  
    10    7    8 ar 
    11    9    7 ar 
    12    7   25 1  
    13   12    8 ar 
    14   10    9 ar 
    15   10   11 ar 
    16   23   10 1  
    17   11   12 ar 
    18   14   13 ar 
    19   13   18 ar 
    20   15   14 ar 
    21   21   14 1  
    22   15   16 ar 
    23   24   15 1  
    24   16   17 ar 
    25   17   18 ar 
    26   18   23 1  
    27   20   19 1  
    28   19   21 2  
    29   19   24 1  
    30   25   26 2  
    31   25   27 am 
    32   27   28 1  
    33   30   29 1  
    34   35   30 1  
    35   31   32 1  
    36   31   35 1  
    37   31   36 1  
    38   32   33 1  
    39   33   34 1  
    40   34   35 1  
    41    1   37 1  
    42    2   38 1  
    43    4   39 1  
    44    9   40 1  
    45   11   41 1  
    46   12   42 1  
    47   13   43 1  
    48   16   44 1  
    49   17   45 1  
    50   20   46 1  
    51   27   47 1  
    52   28   48 1  
    53   28   49 1  
    54   28   50 1  
    55   30   51 1  
    56   30   52 1  
    57   31   53 1  
    58   32   54 1  
    59   32   55 1  
    60   33   56 1  
    61   33   57 1  
    62   34   58 1  
    63   34   59 1  
    64   35   60 1  
    65   36   61 1  
    66   36   62 1  
    67   36   63 1  
@<TRIPOS>SUBSTRUCTURE
     1 857         1

