### 
### Created by X-TOOL on Mon Sep 10 21:12:57 2018
### 

@<TRIPOS>MOLECULE
2qve_ligand
   24    24     1     0     0
SMALL
GAST_HUCK


@<TRIPOS>ATOM
      1 CAB       -25.2590    9.2650   30.3930 C.ar      1 247        -0.0634
      2 CAD       -25.4720    7.9670   30.8480 C.ar      1 247        -0.0396
      3 CAE       -25.4800    7.7010   32.2120 C.ar      1 247         0.0805
      4 OAK       -25.7420    6.4440   32.6590 O.3       1 247        -0.3376
      5 CAF       -25.2650    8.7320   33.1190 C.ar      1 247        -0.0396
      6 CAC       -25.0520   10.0290   32.6660 C.ar      1 247        -0.0634
      7 CAA       -25.0550   10.2980   31.3010 C.ar      1 247        -0.0012
      8 CAG       -24.9050   11.7420   30.8130 C.3       1 247         0.0745
      9 NAJ       -23.4830   12.1130   30.8180 N.4       1 247         0.2354
     10 CAH       -25.4670   11.8740   29.3950 C.3       1 247         0.3393
     11 CAI       -25.7040   13.3360   29.0150 C.2       1 247         0.1212
     12 OAM       -25.4550   14.2020   29.8800 O.co2     1 247        -0.5420
     13 OAL       -26.1410   13.5580   27.8640 O.co2     1 247        -0.5420
     14 F1        -26.4140   11.3360   29.3390 F         1 247        -0.1935
     15 F2        -24.7620   11.4340   28.6910 F         1 247        -0.1935
     16 H1        -25.2521    9.4709   29.3288 H         1 247         0.0532
     17 H2        -25.6317    7.1634   30.1383 H         1 247         0.0525
     18 H3        -25.7089    6.4334   33.6084 H         1 247         0.2458
     19 H4        -25.2634    8.5241   34.1829 H         1 247         0.0525
     20 H5        -24.8836   10.8305   33.3762 H         1 247         0.0532
     21 H6        -25.4590   12.4127   31.4863 H         1 247         0.1045
     22 H7        -23.1161   12.0250   31.7527 H         1 247         0.2010
     23 H8        -23.3834   13.0664   30.5063 H         1 247         0.2010
     24 H9        -22.9741   11.5020   30.1985 H         1 247         0.2010
@<TRIPOS>BOND
     1    1    2 ar 
     2    1    7 ar 
     3    2    3 ar 
     4    3    4 1  
     5    3    5 ar 
     6    5    6 ar 
     7    6    7 ar 
     8    7    8 1  
     9    8    9 1  
    10    8   10 1  
    11   10   11 1  
    12   10   14 1  
    13   10   15 1  
    14   11   12 ar 
    15   11   13 ar 
    16    1   16 1  
    17    2   17 1  
    18    4   18 1  
    19    5   19 1  
    20    6   20 1  
    21    8   21 1  
    22    9   22 1  
    23    9   23 1  
    24    9   24 1  
@<TRIPOS>SUBSTRUCTURE
     1 247         1

