### 
### Created by X-TOOL on Mon Sep 10 21:12:57 2018
### 

@<TRIPOS>MOLECULE
2qw1_ligand
   27    27     1     0     0
SMALL
GAST_HUCK


@<TRIPOS>ATOM
      1 O6         -4.7020   22.2200  -14.8360 O.3       1 3MG        -0.3924
      2 C6         -6.0340   21.7430  -14.7590 C.3       1 3MG         0.0730
      3 C5         -6.2570   20.7100  -15.8450 C.3       1 3MG         0.1130
      4 O5         -6.2450   19.4170  -15.2250 O.3       1 3MG        -0.3407
      5 C4         -7.5900   20.9910  -16.5400 C.3       1 3MG         0.1121
      6 O4         -7.5290   22.2590  -17.2120 O.3       1 3MG        -0.3865
      7 C3         -7.9170   19.8490  -17.5040 C.3       1 3MG         0.1171
      8 O3         -9.1780   20.0610  -18.1430 O.3       1 3MG        -0.3744
      9 C7         -9.0430   20.2560  -19.5590 C.3       1 3MG         0.0370
     10 C2         -7.8950   18.5150  -16.7590 C.3       1 3MG         0.1342
     11 O2         -8.1790   17.4510  -17.6720 O.3       1 3MG        -0.3841
     12 C1         -6.5170   18.3240  -16.1120 C.3       1 3MG         0.1854
     13 O1         -6.4270   17.1000  -15.3680 O.3       1 3MG        -0.3649
     14 H1         -4.5591   22.8680  -14.1562 H         1 3MG         0.2095
     15 H2         -6.7334   22.5805  -14.8987 H         1 3MG         0.0584
     16 H3         -6.2040   21.2838  -13.7740 H         1 3MG         0.0584
     17 H4         -5.4465   20.7663  -16.5865 H         1 3MG         0.0647
     18 H5         -8.3830   21.0402  -15.7793 H         1 3MG         0.0647
     19 H6         -8.3591   22.4286  -17.6418 H         1 3MG         0.2100
     20 H7         -7.1406   19.8219  -18.2827 H         1 3MG         0.0650
     21 H8        -10.0366   20.4144  -20.0037 H         1 3MG         0.0524
     22 H9         -8.5776   19.3667  -20.0089 H         1 3MG         0.0524
     23 H10        -8.4116   21.1363  -19.7494 H         1 3MG         0.0524
     24 H11        -8.6632   18.5253  -15.9718 H         1 3MG         0.0671
     25 H12        -8.1646   16.6232  -17.2061 H         1 3MG         0.2101
     26 H13        -5.7586   18.3076  -16.9085 H         1 3MG         0.0935
     27 H14        -5.5529   17.0144  -15.0058 H         1 3MG         0.2126
@<TRIPOS>BOND
     1    1    2 1  
     2    2    3 1  
     3    3    4 1  
     4    3    5 1  
     5    4   12 1  
     6    5    6 1  
     7    5    7 1  
     8    7    8 1  
     9    7   10 1  
    10    8    9 1  
    11   10   11 1  
    12   10   12 1  
    13   12   13 1  
    14    1   14 1  
    15    2   15 1  
    16    2   16 1  
    17    3   17 1  
    18    5   18 1  
    19    6   19 1  
    20    7   20 1  
    21    9   21 1  
    22    9   22 1  
    23    9   23 1  
    24   10   24 1  
    25   11   25 1  
    26   12   26 1  
    27   13   27 1  
@<TRIPOS>SUBSTRUCTURE
     1 3MG         1

