### 
### Created by X-TOOL on Mon Sep 10 21:12:46 2018
### 

@<TRIPOS>MOLECULE
2qwd_ligand
   38    38     1     0     0
SMALL
GAST_HUCK


@<TRIPOS>ATOM
      1 C1         23.5470   19.8230   64.7940 C.2       1 4AM         0.0810
      2 O1A        24.2390   20.8000   65.1250 O.co2     1 4AM        -0.5623
      3 O1B        22.3200   19.7880   65.0250 O.co2     1 4AM        -0.5623
      4 C2         24.1870   18.8070   64.0730 C.2       1 4AM         0.1116
      5 C3         23.4970   17.7800   63.4710 C.2       1 4AM        -0.0085
      6 C4         24.1870   16.6940   62.6390 C.3       1 4AM         0.0210
      7 N4         23.6370   15.4220   63.0820 N.4       1 4AM         0.2321
      8 C5         25.7000   16.7500   62.8310 C.3       1 4AM         0.1228
      9 N5         26.3270   16.0380   61.6930 N.am      1 4AM        -0.2741
     10 C10        26.9210   14.8610   61.8820 C.2       1 4AM         0.1735
     11 O10        27.0190   14.3290   62.9950 O.2       1 4AM        -0.3974
     12 C11        27.5300   14.1630   60.6590 C.3       1 4AM         0.0257
     13 C6         26.1490   18.2140   62.8170 C.3       1 4AM         0.1349
     14 O6         25.5780   18.8420   63.9410 O.3       1 4AM        -0.3186
     15 C7         27.6690   18.3560   62.9040 C.3       1 4AM         0.1156
     16 O7         28.1410   17.7310   64.0780 O.3       1 4AM        -0.3861
     17 C8         28.0520   19.8270   62.9040 C.3       1 4AM         0.1068
     18 O8         27.7350   20.2000   61.6320 O.3       1 4AM        -0.3869
     19 C9         29.5230   20.1060   63.1000 C.3       1 4AM         0.0727
     20 O9         30.2940   19.3680   62.2300 O.3       1 4AM        -0.3924
     21 H1         22.4155   17.7372   63.5909 H         1 4AM         0.0510
     22 H2         23.9602   16.8419   61.5729 H         1 4AM         0.0996
     23 H3         22.6389   15.4202   62.9410 H         1 4AM         0.2008
     24 H4         23.8382   15.2916   64.0611 H         1 4AM         0.2008
     25 H5         24.0527   14.6729   62.5509 H         1 4AM         0.2008
     26 H6         25.9838   16.2760   63.7822 H         1 4AM         0.0664
     27 H7         26.3041   16.4430   60.7789 H         1 4AM         0.1859
     28 H8         27.9815   13.2089   60.9684 H         1 4AM         0.0467
     29 H9         28.3032   14.8079   60.2160 H         1 4AM         0.0467
     30 H10        26.7420   13.9717   59.9158 H         1 4AM         0.0467
     31 H11        25.7940   18.6951   61.8937 H         1 4AM         0.0698
     32 H12        28.1255   17.8677   62.0304 H         1 4AM         0.0650
     33 H13        29.0870   17.8070   64.1174 H         1 4AM         0.2100
     34 H14        27.4693   20.3782   63.6568 H         1 4AM         0.0643
     35 H15        28.2553   19.6969   61.0167 H         1 4AM         0.2100
     36 H16        29.8019   19.8482   64.1324 H         1 4AM         0.0584
     37 H17        29.7109   21.1757   62.9256 H         1 4AM         0.0584
     38 H18        30.0609   19.5895   61.3361 H         1 4AM         0.2095
@<TRIPOS>BOND
     1    1    4 1  
     2    1    3 ar 
     3    1    2 ar 
     4    4   14 1  
     5    4    5 2  
     6    5    6 1  
     7    6    8 1  
     8    6    7 1  
     9    8   13 1  
    10    8    9 1  
    11    9   10 am 
    12   10   12 1  
    13   10   11 2  
    14   13   15 1  
    15   13   14 1  
    16   15   17 1  
    17   15   16 1  
    18   17   19 1  
    19   17   18 1  
    20   19   20 1  
    21    5   21 1  
    22    6   22 1  
    23    7   23 1  
    24    7   24 1  
    25    7   25 1  
    26    8   26 1  
    27    9   27 1  
    28   12   28 1  
    29   12   29 1  
    30   12   30 1  
    31   13   31 1  
    32   15   32 1  
    33   16   33 1  
    34   17   34 1  
    35   18   35 1  
    36   19   36 1  
    37   19   37 1  
    38   20   38 1  
@<TRIPOS>SUBSTRUCTURE
     1 4AM         1

