### 
### Created by X-TOOL on Mon Sep 10 21:12:46 2018
### 

@<TRIPOS>MOLECULE
2qwe_ligand
   43    43     1     0     0
SMALL
GAST_HUCK


@<TRIPOS>ATOM
      1 C1         23.5900   19.7430   64.7850 C.2       1 GNA         0.0810
      2 C2         24.3030   18.7620   64.0840 C.2       1 GNA         0.1099
      3 C3         23.6740   17.6240   63.5690 C.2       1 GNA        -0.0168
      4 C4         24.3480   16.6530   62.6020 C.3       1 GNA         0.1182
      5 C5         25.8650   16.7360   62.8420 C.3       1 GNA         0.1162
      6 C6         26.3000   18.2030   62.7870 C.3       1 GNA         0.1332
      7 C7         27.8160   18.3480   62.9150 C.3       1 GNA         0.1155
      8 C8         28.2250   19.8380   63.0090 C.3       1 GNA         0.1068
      9 C9         29.7320   20.1250   63.1090 C.3       1 GNA         0.0727
     10 C10        27.0310   14.7840   61.9000 C.2       1 GNA         0.1735
     11 C11        27.6800   14.2030   60.6390 C.3       1 GNA         0.0257
     12 N5         26.5400   16.0100   61.7400 N.am      1 GNA        -0.2758
     13 N4         23.8240   15.2990   62.7340 N.pl3     1 GNA        -0.2592
     14 C12        23.7700   14.3740   61.7680 C.cat     1 GNA         0.2902
     15 N6         23.8750   14.7120   60.4780 N.pl3     1 GNA        -0.2847
     16 N7         23.6430   13.0920   62.1020 N.pl3     1 GNA        -0.2847
     17 O1A        24.1940   20.7960   65.0460 O.co2     1 GNA        -0.5623
     18 O1B        22.3740   19.6110   65.0730 O.co2     1 GNA        -0.5623
     19 O6         25.6830   18.9100   63.8820 O.3       1 GNA        -0.3188
     20 O7         28.2320   17.6940   64.0550 O.3       1 GNA        -0.3861
     21 O8         27.8180   20.3710   61.8230 O.3       1 GNA        -0.3869
     22 O9         30.4290   19.4520   62.1410 O.3       1 GNA        -0.3924
     23 O10        26.9920   14.1770   62.9710 O.2       1 GNA        -0.3974
     24 H1         22.6488   17.4193   63.8738 H         1 GNA         0.0492
     25 H2         24.1429   16.9864   61.5740 H         1 GNA         0.0872
     26 H3         26.1260   16.2944   63.8151 H         1 GNA         0.0645
     27 H4         25.9745   18.6396   61.8313 H         1 GNA         0.0697
     28 H5         28.2977   17.8968   62.0350 H         1 GNA         0.0650
     29 H6         27.7114   20.3066   63.8614 H         1 GNA         0.0643
     30 H7         30.0932   19.8068   64.0981 H         1 GNA         0.0584
     31 H8         29.9006   21.2051   62.9872 H         1 GNA         0.0584
     32 H9         28.0587   13.1928   60.8538 H         1 GNA         0.0467
     33 H10        28.5138   14.8482   60.3252 H         1 GNA         0.0467
     34 H11        26.9333   14.1509   59.8330 H         1 GNA         0.0467
     35 H12        26.6290   16.4554   60.8491 H         1 GNA         0.1858
     36 H13        23.4606   15.0283   63.6590 H         1 GNA         0.2667
     37 H14        23.8309   13.9848   59.7499 H         1 GNA         0.2615
     38 H15        23.9999   15.6994   60.2129 H         1 GNA         0.2615
     39 H16        23.5616   12.8236   63.0931 H         1 GNA         0.2615
     40 H17        23.6261   12.3682   61.3694 H         1 GNA         0.2615
     41 H18        27.8068   18.0787   64.8124 H         1 GNA         0.2100
     42 H19        28.2574   19.9244   61.1090 H         1 GNA         0.2100
     43 H20        30.1237   19.7261   61.2841 H         1 GNA         0.2095
@<TRIPOS>BOND
     1    1   18 ar 
     2    1   17 ar 
     3    1    2 1  
     4    2   19 1  
     5    2    3 2  
     6    3    4 1  
     7    4   13 1  
     8    4    5 1  
     9    5   12 1  
    10    5    6 1  
    11    6   19 1  
    12    6    7 1  
    13    7   20 1  
    14    7    8 1  
    15    8   21 1  
    16    8    9 1  
    17    9   22 1  
    18   12   10 am 
    19   10   23 2  
    20   10   11 1  
    21   13   14 ar 
    22   14   16 ar 
    23   14   15 ar 
    24    3   24 1  
    25    4   25 1  
    26    5   26 1  
    27    6   27 1  
    28    7   28 1  
    29    8   29 1  
    30    9   30 1  
    31    9   31 1  
    32   11   32 1  
    33   11   33 1  
    34   11   34 1  
    35   12   35 1  
    36   13   36 1  
    37   15   37 1  
    38   15   38 1  
    39   16   39 1  
    40   16   40 1  
    41   20   41 1  
    42   21   42 1  
    43   22   43 1  
@<TRIPOS>SUBSTRUCTURE
     1 GNA         1

