### 
### Created by X-TOOL on Mon Sep 10 21:12:46 2018
### 

@<TRIPOS>MOLECULE
2qwf_ligand
   47    47     1     0     0
SMALL
GAST_HUCK


@<TRIPOS>ATOM
      1 C1         23.6310   19.8290   64.8900 C.2       1 G20         0.0812
      2 O1A        24.2200   20.8930   65.1410 O.co2     1 G20        -0.5623
      3 O1B        22.4040   19.6700   65.1150 O.co2     1 G20        -0.5623
      4 C2         24.4300   18.8790   64.2200 C.2       1 G20         0.1129
      5 C3         23.9670   17.6970   63.9260 C.2       1 G20        -0.0164
      6 C4         24.5920   16.7300   62.8210 C.3       1 G20         0.1203
      7 C5         25.9830   16.8760   62.7860 C.3       1 G20         0.1308
      8 N5         26.5920   16.1770   61.6790 N.am      1 G20        -0.2736
      9 C10        27.0770   14.9490   61.8370 C.2       1 G20         0.1736
     10 O10        27.0570   14.3540   62.9160 O.2       1 G20        -0.3974
     11 C11        27.5700   14.2900   60.5590 C.3       1 G20         0.0257
     12 C6         26.2770   18.3670   62.8270 C.3       1 G20         0.1930
     13 O6         25.7390   18.9350   63.9840 O.3       1 G20        -0.3010
     14 C7         27.7810   18.4030   62.9220 C.2       1 G20         0.2143
     15 O7         28.3290   18.0560   63.9760 O.2       1 G20        -0.3935
     16 N8         28.4790   18.7320   61.8210 N.am      1 G20        -0.2738
     17 C81        27.9820   19.0860   60.4800 C.3       1 G20         0.0226
     18 C9         29.9520   18.6900   62.0060 C.3       1 G20         0.0334
     19 C91        30.4490   17.2880   62.4430 C.3       1 G20        -0.0354
     20 C92        31.9450   17.1210   62.3240 C.3       1 G20        -0.0634
     21 NE         24.2360   15.2910   62.9360 N.pl3     1 G20        -0.2591
     22 CZ         23.8620   14.3350   61.9870 C.cat     1 G20         0.2902
     23 NH1        23.8420   14.6590   60.6990 N.pl3     1 G20        -0.2847
     24 NH2        23.6180   13.0700   62.3570 N.pl3     1 G20        -0.2847
     25 H1         23.0932   17.3447   64.4721 H         1 G20         0.0492
     26 H2         24.1978   17.0708   61.8523 H         1 G20         0.0874
     27 H3         26.3946   16.4294   63.7031 H         1 G20         0.0670
     28 H4         26.6496   16.6208   60.7847 H         1 G20         0.1860
     29 H5         27.9504   13.2837   60.7885 H         1 G20         0.0467
     30 H6         28.3771   14.8961   60.1217 H         1 G20         0.0467
     31 H7         26.7393   14.2132   59.8420 H         1 G20         0.0467
     32 H8         25.9040   18.8840   61.9306 H         1 G20         0.0916
     33 H9         28.8340   19.2989   59.8176 H         1 G20         0.0486
     34 H10        27.3405   19.9768   60.5500 H         1 G20         0.0486
     35 H11        27.4005   18.2466   60.0711 H         1 G20         0.0486
     36 H12        30.2328   19.4216   62.7780 H         1 G20         0.0522
     37 H13        30.4360   18.9565   61.0548 H         1 G20         0.0522
     38 H14        29.9618   16.5318   61.8099 H         1 G20         0.0282
     39 H15        30.1622   17.1274   63.4927 H         1 G20         0.0282
     40 H16        32.2279   16.1088   62.6486 H         1 G20         0.0230
     41 H17        32.4486   17.8640   62.9598 H         1 G20         0.0230
     42 H18        32.2483   17.2685   61.2770 H         1 G20         0.0230
     43 H19        24.2718   14.9291   63.8997 H         1 G20         0.2667
     44 H20        23.5672   13.9583   59.9959 H         1 G20         0.2615
     45 H21        24.1013   15.6110   60.4033 H         1 G20         0.2615
     46 H22        23.6322   12.8133   63.3544 H         1 G20         0.2615
     47 H23        23.4163   12.3546   61.6439 H         1 G20         0.2615
@<TRIPOS>BOND
     1    1    4 1  
     2    1    3 ar 
     3    1    2 ar 
     4    4   13 1  
     5    4    5 2  
     6    5    6 1  
     7    6   21 1  
     8    6    7 1  
     9    7   12 1  
    10    7    8 1  
    11    8    9 am 
    12    9   11 1  
    13    9   10 2  
    14   12   14 1  
    15   12   13 1  
    16   14   16 am 
    17   14   15 2  
    18   16   18 1  
    19   16   17 1  
    20   18   19 1  
    21   19   20 1  
    22   21   22 ar 
    23   22   24 ar 
    24   22   23 ar 
    25    5   25 1  
    26    6   26 1  
    27    7   27 1  
    28    8   28 1  
    29   11   29 1  
    30   11   30 1  
    31   11   31 1  
    32   12   32 1  
    33   17   33 1  
    34   17   34 1  
    35   17   35 1  
    36   18   36 1  
    37   18   37 1  
    38   19   38 1  
    39   19   39 1  
    40   20   40 1  
    41   20   41 1  
    42   20   42 1  
    43   21   43 1  
    44   23   44 1  
    45   23   45 1  
    46   24   46 1  
    47   24   47 1  
@<TRIPOS>SUBSTRUCTURE
     1 G20         1

