### 
### Created by X-TOOL on Mon Sep 10 21:12:46 2018
### 

@<TRIPOS>MOLECULE
2qwg_ligand
   42    42     1     0     0
SMALL
GAST_HUCK


@<TRIPOS>ATOM
      1 C1         23.4500   19.6580   64.7580 C.2       1 G28         0.0812
      2 O1A        24.1630   20.6230   65.0690 O.co2     1 G28        -0.5623
      3 O1B        22.2240   19.6710   64.9850 O.co2     1 G28        -0.5623
      4 C2         24.0880   18.5950   64.0810 C.2       1 G28         0.1146
      5 C3         23.3800   17.5400   63.5650 C.2       1 G28        -0.0082
      6 C4         24.0390   16.4860   62.6690 C.3       1 G28         0.0232
      7 C5         25.5350   16.4960   62.8190 C.3       1 G28         0.1375
      8 N5         26.1550   15.7860   61.6720 N.am      1 G28        -0.2720
      9 C10        26.8950   14.7050   61.8820 C.2       1 G28         0.1737
     10 O10        27.0700   14.2590   63.0090 O.2       1 G28        -0.3974
     11 C11        27.4990   14.0410   60.6580 C.3       1 G28         0.0257
     12 C6         26.0570   17.9380   62.8380 C.3       1 G28         0.1947
     13 O6         25.4940   18.6490   63.8950 O.3       1 G28        -0.3008
     14 C7         27.5590   17.9210   63.0960 C.2       1 G28         0.2146
     15 O7         27.9090   17.5890   64.2260 O.2       1 G28        -0.3935
     16 N8         28.4510   18.2570   62.1550 N.am      1 G28        -0.2712
     17 C81        29.8330   18.1900   62.6340 C.3       1 G28         0.0311
     18 C82        30.3980   16.8090   62.3030 C.3       1 G28        -0.0446
     19 C9         28.0510   18.6840   60.8200 C.3       1 G28         0.0311
     20 C91        28.1350   20.1720   60.7760 C.3       1 G28        -0.0446
     21 N4         23.5780   15.2040   63.0750 N.4       1 G28         0.2323
     22 H1         22.3202   17.4488   63.7984 H         1 G28         0.0510
     23 H2         23.7699   16.6746   61.6192 H         1 G28         0.0997
     24 H3         25.8098   15.9930   63.7579 H         1 G28         0.0689
     25 H4         26.0148   16.1226   60.7409 H         1 G28         0.1861
     26 H5         28.0845   13.1631   60.9685 H         1 G28         0.0467
     27 H6         28.1559   14.7552   60.1400 H         1 G28         0.0467
     28 H7         26.6944   13.7234   59.9785 H         1 G28         0.0467
     29 H8         25.8312   18.4297   61.8803 H         1 G28         0.0917
     30 H9         29.8560   18.3485   63.7223 H         1 G28         0.0519
     31 H10        30.4351   18.9653   62.1377 H         1 G28         0.0519
     32 H11        31.4373   16.7435   62.6573 H         1 G28         0.0249
     33 H12        30.3713   16.6531   61.2144 H         1 G28         0.0249
     34 H13        29.7922   16.0364   62.7990 H         1 G28         0.0249
     35 H14        27.0194   18.3608   60.6166 H         1 G28         0.0519
     36 H15        28.7265   18.2483   60.0691 H         1 G28         0.0519
     37 H16        27.8383   20.5266   59.7779 H         1 G28         0.0249
     38 H17        29.1679   20.4873   60.9850 H         1 G28         0.0249
     39 H18        27.4608   20.5999   61.5325 H         1 G28         0.0249
     40 H19        22.5747   15.1641   62.9861 H         1 G28         0.2008
     41 H20        23.8369   15.0425   64.0357 H         1 G28         0.2008
     42 H21        23.9954   14.4963   62.4910 H         1 G28         0.2008
@<TRIPOS>BOND
     1    1    4 1  
     2    1    3 ar 
     3    1    2 ar 
     4    4   13 1  
     5    4    5 2  
     6    5    6 1  
     7    6   21 1  
     8    6    7 1  
     9    7   12 1  
    10    7    8 1  
    11    8    9 am 
    12    9   11 1  
    13    9   10 2  
    14   12   14 1  
    15   12   13 1  
    16   14   16 am 
    17   14   15 2  
    18   16   19 1  
    19   16   17 1  
    20   17   18 1  
    21   19   20 1  
    22    5   22 1  
    23    6   23 1  
    24    7   24 1  
    25    8   25 1  
    26   11   26 1  
    27   11   27 1  
    28   11   28 1  
    29   12   29 1  
    30   17   30 1  
    31   17   31 1  
    32   18   32 1  
    33   18   33 1  
    34   18   34 1  
    35   19   35 1  
    36   19   36 1  
    37   20   37 1  
    38   20   38 1  
    39   20   39 1  
    40   21   40 1  
    41   21   41 1  
    42   21   42 1  
@<TRIPOS>SUBSTRUCTURE
     1 G28         1

