### 
### Created by X-TOOL on Fri Sep 26 17:34:38 2014
### 

@<TRIPOS>MOLECULE
2qx0_ligand
   23    24     1     0     0
SMALL
GAST_HUCK


@<TRIPOS>ATOM
      1 N1          3.4680    5.5500    6.9560 N.2       1 PH2        -0.3467
      2 C2          3.2800    5.6130    8.2450 C.2       1 PH2         0.0453
      3 C3          3.2070    6.9820    9.0010 C.3       1 PH2         0.0825
      4 N4          3.3630    7.9900    8.1500 N.pl3     1 PH2        -0.2962
      5 N5          3.6980    9.1120    6.0760 N.2       1 PH2        -0.2714
      6 C6          3.8840    9.1520    4.8110 C.2       1 PH2         0.2397
      7 N6          4.0240   10.1260    4.0380 N.pl3     1 PH2        -0.2785
      8 N7          3.9420    7.8170    4.1670 N.am      1 PH2        -0.1843
      9 C8          3.8110    6.6480    4.8390 C.2       1 PH2         0.2015
     10 O8          3.8840    5.5800    4.1380 O.2       1 PH2        -0.4199
     11 C9          3.6130    6.6720    6.1860 C.2       1 PH2         0.0751
     12 C10         3.5570    8.0440    6.8380 C.2       1 PH2         0.0839
     13 C11         3.1340    4.3740    9.0710 C.3       1 PH2         0.0987
     14 O4          3.2230    3.1870    8.4070 O.3       1 PH2        -0.3763
     15 H1          4.0037    7.0207    9.7585 H         1 PH2         0.0761
     16 H2          2.2277    7.0721    9.4938 H         1 PH2         0.0761
     17 H3          3.3260    8.9164    8.5987 H         1 PH2         0.1862
     18 H4          3.9958   11.0863    4.4093 H         1 PH2         0.1909
     19 H5          4.1675    9.9674    3.0304 H         1 PH2         0.1909
     20 H6          4.0863    7.7776    3.1783 H         1 PH2         0.2530
     21 H7          2.1486    4.4113    9.5584 H         1 PH2         0.0797
     22 H8          3.9229    4.3882    9.8374 H         1 PH2         0.0797
     23 H9          3.1168    2.4719    9.0233 H         1 PH2         0.2138
@<TRIPOS>BOND
     1    2    1 2  
     2    1   11 1  
     3    3    2 1  
     4    2   13 1  
     5    4    3 1  
     6   12    4 1  
     7    5    6 2  
     8    5   12 1  
     9    6    7 1  
    10    6    8 am 
    11    8    9 am 
    12    9   10 2  
    13    9   11 1  
    14   11   12 2  
    15   13   14 1  
    16    3   15 1  
    17    3   16 1  
    18    4   17 1  
    19    7   18 1  
    20    7   19 1  
    21    8   20 1  
    22   13   21 1  
    23   13   22 1  
    24   14   23 1  
@<TRIPOS>SUBSTRUCTURE
     1 PH2         1

