### 
### Created by X-TOOL on Mon Sep 10 21:12:58 2018
### 

@<TRIPOS>MOLECULE
2qyk_ligand
   40    43     1     0     0
SMALL
GAST_HUCK


@<TRIPOS>ATOM
      1 C4         94.6300   66.2770   16.2820 C.ar      1 NPV         0.0412
      2 C5         95.4300   67.2380   16.8900 C.ar      1 NPV        -0.0152
      3 C6         96.0440   66.9680   18.1080 C.ar      1 NPV        -0.0088
      4 C7         95.8570   65.7330   18.7210 C.ar      1 NPV         0.0821
      5 C9         94.4480   65.0410   16.8910 C.ar      1 NPV        -0.0152
      6 C10        96.4370   65.4420   19.9490 C.ar      1 NPV         0.1946
      7 C15        98.7060   65.3040   24.3190 C.ar      1 NPV         0.0854
      8 C11        97.1100   66.4150   20.6800 C.ar      1 NPV         0.1159
      9 C12        97.6570   66.0750   21.9120 C.ar      1 NPV         0.1514
     10 C13        98.3410   67.0140   22.6750 C.ar      1 NPV         0.0466
     11 C3         93.9840   66.5500   15.0930 C.2       1 NPV         0.0836
     12 O1         93.3140   65.6330   14.5710 O.co2     1 NPV        -0.5531
     13 O2         94.0930   67.6990   14.6110 O.co2     1 NPV        -0.5531
     14 C8         95.0610   64.7710   18.1090 C.ar      1 NPV        -0.0088
     15 N19        96.3230   64.1960   20.4330 N.ar      1 NPV        -0.1662
     16 C14        98.8720   66.6180   23.8970 C.ar      1 NPV         0.0379
     17 N16        98.0500   64.4320   23.5730 N.ar      1 NPV        -0.1970
     18 C17        97.5240   64.7760   22.3890 C.ar      1 NPV         0.1907
     19 C18        96.8420   63.8410   21.6150 C.ar      1 NPV         0.1799
     20 C20        96.7280   62.5160   22.0200 C.ar      1 NPV         0.0950
     21 C25        96.9400   61.5090   21.0860 C.ar      1 NPV         0.0325
     22 C21        96.4150   62.1880   23.3350 C.ar      1 NPV         0.0032
     23 C22        96.3190   60.8530   23.7100 C.ar      1 NPV        -0.0127
     24 C23        96.5350   59.8470   22.7750 C.ar      1 NPV         0.0106
     25 C24        96.8450   60.1730   21.4600 C.ar      1 NPV         0.1253
     26 N26        97.0600   59.2200   20.5560 N.2       1 NPV        -0.2051
     27 O27        96.9830   58.0530   20.8690 O.2       1 NPV        -0.4867
     28 O28        97.3310   59.5200   19.4160 O.2       1 NPV        -0.4867
     29 H1         95.5755   68.2005   16.4131 H         1 NPV         0.0745
     30 H2         96.6677   67.7189   18.5795 H         1 NPV         0.0845
     31 H3         93.8287   64.2884   16.4166 H         1 NPV         0.0745
     32 H4         99.1193   64.9908   25.2709 H         1 NPV         0.1228
     33 H5         97.2066   67.4236   20.2948 H         1 NPV         0.1917
     34 H6         98.4578   68.0332   22.3247 H         1 NPV         0.1317
     35 H7         94.9180   63.8069   18.5835 H         1 NPV         0.0845
     36 H8         99.4105   67.3272   24.5151 H         1 NPV         0.0989
     37 H9         97.1806   61.7662   20.0608 H         1 NPV         0.0981
     38 H10        96.2464   62.9712   24.0652 H         1 NPV         0.0941
     39 H11        96.0750   60.5955   24.7343 H         1 NPV         0.0755
     40 H12        96.4615   58.8071   23.0720 H         1 NPV         0.1020
@<TRIPOS>BOND
     1    2    1 ar 
     2    5    1 ar 
     3    1   11 1  
     4    3    2 ar 
     5    4    3 ar 
     6    6    4 1  
     7    4   14 ar 
     8   14    5 ar 
     9    8    6 ar 
    10    6   15 ar 
    11   16    7 ar 
    12    7   17 ar 
    13    9    8 ar 
    14   10    9 ar 
    15    9   18 ar 
    16   10   16 ar 
    17   11   12 ar 
    18   11   13 ar 
    19   15   19 ar 
    20   17   18 ar 
    21   18   19 ar 
    22   19   20 1  
    23   20   21 ar 
    24   20   22 ar 
    25   21   25 ar 
    26   22   23 ar 
    27   23   24 ar 
    28   24   25 ar 
    29   25   26 1  
    30   26   27 2  
    31   26   28 2  
    32    2   29 1  
    33    3   30 1  
    34    5   31 1  
    35    7   32 1  
    36    8   33 1  
    37   10   34 1  
    38   14   35 1  
    39   16   36 1  
    40   21   37 1  
    41   22   38 1  
    42   23   39 1  
    43   24   40 1  
@<TRIPOS>SUBSTRUCTURE
     1 NPV         1

