### 
### Created by X-TOOL on Mon Sep 10 21:12:58 2018
### 

@<TRIPOS>MOLECULE
2qyl_ligand
   40    43     1     0     0
SMALL
GAST_HUCK


@<TRIPOS>ATOM
      1 C4         38.7750   31.0060   -5.3300 C.ar      1 NPV         0.0412
      2 C5         39.5680   30.5550   -4.2790 C.ar      1 NPV        -0.0152
      3 C6         39.5690   31.2310   -3.0630 C.ar      1 NPV        -0.0088
      4 C7         38.7730   32.3590   -2.8940 C.ar      1 NPV         0.0821
      5 C9         37.9830   32.1360   -5.1630 C.ar      1 NPV        -0.0152
      6 C10        38.7190   33.0430   -1.6850 C.ar      1 NPV         0.1946
      7 C15        39.3540   35.1490    2.7220 C.ar      1 NPV         0.0854
      8 C11        39.7040   32.8910   -0.7140 C.ar      1 NPV         0.1159
      9 C12        39.6140   33.6360    0.4560 C.ar      1 NPV         0.1514
     10 C13        40.5750   33.5200    1.4530 C.ar      1 NPV         0.0466
     11 C3         38.7530   30.3360   -6.5370 C.2       1 NPV         0.0836
     12 O1         38.0530   30.8140   -7.4570 O.co2     1 NPV        -0.5531
     13 O2         39.4250   29.2880   -6.6440 O.co2     1 NPV        -0.5531
     14 C8         37.9840   32.8100   -3.9470 C.ar      1 NPV        -0.0088
     15 N19        37.7020   33.8940   -1.4820 N.ar      1 NPV        -0.1662
     16 C14        40.4390   34.2890    2.6030 C.ar      1 NPV         0.0379
     17 N16        38.4540   35.2420    1.7580 N.ar      1 NPV        -0.1970
     18 C17        38.5510   34.5150    0.6360 C.ar      1 NPV         0.1907
     19 C18        37.5920   34.6250   -0.3650 C.ar      1 NPV         0.1799
     20 C20        36.5100   35.4900   -0.2410 C.ar      1 NPV         0.0950
     21 C25        35.2330   35.0290   -0.5360 C.ar      1 NPV         0.0325
     22 C21        36.7060   36.8250    0.0980 C.ar      1 NPV         0.0032
     23 C22        35.6240   37.6960    0.1340 C.ar      1 NPV        -0.0127
     24 C23        34.3460   37.2340   -0.1670 C.ar      1 NPV         0.0106
     25 C24        34.1490   35.9010   -0.5040 C.ar      1 NPV         0.1253
     26 N26        32.9320   35.4590   -0.8120 N.2       1 NPV        -0.2051
     27 O27        31.9870   36.2130   -0.7920 O.2       1 NPV        -0.4867
     28 O28        32.7640   34.2980   -1.1070 O.2       1 NPV        -0.4867
     29 H1         40.1868   29.6744   -4.4082 H         1 NPV         0.0745
     30 H2         40.1901   30.8786   -2.2474 H         1 NPV         0.0845
     31 H3         37.3653   32.4913   -5.9799 H         1 NPV         0.0745
     32 H4         39.2441   35.7513    3.6166 H         1 NPV         0.1228
     33 H5         40.5277   32.2032   -0.8674 H         1 NPV         0.1917
     34 H6         41.4139   32.8434    1.3363 H         1 NPV         0.1317
     35 H7         37.3666   33.6917   -3.8188 H         1 NPV         0.0845
     36 H8         41.1718   34.2185    3.3987 H         1 NPV         0.0989
     37 H9         35.0806   33.9867   -0.7919 H         1 NPV         0.0981
     38 H10        37.7010   37.1850    0.3336 H         1 NPV         0.0941
     39 H11        35.7754   38.7367    0.3969 H         1 NPV         0.0755
     40 H12        33.5034   37.9154   -0.1384 H         1 NPV         0.1020
@<TRIPOS>BOND
     1    2    1 ar 
     2    5    1 ar 
     3    1   11 1  
     4    3    2 ar 
     5    4    3 ar 
     6    6    4 1  
     7    4   14 ar 
     8   14    5 ar 
     9    8    6 ar 
    10    6   15 ar 
    11   16    7 ar 
    12    7   17 ar 
    13    9    8 ar 
    14   10    9 ar 
    15    9   18 ar 
    16   10   16 ar 
    17   11   12 ar 
    18   11   13 ar 
    19   15   19 ar 
    20   17   18 ar 
    21   18   19 ar 
    22   19   20 1  
    23   20   21 ar 
    24   20   22 ar 
    25   21   25 ar 
    26   22   23 ar 
    27   23   24 ar 
    28   24   25 ar 
    29   25   26 1  
    30   26   27 2  
    31   26   28 2  
    32    2   29 1  
    33    3   30 1  
    34    5   31 1  
    35    7   32 1  
    36    8   33 1  
    37   10   34 1  
    38   14   35 1  
    39   16   36 1  
    40   21   37 1  
    41   22   38 1  
    42   23   39 1  
    43   24   40 1  
@<TRIPOS>SUBSTRUCTURE
     1 NPV         1

