### 
### Created by X-TOOL on Mon Sep 10 21:12:59 2018
### 

@<TRIPOS>MOLECULE
2qyn_ligand
   40    43     1     0     0
SMALL
GAST_HUCK


@<TRIPOS>ATOM
      1 C4          4.4730   -0.5910   51.8820 C.ar      1 NPV         0.0412
      2 C5          5.5880   -0.2750   52.6530 C.ar      1 NPV        -0.0152
      3 C6          5.7090   -0.7650   53.9500 C.ar      1 NPV        -0.0088
      4 C7          4.7140   -1.5760   54.4870 C.ar      1 NPV         0.0821
      5 C9          3.4770   -1.3980   52.4190 C.ar      1 NPV        -0.0152
      6 C10         4.8040   -2.1070   55.7710 C.ar      1 NPV         0.1946
      7 C15         5.4420   -3.1670   60.5440 C.ar      1 NPV         0.0854
      8 C11         5.5990   -1.5290   56.7550 C.ar      1 NPV         0.1159
      9 C12         5.5790   -2.0630   58.0400 C.ar      1 NPV         0.1514
     10 C13         6.3410   -1.5070   59.0610 C.ar      1 NPV         0.0466
     11 C3          4.3520   -0.1420   50.5810 C.2       1 NPV         0.0836
     12 O1          3.2980   -0.4170   49.9680 O.co2     1 NPV        -0.5531
     13 O2          5.2970    0.5030   50.0780 O.co2     1 NPV        -0.5531
     14 C8          3.5990   -1.8870   53.7150 C.ar      1 NPV        -0.0088
     15 N19         4.0430   -3.1710   56.0680 N.ar      1 NPV        -0.1662
     16 C14         6.2700   -2.0690   60.3310 C.ar      1 NPV         0.0379
     17 N16         4.7290   -3.6760   59.5560 N.ar      1 NPV        -0.1970
     18 C17         4.7730   -3.1610   58.3180 C.ar      1 NPV         0.1907
     19 C18         4.0060   -3.7080   57.2950 C.ar      1 NPV         0.1799
     20 C20         3.2150   -4.8320   57.5090 C.ar      1 NPV         0.0950
     21 C25         3.2940   -5.8980   56.6200 C.ar      1 NPV         0.0325
     22 C21         2.3330   -4.8900   58.5820 C.ar      1 NPV         0.0032
     23 C22         1.5340   -6.0130   58.7640 C.ar      1 NPV        -0.0127
     24 C23         1.6140   -7.0780   57.8750 C.ar      1 NPV         0.0106
     25 C24         2.4940   -7.0210   56.8000 C.ar      1 NPV         0.1253
     26 N26         2.5650   -8.0330   55.9380 N.2       1 NPV        -0.2051
     27 O27         1.8700   -9.0120   56.0930 O.2       1 NPV        -0.4867
     28 O28         3.3230   -7.9760   54.9960 O.2       1 NPV        -0.4867
     29 H1          6.3667    0.3565   52.2408 H         1 NPV         0.0745
     30 H2          6.5808   -0.5142   54.5435 H         1 NPV         0.0845
     31 H3          2.6038   -1.6466   51.8267 H         1 NPV         0.0745
     32 H4          5.3817   -3.6093   61.5318 H         1 NPV         0.1228
     33 H5          6.2252   -0.6748   56.5243 H         1 NPV         0.1917
     34 H6          6.9787   -0.6513   58.8708 H         1 NPV         0.1317
     35 H7          2.8185   -2.5161   54.1275 H         1 NPV         0.0845
     36 H8          6.8533   -1.6563   61.1462 H         1 NPV         0.0989
     37 H9          3.9819   -5.8535   55.7834 H         1 NPV         0.0981
     38 H10         2.2683   -4.0601   59.2763 H         1 NPV         0.0941
     39 H11         0.8470   -6.0580   59.6013 H         1 NPV         0.0755
     40 H12         0.9906   -7.9529   58.0195 H         1 NPV         0.1020
@<TRIPOS>BOND
     1    2    1 ar 
     2    5    1 ar 
     3    1   11 1  
     4    3    2 ar 
     5    4    3 ar 
     6    6    4 1  
     7    4   14 ar 
     8   14    5 ar 
     9    8    6 ar 
    10    6   15 ar 
    11   16    7 ar 
    12    7   17 ar 
    13    9    8 ar 
    14   10    9 ar 
    15    9   18 ar 
    16   10   16 ar 
    17   11   12 ar 
    18   11   13 ar 
    19   15   19 ar 
    20   17   18 ar 
    21   18   19 ar 
    22   19   20 1  
    23   20   21 ar 
    24   20   22 ar 
    25   21   25 ar 
    26   22   23 ar 
    27   23   24 ar 
    28   24   25 ar 
    29   25   26 1  
    30   26   27 2  
    31   26   28 2  
    32    2   29 1  
    33    3   30 1  
    34    5   31 1  
    35    7   32 1  
    36    8   33 1  
    37   10   34 1  
    38   14   35 1  
    39   16   36 1  
    40   21   37 1  
    41   22   38 1  
    42   23   39 1  
    43   24   40 1  
@<TRIPOS>SUBSTRUCTURE
     1 NPV         1

