### 
### Created by X-TOOL on Mon Sep 10 21:12:58 2018
### 

@<TRIPOS>MOLECULE
2qzk_ligand
   72    76     1     0     0
SMALL
GAST_HUCK


@<TRIPOS>ATOM
      1 C3         29.7510   43.6850    1.1870 C.ar      1 I21         0.0458
      2 C4         28.6960   44.3120    0.4230 C.ar      1 I21        -0.0385
      3 C5         27.6180   43.5380   -0.1530 C.ar      1 I21        -0.0114
      4 C6         27.5920   42.1210    0.0890 C.ar      1 I21        -0.0438
      5 C7         28.6420   41.4800    0.7960 C.ar      1 I21        -0.0057
      6 C8         29.7440   42.2170    1.3610 C.ar      1 I21        -0.0367
      7 C9         30.7850   44.5390    1.8170 C.2       1 I21         0.2059
      8 C10        28.5480   39.9780    0.7490 C.3       1 I21         0.1112
      9 O3         29.4990   39.4930    1.6940 O.3       1 I21        -0.2597
     10 N2         31.3190   43.9990    2.9150 N.am      1 I21        -0.2718
     11 C11        32.4190   44.4290    3.7820 C.3       1 I21         0.0769
     12 C12        31.0700   37.8910    2.3880 C.3       1 I21         0.0855
     13 C13        33.6930   43.5710    3.9130 C.3       1 I21        -0.0103
     14 C27        34.2870   43.0310    2.6050 C.3       1 I21        -0.0168
     15 N3         30.7960   38.5670    3.6660 N.4       1 I21         0.2241
     16 C14        32.4800   38.2090    1.7940 C.3       1 I21         0.0334
     17 C15        33.5770   41.9500    1.7850 C.ar      1 I21        -0.0496
     18 C16        33.2870   40.6310    2.3110 C.ar      1 I21        -0.0591
     19 C17        32.7580   39.6520    1.3830 C.ar      1 I21        -0.0452
     20 C18        32.5000   39.9970    0.0010 C.ar      1 I21        -0.0672
     21 C19        32.7800   41.3210   -0.5040 C.ar      1 I21        -0.0752
     22 C20        33.3190   42.2850    0.4120 C.ar      1 I21        -0.0673
     23 C21        31.1600   45.1120    7.3020 C.ar      1 I21        -0.0685
     24 C22        31.5550   44.4190    6.0880 C.ar      1 I21        -0.0581
     25 C23        32.0270   45.2040    4.9390 C.ar      1 I21        -0.0179
     26 C24        32.1190   46.6580    4.9330 C.ar      1 I21        -0.0581
     27 C25        31.7040   47.3340    6.1460 C.ar      1 I21        -0.0685
     28 C26        31.2420   46.5710    7.3050 C.ar      1 I21        -0.0687
     29 C29        30.0570   38.3200    1.3860 C.2       1 I21         0.3115
     30 C30        30.7650   36.3610    2.6280 C.3       1 I21        -0.0085
     31 O1         31.1820   45.6460    1.4290 O.2       1 I21        -0.3844
     32 O2         29.7410   37.6690    0.4250 O.2       1 I21        -0.3055
     33 C31        26.3140   43.8980   -2.3270 C.ar      1 I21        -0.0436
     34 C32        25.1280   44.4080   -3.0450 C.ar      1 I21        -0.0530
     35 C33        24.0730   45.1720   -2.3810 C.ar      1 I21        -0.0510
     36 C34        24.2170   45.4240   -0.9540 C.ar      1 I21        -0.0272
     37 C35        25.3760   44.9090   -0.2230 C.ar      1 I21         0.1013
     38 C36        26.4420   44.1440   -0.8750 C.ar      1 I21         0.0151
     39 C37        25.3100   45.0920    1.1960 C.1       1 I21         0.0983
     40 N1         25.3610   44.9890    2.3500 N.1       1 I21        -0.3309
     41 H1         28.7130   45.3862    0.2785 H         1 I21         0.0634
     42 H2         26.7570   41.5330   -0.2744 H         1 I21         0.0608
     43 H3         30.5406   41.7121    1.8954 H         1 I21         0.0620
     44 H4         28.7907   39.6116   -0.2594 H         1 I21         0.0777
     45 H5         27.5348   39.6500    1.0243 H         1 I21         0.0777
     46 H6         30.8883   43.1421    3.1982 H         1 I21         0.1875
     47 H7         32.8272   45.2335    3.1526 H         1 I21         0.0721
     48 H8         33.4522   42.7091    4.5526 H         1 I21         0.0332
     49 H9         34.4627   44.1865    4.4015 H         1 I21         0.0332
     50 H10        35.2776   42.6259    2.8591 H         1 I21         0.0427
     51 H11        34.4053   43.8976    1.9379 H         1 I21         0.0427
     52 H12        31.4787   38.2812    4.3504 H         1 I21         0.1999
     53 H13        29.8736   38.3176    3.9871 H         1 I21         0.1999
     54 H14        30.8481   39.5652    3.5361 H         1 I21         0.1999
     55 H15        32.6117   37.5801    0.9012 H         1 I21         0.0470
     56 H16        33.2277   37.9315    2.5515 H         1 I21         0.0470
     57 H17        33.4584   40.3875    3.3533 H         1 I21         0.0494
     58 H18        32.0893   39.2484   -0.6668 H         1 I21         0.0499
     59 H19        32.5894   41.5776   -1.5398 H         1 I21         0.0582
     60 H20        33.5361   43.2872    0.0606 H         1 I21         0.0499
     61 H21        30.8169   44.5668    8.1738 H         1 I21         0.0599
     62 H22        31.5023   43.3378    6.0305 H         1 I21         0.0557
     63 H23        32.4782   47.2044    4.0685 H         1 I21         0.0557
     64 H24        31.7364   48.4164    6.1947 H         1 I21         0.0599
     65 H25        30.9494   47.1080    8.2000 H         1 I21         0.0559
     66 H26        30.9530   35.7998    1.7008 H         1 I21         0.0276
     67 H27        29.7125   36.2389    2.9235 H         1 I21         0.0276
     68 H28        31.4170   35.9780    3.4269 H         1 I21         0.0276
     69 H29        27.0824   43.3491   -2.8593 H         1 I21         0.0647
     70 H30        25.0363   44.2078   -4.1064 H         1 I21         0.0686
     71 H31        23.2139   45.5380   -2.9315 H         1 I21         0.0639
     72 H32        23.4608   45.9968   -0.4295 H         1 I21         0.0718
@<TRIPOS>BOND
     1    2    1 ar 
     2    1    6 ar 
     3    1    7 1  
     4    3    2 ar 
     5    3    4 ar 
     6   38    3 1  
     7    4    5 ar 
     8    5    6 ar 
     9    5    8 1  
    10    7   10 am 
    11    7   31 2  
    12    8    9 1  
    13    9   29 1  
    14   10   11 1  
    15   11   13 1  
    16   11   25 1  
    17   12   15 1  
    18   12   16 1  
    19   29   12 1  
    20   12   30 1  
    21   13   14 1  
    22   14   17 1  
    23   16   19 1  
    24   17   18 ar 
    25   17   22 ar 
    26   19   18 ar 
    27   19   20 ar 
    28   20   21 ar 
    29   22   21 ar 
    30   24   23 ar 
    31   23   28 ar 
    32   25   24 ar 
    33   25   26 ar 
    34   26   27 ar 
    35   27   28 ar 
    36   29   32 2  
    37   33   34 ar 
    38   33   38 ar 
    39   34   35 ar 
    40   35   36 ar 
    41   36   37 ar 
    42   37   38 ar 
    43   37   39 1  
    44   39   40 3  
    45    2   41 1  
    46    4   42 1  
    47    6   43 1  
    48    8   44 1  
    49    8   45 1  
    50   10   46 1  
    51   11   47 1  
    52   13   48 1  
    53   13   49 1  
    54   14   50 1  
    55   14   51 1  
    56   15   52 1  
    57   15   53 1  
    58   15   54 1  
    59   16   55 1  
    60   16   56 1  
    61   18   57 1  
    62   20   58 1  
    63   21   59 1  
    64   22   60 1  
    65   23   61 1  
    66   24   62 1  
    67   26   63 1  
    68   27   64 1  
    69   28   65 1  
    70   30   66 1  
    71   30   67 1  
    72   30   68 1  
    73   33   69 1  
    74   34   70 1  
    75   35   71 1  
    76   36   72 1  
@<TRIPOS>SUBSTRUCTURE
     1 I21         1

