### 
### Created by X-TOOL on Mon Sep 10 21:12:58 2018
### 

@<TRIPOS>MOLECULE
2qzl_ligand
   91    93     1     0     0
SMALL
GAST_HUCK


@<TRIPOS>ATOM
      1 O2         26.6530   45.2250    2.4670 O.2       1 IXS        -0.1500
      2 S1         26.1400   44.9570    1.1600 S.o2      1 IXS         0.0593
      3 O1         24.7310   44.7160    1.1860 O.2       1 IXS        -0.1500
      4 C22        26.4340   46.3350    0.2570 C.3       1 IXS         0.0790
      5 N24        26.8700   43.7580    0.5120 N.am      1 IXS        -0.1796
      6 C29        26.2110   43.0260   -0.5700 C.3       1 IXS         0.0445
      7 C19        28.1620   43.3310    0.9110 C.ar      1 IXS         0.0754
      8 C20        29.1470   44.2500    1.3000 C.ar      1 IXS        -0.0214
      9 C15        30.4110   43.8110    1.6960 C.ar      1 IXS         0.0398
     10 C14        31.4740   44.7740    2.1410 C.2       1 IXS         0.2040
     11 O5         31.6230   45.8520    1.5700 O.2       1 IXS        -0.3845
     12 N13        32.2110   44.3900    3.1900 N.am      1 IXS        -0.2728
     13 C12        33.2370   45.2040    3.8300 C.3       1 IXS         0.0705
     14 C50        34.5580   44.4320    3.8770 C.3       1 IXS        -0.0325
     15 C5         32.8090   45.6510    5.1850 C.ar      1 IXS        -0.0221
     16 C6         32.4640   44.7360    6.1820 C.ar      1 IXS        -0.0598
     17 C7         32.0650   45.1850    7.4430 C.ar      1 IXS        -0.0348
     18 C4         32.7520   47.0220    5.4660 C.ar      1 IXS        -0.0598
     19 C3         32.3590   47.4720    6.7280 C.ar      1 IXS        -0.0348
     20 C2         32.0130   46.5520    7.7120 C.ar      1 IXS         0.1248
     21 F1         31.6340   46.9780    8.9320 F         1 IXS        -0.1893
     22 C18        28.4620   41.9590    0.9160 C.ar      1 IXS        -0.0214
     23 C17        29.7250   41.5140    1.3090 C.ar      1 IXS         0.0397
     24 C16        30.6940   42.4420    1.6930 C.ar      1 IXS        -0.0393
     25 C34        30.0580   40.0520    1.3360 C.2       1 IXS         0.2026
     26 O4         29.6430   39.2960    0.4740 O.2       1 IXS        -0.3847
     27 N35        30.8090   39.6210    2.3450 N.am      1 IXS        -0.2761
     28 C36        31.4980   38.3480    2.3120 C.3       1 IXS         0.0906
     29 C56        32.9660   38.4960    2.7200 C.3       1 IXS         0.0089
     30 C58        33.7130   39.5920    1.9740 C.ar      1 IXS        -0.0406
     31 C65        33.4940   39.8480    0.6160 C.ar      1 IXS        -0.0603
     32 C64        34.1970   40.8670   -0.0380 C.ar      1 IXS        -0.0686
     33 C63        35.1280   41.6340    0.6590 C.ar      1 IXS        -0.0687
     34 C62        35.3500   41.3900    2.0140 C.ar      1 IXS        -0.0686
     35 C61        34.6450   40.3650    2.6640 C.ar      1 IXS        -0.0603
     36 C37        30.8160   37.4040    3.2960 C.3       1 IXS        -0.0063
     37 N38        29.4180   37.2110    2.9330 N.4       1 IXS         0.2477
     38 C39        28.9300   35.8400    2.8050 C.3       1 IXS         0.0639
     39 C8         27.4130   35.8410    2.6540 C.3       1 IXS        -0.0039
     40 C1         29.5730   35.1370    1.6370 C.2       1 IXS         0.2243
     41 O3         29.6580   35.7180    0.5620 O.2       1 IXS        -0.3909
     42 N9         30.0330   33.8960    1.8120 N.am      1 IXS        -0.2821
     43 C10        30.5110   33.1110    0.6710 C.3       1 IXS         0.0334
     44 C51        31.2770   31.8400    1.0420 C.3       1 IXS        -0.0265
     45 C52        30.4680   30.9060    1.9350 C.3       1 IXS        -0.0608
     46 C53        31.7490   31.0980   -0.2040 C.3       1 IXS        -0.0608
     47 H1         27.5160   46.5313    0.2294 H         1 IXS         0.0487
     48 H2         25.9176   47.1911    0.7157 H         1 IXS         0.0487
     49 H3         26.0618   46.1883   -0.7676 H         1 IXS         0.0487
     50 H4         26.8651   42.2107   -0.9126 H         1 IXS         0.0517
     51 H5         26.0099   43.7110   -1.4068 H         1 IXS         0.0517
     52 H6         25.2626   42.6059   -0.2040 H         1 IXS         0.0517
     53 H7         28.9246   45.3109    1.2930 H         1 IXS         0.0566
     54 H8         32.0456   43.4768    3.5625 H         1 IXS         0.1874
     55 H9         33.3912   46.1031    3.2154 H         1 IXS         0.0708
     56 H10        35.3276   45.0514    4.3608 H         1 IXS         0.0273
     57 H11        34.8756   44.1861    2.8530 H         1 IXS         0.0273
     58 H12        34.4201   43.5039    4.4510 H         1 IXS         0.0273
     59 H13        32.5061   43.6725    5.9763 H         1 IXS         0.0548
     60 H14        31.7958   44.4706    8.2125 H         1 IXS         0.0587
     61 H15        33.0152   47.7396    4.6974 H         1 IXS         0.0548
     62 H16        32.3237   48.5345    6.9400 H         1 IXS         0.0587
     63 H17        27.7081   41.2415    0.6128 H         1 IXS         0.0566
     64 H18        31.6772   42.0974    1.9923 H         1 IXS         0.0576
     65 H19        30.9014   40.1975    3.1569 H         1 IXS         0.1852
     66 H20        31.4436   37.9316    1.2953 H         1 IXS         0.0632
     67 H21        33.4753   37.5399    2.5290 H         1 IXS         0.0450
     68 H22        33.0040   38.7233    3.7956 H         1 IXS         0.0450
     69 H23        32.7743   39.2526    0.0659 H         1 IXS         0.0557
     70 H24        34.0164   41.0596   -1.0894 H         1 IXS         0.0599
     71 H25        35.6777   42.4175    0.1500 H         1 IXS         0.0559
     72 H26        36.0654   41.9906    2.5640 H         1 IXS         0.0599
     73 H27        34.8276   40.1724    3.7150 H         1 IXS         0.0557
     74 H28        30.8714   37.8334    4.3072 H         1 IXS         0.0839
     75 H29        31.3311   36.4322    3.2816 H         1 IXS         0.0839
     76 H30        29.2724   37.6659    2.0454 H         1 IXS         0.2036
     77 H31        28.8589   37.6643    3.6386 H         1 IXS         0.2036
     78 H32        29.1900   35.2924    3.7229 H         1 IXS         0.1096
     79 H33        27.0534   34.8059    2.5582 H         1 IXS         0.0310
     80 H34        27.1343   36.4106    1.7551 H         1 IXS         0.0310
     81 H35        26.9566   36.3072    3.5396 H         1 IXS         0.0310
     82 H36        30.0515   33.4989    2.7296 H         1 IXS         0.1852
     83 H37        31.1770   33.7491    0.0717 H         1 IXS         0.0522
     84 H38        29.6393   32.8207    0.0662 H         1 IXS         0.0522
     85 H39        32.1686   32.1485    1.6076 H         1 IXS         0.0315
     86 H40        31.0661   30.0129    2.1686 H         1 IXS         0.0233
     87 H41        29.5480   30.6048    1.4126 H         1 IXS         0.0233
     88 H42        30.2062   31.4263    2.8681 H         1 IXS         0.0233
     89 H43        32.3309   31.7818   -0.8395 H         1 IXS         0.0233
     90 H44        30.8767   30.7299   -0.7641 H         1 IXS         0.0233
     91 H45        32.3799   30.2472    0.0928 H         1 IXS         0.0233
@<TRIPOS>BOND
     1    1    2 2  
     2    2    3 2  
     3    2    4 1  
     4    2    5 am 
     5    5    6 1  
     6    5    7 1  
     7    7    8 ar 
     8    7   22 ar 
     9    8    9 ar 
    10    9   10 1  
    11    9   24 ar 
    12   10   11 2  
    13   10   12 am 
    14   12   13 1  
    15   13   14 1  
    16   13   15 1  
    17   15   16 ar 
    18   15   18 ar 
    19   16   17 ar 
    20   17   20 ar 
    21   18   19 ar 
    22   19   20 ar 
    23   20   21 1  
    24   22   23 ar 
    25   23   24 ar 
    26   23   25 1  
    27   25   26 2  
    28   25   27 am 
    29   27   28 1  
    30   28   29 1  
    31   28   36 1  
    32   29   30 1  
    33   30   31 ar 
    34   30   35 ar 
    35   31   32 ar 
    36   32   33 ar 
    37   33   34 ar 
    38   34   35 ar 
    39   36   37 1  
    40   37   38 1  
    41   38   39 1  
    42   38   40 1  
    43   40   41 2  
    44   40   42 am 
    45   42   43 1  
    46   43   44 1  
    47   44   45 1  
    48   44   46 1  
    49    4   47 1  
    50    4   48 1  
    51    4   49 1  
    52    6   50 1  
    53    6   51 1  
    54    6   52 1  
    55    8   53 1  
    56   12   54 1  
    57   13   55 1  
    58   14   56 1  
    59   14   57 1  
    60   14   58 1  
    61   16   59 1  
    62   17   60 1  
    63   18   61 1  
    64   19   62 1  
    65   22   63 1  
    66   24   64 1  
    67   27   65 1  
    68   28   66 1  
    69   29   67 1  
    70   29   68 1  
    71   31   69 1  
    72   32   70 1  
    73   33   71 1  
    74   34   72 1  
    75   35   73 1  
    76   36   74 1  
    77   36   75 1  
    78   37   76 1  
    79   37   77 1  
    80   38   78 1  
    81   39   79 1  
    82   39   80 1  
    83   39   81 1  
    84   42   82 1  
    85   43   83 1  
    86   43   84 1  
    87   44   85 1  
    88   45   86 1  
    89   45   87 1  
    90   45   88 1  
    91   46   89 1  
    92   46   90 1  
    93   46   91 1  
@<TRIPOS>SUBSTRUCTURE
     1 IXS         1

