### 
### Created by X-TOOL on Mon Sep 10 21:12:55 2018
### 

@<TRIPOS>MOLECULE
2qzr_ligand
   43    47     1     0     0
SMALL
GAST_HUCK


@<TRIPOS>ATOM
      1 N1         14.0240   15.8320   25.0270 N.pl3     1 S79        -0.2815
      2 C8         14.9590   16.2410   24.0420 C.2       1 S79         0.2278
      3 N2         14.5980   16.1580   22.7440 N.2       1 S79        -0.3155
      4 C4         15.4700   16.5360   21.7870 C.ar      1 S79        -0.0155
      5 C5         15.1050   16.4690   20.3200 C.ar      1 S79        -0.0658
      6 C6         16.1120   16.9010   19.3840 C.ar      1 S79         0.0053
      7 N3         15.9620   16.9320   18.0610 N.2       1 S79        -0.3134
      8 C9         17.0690   17.3700   17.6010 C.2       1 S79         0.2154
      9 N4         17.3070   17.5300   16.2780 N.pl3     1 S79        -0.2619
     10 C17        16.1170   17.6540   15.4600 C.3       1 S79         0.0698
     11 C18        16.4390   18.4280   14.1890 C.ar      1 S79        -0.0097
     12 C20        16.9120   19.7430   14.2360 C.ar      1 S79        -0.0102
     13 C26        17.1180   20.4040   15.4500 C.ar      1 S79        -0.0547
     14 C25        17.6020   21.7150   15.4750 C.ar      1 S79        -0.0625
     15 C24        17.8680   22.3860   14.2800 C.ar      1 S79        -0.0629
     16 C23        17.6610   21.7290   13.0640 C.ar      1 S79        -0.0569
     17 C21        17.1810   20.4160   13.0380 C.ar      1 S79        -0.0242
     18 C22        16.9820   19.7760   11.8110 C.ar      1 S79        -0.0631
     19 C27        16.5040   18.4610   11.7690 C.ar      1 S79        -0.0706
     20 C19        16.2280   17.7870   12.9610 C.ar      1 S79        -0.0588
     21 N5         18.0200   17.6830   18.4980 N.pl3     1 S79        -0.2324
     22 C1         17.1990   17.3090   19.7000 C.ar      1 S79         0.0726
     23 C2         17.6850   17.4150   21.0560 C.ar      1 S79        -0.0316
     24 C3         16.7340   16.9980   22.1510 C.ar      1 S79         0.0415
     25 C7         17.0740   17.0630   23.5040 C.2       1 S79         0.2266
     26 O1         18.3380   17.5120   23.8790 O.2       1 S79        -0.3893
     27 N6         16.1740   16.6840   24.4310 N.am      1 S79        -0.1809
     28 H1         13.0937   15.4920   24.7443 H         1 S79         0.1896
     29 H2         14.2753   15.8750   26.0250 H         1 S79         0.1896
     30 H3         14.1354   16.1141   19.9899 H         1 S79         0.0415
     31 H4         18.2582   17.5611   15.8840 H         1 S79         0.1932
     32 H5         15.3399   18.1890   16.0256 H         1 S79         0.0704
     33 H6         15.7517   16.6513   15.1935 H         1 S79         0.0704
     34 H7         16.9002   19.8947   16.3818 H         1 S79         0.0628
     35 H8         17.7711   22.2115   16.4237 H         1 S79         0.0601
     36 H9         18.2317   23.4071   14.2952 H         1 S79         0.0616
     37 H10        17.8744   22.2417   12.1330 H         1 S79         0.0609
     38 H11        17.1989   20.3007   10.8876 H         1 S79         0.0542
     39 H12        16.3488   17.9681   10.8161 H         1 S79         0.0595
     40 H13        15.8516   16.7708   12.9361 H         1 S79         0.0530
     41 H14        18.9768   18.0506   18.3969 H         1 S79         0.2294
     42 H15        18.6831   17.7761   21.2762 H         1 S79         0.0566
     43 H16        16.4042   16.7303   25.4030 H         1 S79         0.2499
@<TRIPOS>BOND
     1    1    2 1  
     2    2    3 2  
     3    2   27 am 
     4    3    4 1  
     5    4    5 ar 
     6    4   24 ar 
     7    5    6 ar 
     8    6    7 1  
     9    6   22 ar 
    10    7    8 2  
    11    8    9 1  
    12    8   21 1  
    13    9   10 1  
    14   10   11 1  
    15   11   12 ar 
    16   11   20 ar 
    17   12   13 ar 
    18   12   17 ar 
    19   13   14 ar 
    20   14   15 ar 
    21   15   16 ar 
    22   16   17 ar 
    23   17   18 ar 
    24   18   19 ar 
    25   19   20 ar 
    26   21   22 1  
    27   22   23 ar 
    28   23   24 ar 
    29   24   25 1  
    30   25   26 2  
    31   25   27 am 
    32    1   28 1  
    33    1   29 1  
    34    5   30 1  
    35    9   31 1  
    36   10   32 1  
    37   10   33 1  
    38   13   34 1  
    39   14   35 1  
    40   15   36 1  
    41   16   37 1  
    42   18   38 1  
    43   19   39 1  
    44   20   40 1  
    45   21   41 1  
    46   23   42 1  
    47   27   43 1  
@<TRIPOS>SUBSTRUCTURE
     1 S79         1

