### 
### Created by X-TOOL on Mon Sep 10 21:12:58 2018
### 

@<TRIPOS>MOLECULE
2r0h_ligand
   84    86     1     0     0
SMALL
GAST_HUCK


@<TRIPOS>ATOM
      1 C11        24.7800   -9.3600   -8.0400 C.3       1 CTO         0.1854
      2 C21        24.2290  -10.3140   -6.9940 C.3       1 CTO         0.1210
      3 N21        25.0880  -11.4800   -6.9960 N.am      1 CTO        -0.2766
      4 C71        25.6340  -11.9950   -5.9020 C.2       1 CTO         0.1733
      5 O71        25.7330  -11.3700   -4.8480 O.2       1 CTO        -0.3974
      6 C81        26.1530  -13.3970   -6.1010 C.3       1 CTO         0.0257
      7 C31        22.7790  -10.6760   -7.3260 C.3       1 CTO         0.1111
      8 O31        22.2080  -11.3090   -6.1740 O.3       1 CTO        -0.3867
      9 C41        21.9580   -9.4000   -7.5520 C.3       1 CTO         0.1116
     10 O41        20.6420   -9.7190   -8.0210 O.3       1 CTO        -0.3865
     11 C51        22.6450   -8.4130   -8.4910 C.3       1 CTO         0.1130
     12 O51        23.9800   -8.1800   -8.0320 O.3       1 CTO        -0.3408
     13 C61        21.9140   -7.0820   -8.4560 C.3       1 CTO         0.0730
     14 O61        22.6750   -6.1230   -9.1700 O.3       1 CTO        -0.3924
     15 C12        29.3680   -7.4530   -9.8030 C.3       1 CTO         0.1854
     16 C22        28.5690   -6.4640   -8.9570 C.3       1 CTO         0.1210
     17 N22        29.4470   -5.5450   -8.2130 N.am      1 CTO        -0.2766
     18 C72        29.8160   -4.3230   -8.6360 C.2       1 CTO         0.1733
     19 O72        30.4680   -3.5650   -7.9300 O.2       1 CTO        -0.3974
     20 C82        29.4290   -3.9300  -10.0200 C.3       1 CTO         0.0257
     21 C32        27.6450   -7.2200   -7.9940 C.3       1 CTO         0.1114
     22 O32        26.8080   -6.2460   -7.3670 O.3       1 CTO        -0.3867
     23 C42        26.8330   -8.3040   -8.7110 C.3       1 CTO         0.1181
     24 O42        26.1410   -9.0590   -7.7150 O.3       1 CTO        -0.3404
     25 C52        27.7690   -9.2150   -9.5300 C.3       1 CTO         0.1134
     26 O52        28.5040   -8.3950  -10.4540 O.3       1 CTO        -0.3408
     27 C62        27.0530  -10.3050  -10.3320 C.3       1 CTO         0.0730
     28 O62        26.2090   -9.6450  -11.2800 O.3       1 CTO        -0.3924
     29 C13        33.4810   -7.1160  -12.9740 C.3       1 CTO         0.1823
     30 O13        34.7090   -7.5910  -13.5520 O.3       1 CTO        -0.3651
     31 C23        32.2750   -7.8110  -13.6250 C.3       1 CTO         0.1208
     32 N23        32.2490   -7.4750  -15.0440 N.am      1 CTO        -0.2766
     33 C73        32.1170   -8.3820  -16.0120 C.2       1 CTO         0.1733
     34 O73        31.6600   -8.1220  -17.1160 O.2       1 CTO        -0.3974
     35 C83        32.5850   -9.7530  -15.6740 C.3       1 CTO         0.0257
     36 C33        30.9970   -7.3130  -12.9480 C.3       1 CTO         0.1114
     37 O33        29.8330   -8.0220  -13.4290 O.3       1 CTO        -0.3867
     38 C43        31.0890   -7.4380  -11.4310 C.3       1 CTO         0.1181
     39 O43        30.0300   -6.7000  -10.8170 O.3       1 CTO        -0.3404
     40 C53        32.4060   -6.9230  -10.8600 C.3       1 CTO         0.1133
     41 O53        33.4990   -7.4660  -11.5870 O.3       1 CTO        -0.3409
     42 C63        32.5480   -7.4060   -9.4150 C.3       1 CTO         0.0730
     43 O63        33.1360   -6.3500   -8.6440 O.3       1 CTO        -0.3924
     44 H1         24.7363   -9.8270   -9.0350 H         1 CTO         0.0935
     45 H2         24.2584   -9.8384   -6.0026 H         1 CTO         0.0633
     46 H3         25.2806  -11.9222   -7.8720 H         1 CTO         0.1857
     47 H4         26.5906  -13.7629   -5.1605 H         1 CTO         0.0467
     48 H5         26.9225  -13.3950   -6.8871 H         1 CTO         0.0467
     49 H6         25.3245  -14.0557   -6.4005 H         1 CTO         0.0467
     50 H7         22.7368  -11.3327   -8.2074 H         1 CTO         0.0645
     51 H8         22.7037  -12.0924   -5.9662 H         1 CTO         0.2100
     52 H9         21.8528   -8.9026   -6.5766 H         1 CTO         0.0647
     53 H10        20.1995  -10.2587   -7.3764 H         1 CTO         0.2100
     54 H11        22.6564   -8.8150   -9.5148 H         1 CTO         0.0647
     55 H12        21.7921   -6.7547   -7.4129 H         1 CTO         0.0584
     56 H13        20.9246   -7.1914   -8.9241 H         1 CTO         0.0584
     57 H14        23.5291   -6.0322   -8.7641 H         1 CTO         0.2095
     58 H15        30.0968   -7.9849   -9.1738 H         1 CTO         0.0935
     59 H16        27.9447   -5.8629   -9.6345 H         1 CTO         0.0633
     60 H17        29.7947   -5.8526   -7.3273 H         1 CTO         0.1857
     61 H18        29.7942   -2.9135  -10.2281 H         1 CTO         0.0467
     62 H19        28.3333   -3.9525  -10.1148 H         1 CTO         0.0467
     63 H20        29.8738   -4.6337  -10.7390 H         1 CTO         0.0467
     64 H21        28.2579   -7.7110   -7.2238 H         1 CTO         0.0645
     65 H22        26.3025   -5.7906   -8.0300 H         1 CTO         0.2100
     66 H23        26.1053   -7.8339   -9.3888 H         1 CTO         0.0650
     67 H24        28.4684   -9.7022   -8.8347 H         1 CTO         0.0647
     68 H25        26.4478  -10.9315   -9.6603 H         1 CTO         0.0584
     69 H26        27.7889  -10.9331  -10.8554 H         1 CTO         0.0584
     70 H27        26.7399   -9.1026  -11.8513 H         1 CTO         0.2095
     71 H28        33.4000   -6.0261  -13.0983 H         1 CTO         0.0932
     72 H29        35.4442   -7.1791  -13.1136 H         1 CTO         0.2126
     73 H30        32.3591   -8.9010  -13.5032 H         1 CTO         0.0633
     74 H31        32.3347   -6.5134  -15.3046 H         1 CTO         0.1857
     75 H32        32.4307  -10.4164  -16.5378 H         1 CTO         0.0467
     76 H33        32.0152  -10.1332  -14.8133 H         1 CTO         0.0467
     77 H34        33.6551   -9.7232  -15.4211 H         1 CTO         0.0467
     78 H35        30.8765   -6.2485  -13.1974 H         1 CTO         0.0645
     79 H36        29.9299   -8.9490  -13.2453 H         1 CTO         0.2100
     80 H37        30.9876   -8.5016  -11.1695 H         1 CTO         0.0650
     81 H38        32.4276   -5.8241  -10.9027 H         1 CTO         0.0647
     82 H39        33.1945   -8.2954   -9.3817 H         1 CTO         0.0584
     83 H40        31.5576   -7.6571   -9.0075 H         1 CTO         0.0584
     84 H41        33.2317   -6.6332   -7.7423 H         1 CTO         0.2095
@<TRIPOS>BOND
     1    1    2 1  
     2    1   12 1  
     3   24    1 1  
     4    2    3 1  
     5    2    7 1  
     6    3    4 am 
     7    4    5 2  
     8    4    6 1  
     9    7    8 1  
    10    7    9 1  
    11    9   10 1  
    12   11    9 1  
    13   12   11 1  
    14   11   13 1  
    15   13   14 1  
    16   15   16 1  
    17   15   26 1  
    18   39   15 1  
    19   16   17 1  
    20   16   21 1  
    21   17   18 am 
    22   18   19 2  
    23   18   20 1  
    24   21   22 1  
    25   21   23 1  
    26   23   24 1  
    27   25   23 1  
    28   26   25 1  
    29   25   27 1  
    30   27   28 1  
    31   29   30 1  
    32   31   29 1  
    33   29   41 1  
    34   31   32 1  
    35   36   31 1  
    36   32   33 am 
    37   33   34 2  
    38   33   35 1  
    39   36   37 1  
    40   38   36 1  
    41   38   39 1  
    42   38   40 1  
    43   40   41 1  
    44   40   42 1  
    45   42   43 1  
    46    1   44 1  
    47    2   45 1  
    48    3   46 1  
    49    6   47 1  
    50    6   48 1  
    51    6   49 1  
    52    7   50 1  
    53    8   51 1  
    54    9   52 1  
    55   10   53 1  
    56   11   54 1  
    57   13   55 1  
    58   13   56 1  
    59   14   57 1  
    60   15   58 1  
    61   16   59 1  
    62   17   60 1  
    63   20   61 1  
    64   20   62 1  
    65   20   63 1  
    66   21   64 1  
    67   22   65 1  
    68   23   66 1  
    69   25   67 1  
    70   27   68 1  
    71   27   69 1  
    72   28   70 1  
    73   29   71 1  
    74   30   72 1  
    75   31   73 1  
    76   32   74 1  
    77   35   75 1  
    78   35   76 1  
    79   35   77 1  
    80   36   78 1  
    81   37   79 1  
    82   38   80 1  
    83   40   81 1  
    84   42   82 1  
    85   42   83 1  
    86   43   84 1  
@<TRIPOS>SUBSTRUCTURE
     1 CTO         1

