### 
### Created by X-TOOL on Mon Sep 10 21:12:55 2018
### 

@<TRIPOS>MOLECULE
2r0u_ligand
   54    58     1     0     0
SMALL
GAST_HUCK


@<TRIPOS>ATOM
      1 C          19.8780   -2.0870    9.4050 C.ar      1 M54        -0.0385
      2 C1         19.9870   -3.3720   10.1190 C.ar      1 M54        -0.0629
      3 C2         18.8590   -3.9520   10.8160 C.ar      1 M54        -0.0589
      4 C3         18.6100   -1.3970    9.3630 C.ar      1 M54        -0.0613
      5 C4         17.4550   -1.9640    9.9920 C.ar      1 M54        -0.0217
      6 C5         17.5860   -3.2680   10.7390 C.ar      1 M54        -0.0156
      7 C6         16.4460   -3.8580   11.3820 C.ar      1 M54        -0.0340
      8 C7         15.1960   -3.2330   11.3060 C.ar      1 M54        -0.0580
      9 C8         16.1580   -1.3310    9.9400 C.ar      1 M54         0.0445
     10 C9         14.9890   -1.9590   10.6170 C.ar      1 M54        -0.0279
     11 C10        13.6890   -1.3150   10.5650 C.2       1 M54         0.0125
     12 C11        13.4940   -0.0980    9.9540 C.2       1 M54         0.0809
     13 N          14.6310    0.5080    9.2790 N.am      1 M54        -0.2115
     14 C12        15.8860   -0.0490    9.2160 C.2       1 M54         0.2246
     15 O          16.7780    0.5950    8.5610 O.2       1 M54        -0.3969
     16 C13        21.0740   -1.5050    8.7300 C.2       1 M54         0.0015
     17 C14        22.3460   -2.1160    8.6840 C.2       1 M54         0.0623
     18 N15        23.1200   -1.2290    7.9730 N.pl3     1 M54        -0.2158
     19 N16        22.3530   -0.1360    7.6230 N.2       1 M54        -0.2152
     20 C17        21.0880   -0.2820    8.0510 C.2       1 M54         0.0066
     21 C18        16.7050   -5.1990   12.1100 C.3       1 M54        -0.0111
     22 C19        16.3020   -5.1920   13.5420 C.3       1 M54        -0.0016
     23 C20        16.9060   -4.1800   14.4100 C.3       1 M54        -0.0333
     24 N21        16.3320   -4.4330   15.7530 N.4       1 M54         0.2186
     25 C22        12.4770   -1.9660   11.2320 C.2       1 M54        -0.0442
     26 C23        11.3210   -2.3750   10.3750 C.2       1 M54        -0.0555
     27 C24        10.0630   -3.3100   12.3420 C.3       1 M54         0.0495
     28 C25        11.1930   -2.9280   13.1230 C.2       1 M54         0.0948
     29 C26        10.1100   -3.0050   10.9310 C.2       1 M54        -0.0451
     30 C27        12.4210   -2.2980   12.6300 C.2       1 M54        -0.0399
     31 O28        11.1560   -3.1890   14.2910 O.2       1 M54        -0.4208
     32 H1         20.9360   -3.8958   10.1221 H         1 M54         0.0556
     33 H2         18.9646   -4.8721   11.3794 H         1 M54         0.0623
     34 H3         18.5320   -0.4441    8.8522 H         1 M54         0.0517
     35 H4         14.3458   -3.7128   11.7772 H         1 M54         0.0483
     36 H5         12.5228    0.3942    9.9749 H         1 M54         0.1324
     37 H6         14.4900    1.3903    8.8300 H         1 M54         0.2611
     38 H7         22.6456   -3.0710    9.1132 H         1 M54         0.1046
     39 H8         24.1145   -1.3596    7.7388 H         1 M54         0.2603
     40 H9         20.2546    0.4029    7.9018 H         1 M54         0.0677
     41 H10        17.7806   -5.4223   12.0535 H         1 M54         0.0449
     42 H11        16.1390   -5.9887   11.5943 H         1 M54         0.0449
     43 H12        16.5547   -6.1776   13.9600 H         1 M54         0.0342
     44 H13        15.2121   -5.0475   13.5767 H         1 M54         0.0342
     45 H14        16.6467   -3.1688   14.0632 H         1 M54         0.0815
     46 H15        18.0001   -4.2914   14.4302 H         1 M54         0.0815
     47 H16        16.7069   -3.7664   16.4096 H         1 M54         0.1994
     48 H17        16.5695   -5.3666   16.0495 H         1 M54         0.1994
     49 H18        15.3293   -4.3380   15.7132 H         1 M54         0.1994
     50 H19        11.3762   -2.2009    9.3014 H         1 M54         0.0486
     51 H20         9.1819   -2.8030   12.7623 H         1 M54         0.0718
     52 H21         9.9423   -4.3987   12.4427 H         1 M54         0.0718
     53 H22         9.2629   -3.2372   10.2872 H         1 M54         0.0868
     54 H23        13.2574   -2.0897   13.2956 H         1 M54         0.0312
@<TRIPOS>BOND
     1    1    2 ar 
     2    4    1 ar 
     3    1   16 1  
     4    3    2 ar 
     5    6    3 ar 
     6    5    4 ar 
     7    5    6 ar 
     8    9    5 ar 
     9    7    6 ar 
    10    8    7 ar 
    11    7   21 1  
    12   10    8 ar 
    13   10    9 ar 
    14    9   14 1  
    15   11   10 1  
    16   11   12 2  
    17   25   11 1  
    18   12   13 1  
    19   13   14 am 
    20   14   15 2  
    21   16   17 2  
    22   16   20 1  
    23   17   18 1  
    24   19   18 1  
    25   20   19 2  
    26   21   22 1  
    27   22   23 1  
    28   23   24 1  
    29   26   25 1  
    30   25   30 2  
    31   29   26 2  
    32   27   28 1  
    33   27   29 1  
    34   28   30 1  
    35   28   31 2  
    36    2   32 1  
    37    3   33 1  
    38    4   34 1  
    39    8   35 1  
    40   12   36 1  
    41   13   37 1  
    42   17   38 1  
    43   18   39 1  
    44   20   40 1  
    45   21   41 1  
    46   21   42 1  
    47   22   43 1  
    48   22   44 1  
    49   23   45 1  
    50   23   46 1  
    51   24   47 1  
    52   24   48 1  
    53   24   49 1  
    54   26   50 1  
    55   27   51 1  
    56   27   52 1  
    57   29   53 1  
    58   30   54 1  
@<TRIPOS>SUBSTRUCTURE
     1 M54         1

