### 
### Created by X-TOOL on Mon Sep 10 21:12:55 2018
### 

@<TRIPOS>MOLECULE
2r0y_ligand
   29    28     1     0     0
SMALL
GAST_HUCK


@<TRIPOS>ATOM
      1 OH         26.2960   11.9560    6.4600 O.2       1 ALY        -0.3974
      2 CH         27.4360   11.6540    6.1390 C.2       1 ALY         0.1729
      3 CH3        28.5950   11.6290    7.1160 C.3       1 ALY         0.0256
      4 NZ         27.7610   11.3040    4.8890 N.am      1 ALY        -0.2872
      5 CE         26.7950   11.2740    3.8070 C.3       1 ALY         0.0309
      6 CD         26.5070    9.8290    3.4250 C.3       1 ALY        -0.0325
      7 CG         26.9600    9.5410    2.0000 C.3       1 ALY        -0.0445
      8 CB         25.8630    9.9310    1.0050 C.3       1 ALY         0.0025
      9 CA         24.5220    9.1960    1.1880 C.3       1 ALY         0.0283
     10 N          24.6320    7.7830    0.7160 N.4       1 ALY         0.2327
     11 C          23.3820    9.8840    0.4750 C.2       1 ALY         0.0844
     12 O          23.5538   10.5415   -0.5860 O.co2     1 ALY        -0.5643
     13 O17        22.2211    9.7976    0.9570 O.co2     1 ALY        -0.5643
     14 H1         29.5124   11.3278    6.5890 H         1 ALY         0.0467
     15 H2         28.3812   10.9096    7.9202 H         1 ALY         0.0467
     16 H3         28.7324   12.6314    7.5476 H         1 ALY         0.0467
     17 H4         28.7088   11.0528    4.6926 H         1 ALY         0.1850
     18 H5         27.2023   11.8093    2.9366 H         1 ALY         0.0520
     19 H6         25.8636   11.7597    4.1332 H         1 ALY         0.0520
     20 H7         25.4253    9.6450    3.5027 H         1 ALY         0.0285
     21 H8         27.0431    9.1607    4.1149 H         1 ALY         0.0285
     22 H9         27.1774    8.4675    1.8982 H         1 ALY         0.0269
     23 H10        27.8691   10.1214    1.7838 H         1 ALY         0.0269
     24 H11        26.2320    9.7187   -0.0093 H         1 ALY         0.0339
     25 H12        25.6768   11.0101    1.1091 H         1 ALY         0.0339
     26 H13        24.2901    9.1842    2.2632 H         1 ALY         0.1024
     27 H14        23.7473    7.3167    0.8425 H         1 ALY         0.2010
     28 H15        25.3426    7.3054    1.2479 H         1 ALY         0.2010
     29 H16        24.8802    7.7734   -0.2609 H         1 ALY         0.2010
@<TRIPOS>BOND
     1    1    2 2  
     2    2    3 1  
     3    2    4 am 
     4    4    5 1  
     5    5    6 1  
     6    6    7 1  
     7    7    8 1  
     8    8    9 1  
     9    9   10 1  
    10    9   11 1  
    11   11   12 ar 
    12   11   13 ar 
    13    3   14 1  
    14    3   15 1  
    15    3   16 1  
    16    4   17 1  
    17    5   18 1  
    18    5   19 1  
    19    6   20 1  
    20    6   21 1  
    21    7   22 1  
    22    7   23 1  
    23    8   24 1  
    24    8   25 1  
    25    9   26 1  
    26   10   27 1  
    27   10   28 1  
    28   10   29 1  
@<TRIPOS>SUBSTRUCTURE
     1 ALY         1

