### 
### Created by X-TOOL on Mon Sep 10 21:12:56 2018
### 

@<TRIPOS>MOLECULE
2r0z_ligand
  108   109     1     0     0
SMALL
GAST_HUCK


@<TRIPOS>ATOM
      1 N         -10.9960   12.8400   23.8020 N.4       1 ALA         0.2377
      2 CA        -10.7420   13.5570   25.0880 C.3       1 ALA         0.0621
      3 C          -9.3660   14.2250   25.1060 C.2       1 ALA         0.2264
      4 O          -8.4790   13.8890   24.3080 O.2       1 ALA        -0.3907
      5 CB        -10.8870   12.6050   26.2780 C.3       1 ALA        -0.0040
      6 N          -9.1930   15.1840   26.0120 N.am      1 LYS        -0.2610
      7 CA         -7.8700   15.7560   26.2280 C.3       1 LYS         0.1311
      8 C          -7.2820   15.4290   27.5940 C.2       1 LYS         0.2040
      9 O          -8.0020   15.1460   28.5560 O.2       1 LYS        -0.3944
     10 CB         -7.8250   17.2650   25.9390 C.3       1 LYS        -0.0122
     11 CG         -8.9730   18.0980   26.4740 C.3       1 LYS        -0.0440
     12 CD         -8.8860   19.5120   25.9110 C.3       1 LYS        -0.0124
     13 CE         -8.6670   19.5320   24.3960 C.3       1 LYS        -0.0354
     14 NZ         -8.6320   20.9320   23.8660 N.4       1 LYS         0.2185
     15 N          -5.9540   15.4490   27.6520 N.am      1 PHE        -0.2619
     16 CA         -5.2290   15.1150   28.8660 C.3       1 PHE         0.1404
     17 C          -5.4770   16.1660   29.9460 C.2       1 PHE         0.2060
     18 O          -5.7910   17.3270   29.6520 O.2       1 PHE        -0.3942
     19 CB         -3.7400   15.0000   28.5550 C.3       1 PHE         0.0214
     20 CG         -2.9800   14.1530   29.5200 C.ar      1 PHE        -0.0386
     21 CD1        -3.2840   12.8040   29.6760 C.ar      1 PHE        -0.0601
     22 CD2        -1.9270   14.6940   30.2540 C.ar      1 PHE        -0.0601
     23 CE1        -2.5680   12.0090   30.5670 C.ar      1 PHE        -0.0686
     24 CE2        -1.1970   13.9030   31.1460 C.ar      1 PHE        -0.0686
     25 CZ         -1.5220   12.5580   31.2990 C.ar      1 PHE        -0.0687
     26 N          -5.3270   15.7420   31.1970 N.am      1 ARG        -0.2636
     27 CA         -5.5760   16.5950   32.3410 C.3       1 ARG         0.1311
     28 C          -4.4760   17.6530   32.5470 C.2       1 ARG         0.2040
     29 O          -3.2960   17.3260   32.7090 O.2       1 ARG        -0.3944
     30 CB         -5.7500   15.7180   33.5780 C.3       1 ARG        -0.0092
     31 CG         -6.2920   16.4340   34.7900 C.3       1 ARG        -0.0156
     32 CD         -6.8130   15.4440   35.7870 C.3       1 ARG         0.0627
     33 NE         -7.0220   16.0750   37.0820 N.pl3     1 ARG        -0.2723
     34 CZ         -7.4010   15.4250   38.1830 C.cat     1 ARG         0.2882
     35 NH1        -7.6080   14.1200   38.1410 N.pl3     1 ARG        -0.2849
     36 NH2        -7.5700   16.0810   39.3260 N.pl3     1 ARG        -0.2849
     37 N          -4.8770   18.9200   32.5170 N.am      1 HIS        -0.2625
     38 CA         -4.0020   20.0510   32.8410 C.3       1 HIS         0.1369
     39 C          -4.8550   21.1230   33.4910 C.2       1 HIS         0.2049
     40 O          -5.9790   21.3800   33.0500 O.2       1 HIS        -0.3943
     41 CB         -3.3590   20.6530   31.5920 C.3       1 HIS         0.0145
     42 CG         -2.4990   19.7030   30.8220 C.2       1 HIS        -0.0027
     43 ND1        -1.1810   19.4540   31.1490 N.2       1 HIS        -0.3252
     44 CD2        -2.7640   18.9540   29.7250 C.2       1 HIS         0.0291
     45 CE1        -0.6740   18.5890   30.2910 C.2       1 HIS         0.0907
     46 NE2        -1.6140   18.2700   29.4170 N.pl3     1 HIS        -0.2752
     47 N          -4.3200   21.7610   34.5230 N.am      1 ASP        -0.2678
     48 CA         -5.0600   22.7960   35.2470 C.3       1 ASP         0.1058
     49 C          -5.2040   24.1020   34.4540 C.2       1 ASP         0.0618
     50 O          -4.2170   24.6990   34.0150 O.co2     1 ASP        -0.5665
     51 CB         -4.4300   23.0500   36.6210 C.3       1 ASP         0.0351
     52 CG         -4.8700   22.0360   37.6590 C.2       1 ASP         0.0387
     53 OD1        -5.8060   21.2560   37.3800 O.co2     1 ASP        -0.5688
     54 OD2        -4.2890   22.0270   38.7650 O.co2     1 ASP        -0.5688
     55 OXT        -6.3220   24.5850   34.2340 O.co2     1 ASP        -0.5665
     56 H1        -11.9095   12.4147   23.8292 H         1 ALA         0.2015
     57 H2        -10.2967   12.1259   23.6716 H         1 ALA         0.2015
     58 H3        -10.9533   13.4957   23.0376 H         1 ALA         0.2015
     59 H4        -11.5015   14.3464   25.1880 H         1 ALA         0.1095
     60 H5        -10.6959   13.1538   27.2120 H         1 ALA         0.0310
     61 H6        -10.1622   11.7833   26.1807 H         1 ALA         0.0310
     62 H7        -11.9071   12.1938   26.2965 H         1 ALA         0.0310
     63 H8         -9.9721   15.5129   26.5457 H         1 LYS         0.1884
     64 H9         -7.2098   15.2794   25.4884 H         1 LYS         0.0800
     65 H10        -7.8009   17.3941   24.8469 H         1 LYS         0.0312
     66 H11        -6.8957   17.6599   26.3755 H         1 LYS         0.0312
     67 H12        -8.9161   18.1372   27.5718 H         1 LYS         0.0269
     68 H13        -9.9276   17.6422   26.1723 H         1 LYS         0.0269
     69 H14        -8.0464   20.0325   26.3948 H         1 LYS         0.0317
     70 H15        -9.8242   20.0395   26.1379 H         1 LYS         0.0317
     71 H16        -9.4880   18.9856   23.9087 H         1 LYS         0.0813
     72 H17        -7.7110   19.0387   24.1663 H         1 LYS         0.0813
     73 H18        -8.4868   20.9102   22.8688 H         1 LYS         0.1994
     74 H19        -7.8786   21.4385   24.3042 H         1 LYS         0.1994
     75 H20        -9.5070   21.3898   24.0682 H         1 LYS         0.1994
     76 H21        -5.4375   15.7020   26.8339 H         1 PHE         0.1885
     77 H22        -5.5880   14.1433   29.2359 H         1 PHE         0.0823
     78 H23        -3.3057   16.0106   28.5659 H         1 PHE         0.0474
     79 H24        -3.6294   14.5641   27.5512 H         1 PHE         0.0474
     80 H25        -4.0887   12.3664   29.0963 H         1 PHE         0.0557
     81 H26        -1.6707   15.7402   30.1322 H         1 PHE         0.0557
     82 H27        -2.8261   10.9633   30.6896 H         1 PHE         0.0599
     83 H28        -0.3820   14.3347   31.7156 H         1 PHE         0.0599
     84 H29        -0.9595   11.9392   31.9888 H         1 PHE         0.0559
     85 H30        -5.0314   14.7997   31.3540 H         1 ARG         0.1883
     86 H31        -6.5199   17.1317   32.1649 H         1 ARG         0.0800
     87 H32        -4.7681   15.2971   33.8400 H         1 ARG         0.0313
     88 H33        -6.4428   14.9021   33.3244 H         1 ARG         0.0313
     89 H34        -7.1089   17.1029   34.4815 H         1 ARG         0.0301
     90 H35        -5.4880   17.0258   35.2520 H         1 ARG         0.0301
     91 H36        -6.0853   14.6266   35.8975 H         1 ARG         0.0689
     92 H37        -7.7691   15.0374   35.4256 H         1 ARG         0.0689
     93 H38        -6.8669   17.0908   37.1526 H         1 ARG         0.2642
     94 H39        -7.9007   13.6174   38.9910 H         1 ARG         0.2615
     95 H40        -7.4765   13.6059   37.2582 H         1 ARG         0.2615
     96 H41        -7.4102   17.0978   39.3647 H         1 ARG         0.2615
     97 H42        -7.8608   15.5728   40.1734 H         1 ARG         0.2615
     98 H43        -5.8243   19.1116   32.2602 H         1 HIS         0.1885
     99 H44        -3.2146   19.7186   33.5334 H         1 HIS         0.0817
    100 H45        -2.7374   21.5060   31.9019 H         1 HIS         0.0420
    101 H46        -4.1616   21.0062   30.9279 H         1 HIS         0.0420
    102 H47        -3.7104   18.9038   29.1886 H         1 HIS         0.0729
    103 H48         0.3445   18.2036   30.3009 H         1 HIS         0.1199
    104 H49        -1.5014   17.6136   28.6312 H         1 HIS         0.2361
    105 H50        -3.3912   21.5302   34.8129 H         1 ASP         0.1877
    106 H51        -6.0757   22.4088   35.4157 H         1 ASP         0.0745
    107 H52        -4.7223   24.0539   36.9628 H         1 ASP         0.0471
    108 H53        -3.3356   23.0006   36.5217 H         1 ASP         0.0471
@<TRIPOS>BOND
     1    1    2 1  
     2    2    3 1  
     3    2    5 1  
     4    3    4 2  
     5    3    6 am 
     6    6    7 1  
     7    7    8 1  
     8    7   10 1  
     9    8    9 2  
    10    8   15 am 
    11   10   11 1  
    12   11   12 1  
    13   12   13 1  
    14   13   14 1  
    15   15   16 1  
    16   16   17 1  
    17   16   19 1  
    18   17   18 2  
    19   17   26 am 
    20   19   20 1  
    21   20   21 ar 
    22   20   22 ar 
    23   21   23 ar 
    24   22   24 ar 
    25   23   25 ar 
    26   24   25 ar 
    27   26   27 1  
    28   27   28 1  
    29   27   30 1  
    30   28   29 2  
    31   28   37 am 
    32   30   31 1  
    33   31   32 1  
    34   32   33 1  
    35   33   34 ar 
    36   34   35 ar 
    37   34   36 ar 
    38   37   38 1  
    39   38   39 1  
    40   38   41 1  
    41   39   40 2  
    42   39   47 am 
    43   41   42 1  
    44   42   43 1  
    45   42   44 2  
    46   43   45 2  
    47   44   46 1  
    48   45   46 1  
    49   47   48 1  
    50   48   49 1  
    51   48   51 1  
    52   49   50 ar 
    53   49   55 ar 
    54   51   52 1  
    55   52   53 ar 
    56   52   54 ar 
    57    1   56 1  
    58    1   57 1  
    59    1   58 1  
    60    2   59 1  
    61    5   60 1  
    62    5   61 1  
    63    5   62 1  
    64    6   63 1  
    65    7   64 1  
    66   10   65 1  
    67   10   66 1  
    68   11   67 1  
    69   11   68 1  
    70   12   69 1  
    71   12   70 1  
    72   13   71 1  
    73   13   72 1  
    74   14   73 1  
    75   14   74 1  
    76   14   75 1  
    77   15   76 1  
    78   16   77 1  
    79   19   78 1  
    80   19   79 1  
    81   21   80 1  
    82   22   81 1  
    83   23   82 1  
    84   24   83 1  
    85   25   84 1  
    86   26   85 1  
    87   27   86 1  
    88   30   87 1  
    89   30   88 1  
    90   31   89 1  
    91   31   90 1  
    92   32   91 1  
    93   32   92 1  
    94   33   93 1  
    95   35   94 1  
    96   35   95 1  
    97   36   96 1  
    98   36   97 1  
    99   37   98 1  
   100   38   99 1  
   101   41  100 1  
   102   41  101 1  
   103   44  102 1  
   104   45  103 1  
   105   46  104 1  
   106   47  105 1  
   107   48  106 1  
   108   51  107 1  
   109   51  108 1  
@<TRIPOS>SUBSTRUCTURE
     1 ALA         1

