### 
### Created by X-TOOL on Tue Oct 16 15:17:24 2018
### 

@<TRIPOS>MOLECULE
2r1y_ligand
   64    65     1     0     0
SMALL
GAST_HUCK


@<TRIPOS>ATOM
      1 C1         31.9460   -0.7020    0.3070 C.2       1 KDO         0.1041
      2 O1A        31.7980    0.5390    0.3810 O.co2     1 KDO        -0.5426
      3 O1B        32.9890   -1.3070   -0.0320 O.co2     1 KDO        -0.5426
      4 C2         30.6940   -1.5530    0.5950 C.3       1 KDO         0.2207
      5 C3         29.7720   -1.3750   -0.6290 C.3       1 KDO         0.0356
      6 C4         28.5930   -2.3400   -0.5460 C.3       1 KDO         0.0880
      7 O4         27.8430   -2.2760   -1.7870 O.3       1 KDO        -0.3891
      8 C5         29.0710   -3.7740   -0.2970 C.3       1 KDO         0.1096
      9 O5         29.9000   -4.1850   -1.3900 O.3       1 KDO        -0.3866
     10 C6         29.9330   -3.7940    0.9700 C.3       1 KDO         0.1170
     11 O6         31.0760   -2.9430    0.7920 O.3       1 KDO        -0.3381
     12 C7         30.4880   -5.1760    1.3340 C.3       1 KDO         0.1067
     13 O7         29.3970   -6.0600    1.4880 O.3       1 KDO        -0.3869
     14 C8         31.2860   -5.1370    2.6460 C.3       1 KDO         0.0727
     15 O8         30.4120   -4.8610    3.7470 O.3       1 KDO        -0.3924
     16 C11        34.5380   -4.1020    3.5750 C.2       1 KDO        -0.1153
     17 C10        34.4710   -2.8800    4.2650 C.2       1 KDO        -0.0637
     18 C9         33.5560   -2.6680    5.3170 C.3       1 KDO         0.0795
     19 O2         32.1390   -3.0570    5.2190 O.3       1 KDO        -0.3322
     20 C2         31.0660   -2.0460    5.3590 C.3       1 KDO         0.1984
     21 C1         30.1860   -2.4990    6.5280 C.3       1 KDO         0.0984
     22 O1A        28.9560   -2.5140    6.4380 O.3       1 KDO        -0.3897
     23 C3         30.1770   -1.9700    4.0900 C.3       1 KDO         0.0327
     24 O6         31.5280   -0.6920    5.7320 O.3       1 KDO        -0.3377
     25 C6         32.1290    0.1240    4.6860 C.3       1 KDO         0.1181
     26 C7         32.6780    1.4470    5.2730 C.3       1 KDO         0.1069
     27 O7         33.3190    2.2310    4.2490 O.3       1 KDO        -0.3869
     28 C8         33.6790    1.1860    6.4070 C.3       1 KDO         0.0727
     29 O8         32.9800    0.6150    7.5220 O.3       1 KDO        -0.3924
     30 C5         31.1110    0.2610    3.5400 C.3       1 KDO         0.1101
     31 O5         29.8710    0.8390    3.9650 O.3       1 KDO        -0.3866
     32 C4         30.8330   -1.1280    2.9820 C.3       1 KDO         0.0942
     33 O4         29.9980   -1.0470    1.7510 O.3       1 KDO        -0.3406
     34 H1         30.3434   -1.5778   -1.5468 H         1 KDO         0.0336
     35 H2         29.3949   -0.3420   -0.6526 H         1 KDO         0.0336
     36 H3         27.9408   -2.0358    0.2859 H         1 KDO         0.0621
     37 H4         27.1069   -2.8749   -1.7421 H         1 KDO         0.2099
     38 H5         28.2100   -4.4502   -0.1898 H         1 KDO         0.0646
     39 H6         30.6486   -3.6036   -1.4543 H         1 KDO         0.2100
     40 H7         29.3209   -3.4254    1.8063 H         1 KDO         0.0649
     41 H8         31.1431   -5.5293    0.5241 H         1 KDO         0.0643
     42 H9         28.8286   -5.7423    2.1797 H         1 KDO         0.2100
     43 H10        32.0512   -4.3493    2.5829 H         1 KDO         0.0584
     44 H11        31.7737   -6.1102    2.8041 H         1 KDO         0.0584
     45 H12        29.7514   -5.5414    3.8038 H         1 KDO         0.2095
     46 H13        35.2565   -4.2325    2.7672 H         1 KDO         0.0290
     47 H14        33.8714   -4.9187    3.8480 H         1 KDO         0.0290
     48 H15        35.1448   -2.0736    3.9794 H         1 KDO         0.0695
     49 H16        33.5635   -1.5862    5.5161 H         1 KDO         0.0742
     50 H17        33.9611   -3.2040    6.1880 H         1 KDO         0.0742
     51 H18        30.4277   -1.8381    7.3734 H         1 KDO         0.0611
     52 H19        30.4927   -3.5279    6.7675 H         1 KDO         0.0611
     53 H20        28.5835   -2.8216    7.2560 H         1 KDO         0.2096
     54 H21        29.2118   -1.5155    4.3582 H         1 KDO         0.0344
     55 H22        30.0098   -2.9890    3.7109 H         1 KDO         0.0344
     56 H23        32.9948   -0.4216    4.2826 H         1 KDO         0.0650
     57 H24        31.8318    2.0209    5.6786 H         1 KDO         0.0643
     58 H25        32.6896    2.4348    3.5673 H         1 KDO         0.2100
     59 H26        34.1477    2.1335    6.7111 H         1 KDO         0.0584
     60 H27        34.4551    0.4875    6.0609 H         1 KDO         0.0584
     61 H28        32.5754   -0.2023    7.2558 H         1 KDO         0.2095
     62 H29        31.5455    0.8956    2.7536 H         1 KDO         0.0646
     63 H30        29.2810    0.9009    3.2230 H         1 KDO         0.2100
     64 H31        31.7898   -1.5977    2.7103 H         1 KDO         0.0624
@<TRIPOS>BOND
     1    1    2 ar 
     2    1    3 ar 
     3    4    1 1  
     4    4    5 1  
     5    4   11 1  
     6   33    4 1  
     7    5    6 1  
     8    6    7 1  
     9    6    8 1  
    10    8    9 1  
    11   10    8 1  
    12   11   10 1  
    13   10   12 1  
    14   12   13 1  
    15   12   14 1  
    16   14   15 1  
    17   17   16 2  
    18   18   17 1  
    19   19   18 1  
    20   20   19 1  
    21   20   21 1  
    22   23   20 1  
    23   20   24 1  
    24   21   22 1  
    25   32   23 1  
    26   25   24 1  
    27   25   26 1  
    28   30   25 1  
    29   26   27 1  
    30   26   28 1  
    31   28   29 1  
    32   30   31 1  
    33   32   30 1  
    34   32   33 1  
    35    5   34 1  
    36    5   35 1  
    37    6   36 1  
    38    7   37 1  
    39    8   38 1  
    40    9   39 1  
    41   10   40 1  
    42   12   41 1  
    43   13   42 1  
    44   14   43 1  
    45   14   44 1  
    46   15   45 1  
    47   16   46 1  
    48   16   47 1  
    49   17   48 1  
    50   18   49 1  
    51   18   50 1  
    52   21   51 1  
    53   21   52 1  
    54   22   53 1  
    55   23   54 1  
    56   23   55 1  
    57   25   56 1  
    58   26   57 1  
    59   27   58 1  
    60   28   59 1  
    61   28   60 1  
    62   29   61 1  
    63   30   62 1  
    64   31   63 1  
    65   32   64 1  
@<TRIPOS>SUBSTRUCTURE
     1 KDO         1

