### 
### Created by X-TOOL on Fri Sep 26 17:34:42 2014
### 

@<TRIPOS>MOLECULE
2r2b_ligand
   88    90     1     0     0
SMALL
GAST_HUCK


@<TRIPOS>ATOM
      1 C1        -12.7430   -2.1760   73.6210 C.2       1 KDA         0.1089
      2 O1A       -13.5900   -1.3470   73.1820 O.co2     1 KDA        -0.5423
      3 O1B       -12.9780   -3.0170   74.5110 O.co2     1 KDA        -0.5423
      4 C2        -11.3210   -2.1500   73.0410 C.3       1 KDA         0.2378
      5 C3        -11.1470   -0.8760   72.1500 C.3       1 KDA         0.0401
      6 C4         -9.8480   -0.0840   72.4120 C.3       1 KDA         0.0940
      7 C5         -9.5710    0.0640   73.9180 C.3       1 KDA         0.1098
      8 O5        -10.6990    0.6140   74.6220 O.3       1 KDA        -0.3866
      9 C6         -9.2790   -1.3740   74.3970 C.3       1 KDA         0.1173
     10 O6        -10.5040   -2.1590   74.2570 O.3       1 KDA        -0.3347
     11 C7         -8.6670   -1.4470   75.8110 C.3       1 KDA         0.1067
     12 O7         -7.3650   -0.8590   75.8290 O.3       1 KDA        -0.3869
     13 C8         -8.5220   -2.9000   76.3050 C.3       1 KDA         0.0727
     14 O8         -7.8160   -3.7100   75.3430 O.3       1 KDA        -0.3924
     15 O2        -11.0010   -3.3550   72.2780 O.3       1 KDA        -0.3023
     16 C9        -10.9710   -4.6580   72.7230 C.2       1 KDA         0.0369
     17 C10       -11.5920   -5.7840   72.1610 C.2       1 KDA        -0.0824
     18 C11       -11.4480   -7.0310   72.7590 C.3       1 KDA        -0.0537
     19 C1         -8.7210    2.7160   71.6140 C.2       1 KDA         0.1041
     20 O1A        -7.6810    3.1570   72.1820 O.co2     1 KDA        -0.5426
     21 O1B        -9.8240    3.3050   71.5950 O.co2     1 KDA        -0.5426
     22 C2         -8.6580    1.3600   70.8710 C.3       1 KDA         0.2207
     23 O2         -9.8630    0.5620   71.1180 O.3       1 KDA        -0.3407
     24 C3         -8.4950    1.6730   69.3530 C.3       1 KDA         0.0358
     25 C4         -7.8490    0.5220   68.5430 C.3       1 KDA         0.0937
     26 C5         -6.5760   -0.0610   69.1620 C.3       1 KDA         0.1098
     27 O5         -5.5150    0.9180   69.1230 O.3       1 KDA        -0.3866
     28 C6         -6.9300   -0.5060   70.5980 C.3       1 KDA         0.1170
     29 O6         -7.4580    0.6500   71.3440 O.3       1 KDA        -0.3381
     30 C7         -5.7350   -1.1960   71.2770 C.3       1 KDA         0.1067
     31 O7         -5.4310   -2.4370   70.6310 O.3       1 KDA        -0.3869
     32 C8         -6.0110   -1.4790   72.7630 C.3       1 KDA         0.0727
     33 O8         -4.8940   -2.1720   73.3460 O.3       1 KDA        -0.3924
     34 C1         -9.6190    0.7250   65.9370 C.2       1 KDA         0.1041
     35 O1A       -10.6670    1.3080   65.5500 O.co2     1 KDA        -0.5426
     36 O1B        -9.5050   -0.4930   66.0910 O.co2     1 KDA        -0.5426
     37 C2         -8.3410    1.5570   66.1670 C.3       1 KDA         0.2207
     38 O2         -7.5270    1.1110   67.2760 O.3       1 KDA        -0.3407
     39 C3         -7.4740    1.4980   64.8850 C.3       1 KDA         0.0356
     40 C4         -6.3030    2.4880   65.0120 C.3       1 KDA         0.0880
     41 O4         -5.6020    2.4800   63.7640 O.3       1 KDA        -0.3891
     42 C5         -6.7990    3.9100   65.3100 C.3       1 KDA         0.1096
     43 O5         -7.6390    4.3800   64.2390 O.3       1 KDA        -0.3866
     44 C6         -7.6530    3.8980   66.6050 C.3       1 KDA         0.1170
     45 O6         -8.7390    2.9320   66.4590 O.3       1 KDA        -0.3381
     46 C7         -8.1930    5.2880   66.9910 C.3       1 KDA         0.1067
     47 O7         -7.0900    6.1580   67.1750 O.3       1 KDA        -0.3869
     48 C8         -8.9610    5.2330   68.3200 C.3       1 KDA         0.0727
     49 O8         -8.0530    4.9110   69.3990 O.3       1 KDA        -0.3924
     50 H1        -12.0004   -0.2074   72.3361 H         1 KDA         0.0340
     51 H2        -11.1508   -1.1907   71.0960 H         1 KDA         0.0340
     52 H3         -9.0254   -0.7899   72.2251 H         1 KDA         0.0623
     53 H4         -8.6962    0.7103   74.0824 H         1 KDA         0.0646
     54 H5        -11.4490    0.0413   74.5126 H         1 KDA         0.2100
     55 H6         -8.5318   -1.8027   73.7130 H         1 KDA         0.0649
     56 H7         -9.3236   -0.8975   76.5016 H         1 KDA         0.0643
     57 H8         -6.7996   -1.3256   75.2248 H         1 KDA         0.2100
     58 H9         -9.5233   -3.3257   76.4664 H         1 KDA         0.0584
     59 H10        -7.9652   -2.9026   77.2536 H         1 KDA         0.0584
     60 H11        -7.7413   -4.5979   75.6724 H         1 KDA         0.2095
     61 H12       -10.3909   -4.8376   73.6270 H         1 KDA         0.0849
     62 H13       -12.1876   -5.6810   71.2551 H         1 KDA         0.0331
     63 H14       -12.0028   -7.7825   72.1780 H         1 KDA         0.0321
     64 H15       -11.8448   -6.9940   73.7843 H         1 KDA         0.0321
     65 H16       -10.3826   -7.3031   72.7877 H         1 KDA         0.0321
     66 H17        -7.8629    2.5672   69.2492 H         1 KDA         0.0336
     67 H18        -9.4906    1.8769   68.9321 H         1 KDA         0.0336
     68 H19        -8.5796   -0.2905   68.4167 H         1 KDA         0.0623
     69 H20        -6.2567   -0.9411   68.5846 H         1 KDA         0.0646
     70 H21        -5.3420    1.1601   68.2208 H         1 KDA         0.2100
     71 H22        -7.7364   -1.2513   70.5328 H         1 KDA         0.0649
     72 H23        -4.8628   -0.5302   71.1999 H         1 KDA         0.0643
     73 H24        -4.6915   -2.8459   71.0651 H         1 KDA         0.2100
     74 H25        -6.9137   -2.1010   72.8541 H         1 KDA         0.0584
     75 H26        -6.1663   -0.5275   73.2926 H         1 KDA         0.0584
     76 H27        -4.7599   -2.9944   72.8898 H         1 KDA         0.2095
     77 H28        -8.0890    1.7673   64.0137 H         1 KDA         0.0336
     78 H29        -7.0803    0.4791   64.7551 H         1 KDA         0.0336
     79 H30        -5.6326    2.1632   65.8214 H         1 KDA         0.0621
     80 H31        -6.1918    2.7477   63.0690 H         1 KDA         0.2099
     81 H32        -5.9370    4.5822   65.4325 H         1 KDA         0.0646
     82 H33        -7.1430    4.3871   63.4288 H         1 KDA         0.2100
     83 H34        -7.0053    3.5601   67.4274 H         1 KDA         0.0649
     84 H35        -8.8510    5.6648   66.1941 H         1 KDA         0.0643
     85 H36        -6.5337    5.8202   67.8670 H         1 KDA         0.2100
     86 H37        -9.7426    4.4614   68.2582 H         1 KDA         0.0584
     87 H38        -9.4257    6.2110   68.5137 H         1 KDA         0.0584
     88 H39        -7.3783    5.5776   69.4532 H         1 KDA         0.2095
@<TRIPOS>BOND
     1    1    2 ar 
     2    1    3 ar 
     3    4    1 1  
     4    5    4 1  
     5    4   10 1  
     6    4   15 1  
     7    6    5 1  
     8    6    7 1  
     9   23    6 1  
    10    7    8 1  
    11    7    9 1  
    12    9   10 1  
    13    9   11 1  
    14   11   12 1  
    15   11   13 1  
    16   13   14 1  
    17   15   16 1  
    18   16   17 2  
    19   17   18 1  
    20   19   20 ar 
    21   19   21 ar 
    22   22   19 1  
    23   22   23 1  
    24   24   22 1  
    25   22   29 1  
    26   25   24 1  
    27   25   26 1  
    28   38   25 1  
    29   26   27 1  
    30   26   28 1  
    31   28   29 1  
    32   28   30 1  
    33   30   31 1  
    34   30   32 1  
    35   32   33 1  
    36   34   35 ar 
    37   34   36 ar 
    38   37   34 1  
    39   37   38 1  
    40   37   39 1  
    41   37   45 1  
    42   39   40 1  
    43   40   41 1  
    44   40   42 1  
    45   42   43 1  
    46   42   44 1  
    47   44   45 1  
    48   44   46 1  
    49   46   47 1  
    50   46   48 1  
    51   48   49 1  
    52    5   50 1  
    53    5   51 1  
    54    6   52 1  
    55    7   53 1  
    56    8   54 1  
    57    9   55 1  
    58   11   56 1  
    59   12   57 1  
    60   13   58 1  
    61   13   59 1  
    62   14   60 1  
    63   16   61 1  
    64   17   62 1  
    65   18   63 1  
    66   18   64 1  
    67   18   65 1  
    68   24   66 1  
    69   24   67 1  
    70   25   68 1  
    71   26   69 1  
    72   27   70 1  
    73   28   71 1  
    74   30   72 1  
    75   31   73 1  
    76   32   74 1  
    77   32   75 1  
    78   33   76 1  
    79   39   77 1  
    80   39   78 1  
    81   40   79 1  
    82   41   80 1  
    83   42   81 1  
    84   43   82 1  
    85   44   83 1  
    86   46   84 1  
    87   47   85 1  
    88   48   86 1  
    89   48   87 1  
    90   49   88 1  
@<TRIPOS>SUBSTRUCTURE
     1 KDA         1

