### 
### Created by X-TOOL on Mon Sep 10 21:12:57 2018
### 

@<TRIPOS>MOLECULE
2r2l_ligand
   73    77     1     0     0
SMALL
GAST_HUCK


@<TRIPOS>ATOM
      1 C1        186.6640  131.8000   36.2340 C.ar      1 PB9        -0.0449
      2 C2        187.7640  131.0960   35.6810 C.ar      1 PB9        -0.0376
      3 C3        187.5940  130.0470   34.7140 C.ar      1 PB9         0.0560
      4 C4        186.2700  129.6830   34.3650 C.ar      1 PB9        -0.0105
      5 C5        185.1680  130.4420   34.8790 C.ar      1 PB9        -0.0369
      6 C6        185.3690  131.4820   35.8230 C.ar      1 PB9         0.0746
      7 N10       188.6980  129.3870   34.1280 N.pl3     1 PB9        -0.2909
      8 C11       188.5300  128.2550   33.1950 C.3       1 PB9         0.0514
      9 C12       187.1690  128.1630   32.5140 C.3       1 PB9         0.0687
     10 C13       185.9990  128.4760   33.4770 C.3       1 PB9         0.0015
     11 C18       184.2420  132.1770   36.3980 C.1       1 PB9         0.0844
     12 N19       183.3530  132.7170   36.9020 N.1       1 PB9        -0.3394
     13 N20       187.0000  126.8920   31.6960 N.am      1 PB9        -0.2255
     14 S22       187.2470  125.1880   32.2830 S.o2      1 PB9         0.0865
     15 C23       188.9270  125.0580   32.8180 C.ar      1 PB9         0.1822
     16 O24       187.1010  124.3280   31.1440 O.2       1 PB9        -0.1482
     17 O25       186.3640  125.0400   33.4030 O.2       1 PB9        -0.1482
     18 N26       189.1920  124.7230   34.1060 N.ar      1 PB9        -0.2696
     19 C27       190.4790  124.7730   34.5510 C.ar      1 PB9         0.0137
     20 C28       191.5540  125.1900   33.7220 C.ar      1 PB9        -0.0333
     21 C29       191.2690  125.4490   32.3590 C.ar      1 PB9        -0.0398
     22 C30       189.9400  125.3670   31.8940 C.ar      1 PB9        -0.0062
     23 C35       186.6910  127.1240   30.2910 C.3       1 PB9         0.0332
     24 C36       185.3940  126.5740   29.7420 C.3       1 PB9        -0.0203
     25 C39       184.1100  127.1950   30.3450 C.3       1 PB9        -0.0282
     26 C40       182.8410  126.7600   29.5750 C.3       1 PB9         0.0361
     27 N41       183.0330  126.8530   28.1100 N.am      1 PB9        -0.2489
     28 C42       184.2450  126.2290   27.5610 C.3       1 PB9         0.0361
     29 C43       185.4700  126.8030   28.2350 C.3       1 PB9        -0.0282
     30 C53       182.1530  127.5020   27.2830 C.2       1 PB9         0.3218
     31 O54       182.4790  127.5380   25.9860 O.3       1 PB9        -0.2671
     32 O55       181.1580  128.0180   27.7060 O.2       1 PB9        -0.3774
     33 C56       181.4400  127.7420   25.0300 C.3       1 PB9         0.0663
     34 C60       190.1030  129.7490   34.4270 C.3       1 PB9         0.0826
     35 C61       190.7180  128.8380   35.5140 C.2       1 PB9         0.0758
     36 C64       190.0940  127.9250   36.3130 C.2       1 PB9        -0.0256
     37 N65       191.0670  127.3020   37.2180 N.2       1 PB9        -0.3435
     38 C66       192.2470  127.8740   36.9130 C.2       1 PB9         0.0898
     39 N67       192.1390  128.7980   35.9150 N.pl3     1 PB9        -0.2493
     40 C68       193.1990  129.6470   35.3360 C.3       1 PB9         0.0471
     41 H1        186.8279  132.5788   36.9700 H         1 PB9         0.0632
     42 H2        188.7667  131.3582   35.9986 H         1 PB9         0.0525
     43 H3        184.1630  130.2174   34.5404 H         1 PB9         0.0615
     44 H4        188.6905  127.3242   33.7588 H         1 PB9         0.0539
     45 H5        189.2960  128.3454   32.4108 H         1 PB9         0.0539
     46 H6        187.1565  128.9788   31.7762 H         1 PB9         0.0553
     47 H7        185.0966  128.6747   32.8802 H         1 PB9         0.0420
     48 H8        185.8284  127.5991   34.1188 H         1 PB9         0.0420
     49 H9        190.6898  124.4842   35.5743 H         1 PB9         0.0828
     50 H10       192.5564  125.3059   34.1180 H         1 PB9         0.0713
     51 H11       192.0693  125.7093   31.6758 H         1 PB9         0.0740
     52 H12       189.7056  125.5381   30.8496 H         1 PB9         0.0733
     53 H13       187.5076  126.6827   29.7008 H         1 PB9         0.0481
     54 H14       186.6741  128.2130   30.1368 H         1 PB9         0.0481
     55 H15       185.3601  125.4931   29.9433 H         1 PB9         0.0318
     56 H16       184.1923  128.2911   30.3040 H         1 PB9         0.0288
     57 H17       184.0177  126.8731   31.3928 H         1 PB9         0.0288
     58 H18       182.0050  127.4123   29.8674 H         1 PB9         0.0522
     59 H19       182.6032  125.7188   29.8383 H         1 PB9         0.0522
     60 H20       184.2983  126.4247   26.4799 H         1 PB9         0.0522
     61 H21       184.2076  125.1436   27.7358 H         1 PB9         0.0522
     62 H22       186.3691  126.3101   27.8368 H         1 PB9         0.0288
     63 H23       185.5241  127.8830   28.0332 H         1 PB9         0.0288
     64 H24       181.8692  127.7459   24.0172 H         1 PB9         0.0575
     65 H25       180.9480  128.7066   25.2234 H         1 PB9         0.0575
     66 H26       180.7017  126.9308   25.1122 H         1 PB9         0.0575
     67 H27       190.1341  130.7910   34.7780 H         1 PB9         0.0697
     68 H28       190.6976  129.6542   33.5064 H         1 PB9         0.0697
     69 H29       189.0305  127.6927   36.2836 H         1 PB9         0.0325
     70 H30       193.1846  127.6264   37.4084 H         1 PB9         0.1150
     71 H31       192.7700  130.2819   34.5468 H         1 PB9         0.0583
     72 H32       193.9857  129.0094   34.9064 H         1 PB9         0.0583
     73 H33       193.6310  130.2823   36.1233 H         1 PB9         0.0583
@<TRIPOS>BOND
     1    1    2 ar 
     2    1    6 ar 
     3    2    3 ar 
     4    3    4 ar 
     5    3    7 1  
     6    4    5 ar 
     7    4   10 1  
     8    5    6 ar 
     9    6   11 1  
    10    7    8 1  
    11    7   34 1  
    12    8    9 1  
    13    9   10 1  
    14    9   13 1  
    15   11   12 3  
    16   13   14 am 
    17   13   23 1  
    18   14   15 1  
    19   14   16 2  
    20   14   17 2  
    21   15   18 ar 
    22   15   22 ar 
    23   18   19 ar 
    24   19   20 ar 
    25   20   21 ar 
    26   21   22 ar 
    27   23   24 1  
    28   24   25 1  
    29   24   29 1  
    30   25   26 1  
    31   26   27 1  
    32   27   28 1  
    33   27   30 am 
    34   28   29 1  
    35   30   31 1  
    36   30   32 2  
    37   31   33 1  
    38   34   35 1  
    39   35   36 2  
    40   35   39 1  
    41   36   37 1  
    42   37   38 2  
    43   38   39 1  
    44   39   40 1  
    45    1   41 1  
    46    2   42 1  
    47    5   43 1  
    48    8   44 1  
    49    8   45 1  
    50    9   46 1  
    51   10   47 1  
    52   10   48 1  
    53   19   49 1  
    54   20   50 1  
    55   21   51 1  
    56   22   52 1  
    57   23   53 1  
    58   23   54 1  
    59   24   55 1  
    60   25   56 1  
    61   25   57 1  
    62   26   58 1  
    63   26   59 1  
    64   28   60 1  
    65   28   61 1  
    66   29   62 1  
    67   29   63 1  
    68   33   64 1  
    69   33   65 1  
    70   33   66 1  
    71   34   67 1  
    72   34   68 1  
    73   36   69 1  
    74   38   70 1  
    75   40   71 1  
    76   40   72 1  
    77   40   73 1  
@<TRIPOS>SUBSTRUCTURE
     1 PB9         1

