### 
### Created by X-TOOL on Mon Sep 10 21:12:57 2018
### 

@<TRIPOS>MOLECULE
2r2m_ligand
   52    53     1     0     0
SMALL
GAST_HUCK


@<TRIPOS>ATOM
      1 C1         11.2820  -11.8930   24.1440 C.cat     1 I50         0.2785
      2 O5         12.8320  -10.8210   22.8090 O.3       1 I50        -0.0900
      3 C7         13.5960  -11.6280   20.7120 C.3       1 I50         0.0751
      4 C9         15.9110  -12.6250   20.6430 C.2       1 I50         0.1868
      5 C11        17.4290  -12.4680   20.7380 C.3       1 I50         0.0687
      6 C12        18.0500  -13.6860   21.4320 C.ar      1 I50         0.0118
      7 C13        17.3890  -14.3750   22.4770 C.ar      1 I50         0.1512
      8 C14        18.0100  -15.4820   23.0830 C.ar      1 I50         0.0655
      9 C15        19.2980  -15.9110   22.6540 C.ar      1 I50        -0.0517
     10 C16        19.9610  -15.2270   21.6180 C.ar      1 I50        -0.0696
     11 C21        17.9920  -17.4000   24.6850 C.3       1 I50         0.0632
     12 C24        18.5950  -17.1030   26.0710 C.3       1 I50         0.2507
     13 C27        22.2290  -15.9830   25.3400 C.ar      1 I50        -0.0322
     14 C30        19.7770  -14.8320   26.1720 C.ar      1 I50        -0.0342
     15 N2         11.0940  -10.7580   24.6540 N.pl3     1 I50        -0.3215
     16 N3         10.3040  -12.9490   24.3330 N.pl3     1 I50        -0.3215
     17 N4         12.3530  -12.0830   23.1850 N.pl3     1 I50        -0.0565
     18 C6         12.9150  -10.4740   21.4530 C.3       1 I50         0.1835
     19 N8         15.0380  -11.4860   20.8980 N.am      1 I50        -0.2815
     20 O10        15.4670  -13.6050   20.1460 O.2       1 I50        -0.3942
     21 C17        19.3340  -14.1170   21.0090 C.ar      1 I50         0.0280
     22 CL18       20.1610  -13.2430   19.6960 Cl        1 I50        -0.0897
     23 F19        16.1630  -13.9770   22.9160 F         1 I50        -0.1985
     24 N20        17.3490  -16.1960   24.1720 N.pl3     1 I50        -0.3264
     25 C25        19.8580  -16.2290   25.9150 C.ar      1 I50         0.0156
     26 C26        21.0880  -16.7970   25.4930 C.ar      1 I50        -0.0342
     27 C28        22.1470  -14.5890   25.5970 C.ar      1 I50        -0.0340
     28 C29        20.9160  -14.0200   26.0160 C.ar      1 I50        -0.0322
     29 F31        17.6690  -16.4360   26.8250 F         1 I50        -0.2491
     30 F32        18.8830  -18.3030   26.6480 F         1 I50        -0.2491
     31 H1         13.3502  -11.5823   19.6408 H         1 I50         0.0560
     32 H2         13.2580  -12.5898   21.1251 H         1 I50         0.0560
     33 H3         17.6642  -11.5624   21.3163 H         1 I50         0.0650
     34 H4         17.8479  -12.3754   19.7251 H         1 I50         0.0650
     35 H5         19.7687  -16.7658   23.1261 H         1 I50         0.0452
     36 H6         20.9430  -15.5486   21.2905 H         1 I50         0.0541
     37 H7         17.2477  -18.2052   24.7728 H         1 I50         0.0470
     38 H8         18.7905  -17.7123   23.9959 H         1 I50         0.0470
     39 H9         23.1693  -16.4216   25.0260 H         1 I50         0.0698
     40 H10        18.8377  -14.3928   26.4881 H         1 I50         0.0852
     41 H11        10.3343  -10.6191   25.3355 H         1 I50         0.1855
     42 H12        11.6998   -9.9680   24.3899 H         1 I50         0.1855
     43 H13        10.4606  -13.8770   23.9143 H         1 I50         0.1855
     44 H14         9.4534  -12.7703   24.8858 H         1 I50         0.1855
     45 H15        12.7013  -12.9888   22.8399 H         1 I50         0.3886
     46 H16        13.5080   -9.5547   21.3382 H         1 I50         0.0833
     47 H17        11.9058  -10.3126   21.0462 H         1 I50         0.0833
     48 H18        15.4234  -10.6135   21.1982 H         1 I50         0.1853
     49 H19        16.4580  -15.8602   24.5648 H         1 I50         0.1737
     50 H20        21.1505  -17.8596   25.2877 H         1 I50         0.0852
     51 H21        23.0220  -13.9611   25.4736 H         1 I50         0.0856
     52 H22        20.8529  -12.9566   26.2165 H         1 I50         0.0698
@<TRIPOS>BOND
     1    1   15 ar 
     2    1   16 ar 
     3   17    1 ar 
     4    2   17 1  
     5   18    2 1  
     6    3   18 1  
     7   19    3 1  
     8    5    4 1  
     9    4   19 am 
    10    4   20 2  
    11    6    5 1  
    12    7    6 ar 
    13    6   21 ar 
    14    8    7 ar 
    15    7   23 1  
    16    8    9 ar 
    17   24    8 1  
    18    9   10 ar 
    19   10   21 ar 
    20   12   11 1  
    21   11   24 1  
    22   25   12 1  
    23   12   29 1  
    24   12   30 1  
    25   26   13 ar 
    26   13   27 ar 
    27   25   14 ar 
    28   14   28 ar 
    29   21   22 1  
    30   25   26 ar 
    31   27   28 ar 
    32    3   31 1  
    33    3   32 1  
    34    5   33 1  
    35    5   34 1  
    36    9   35 1  
    37   10   36 1  
    38   11   37 1  
    39   11   38 1  
    40   13   39 1  
    41   14   40 1  
    42   15   41 1  
    43   15   42 1  
    44   16   43 1  
    45   16   44 1  
    46   17   45 1  
    47   18   46 1  
    48   18   47 1  
    49   19   48 1  
    50   24   49 1  
    51   26   50 1  
    52   27   51 1  
    53   28   52 1  
@<TRIPOS>SUBSTRUCTURE
     1 I50         1

