### 
### Created by X-TOOL on Mon Sep 10 21:12:55 2018
### 

@<TRIPOS>MOLECULE
2r2w_ligand
   35    36     1     0     0
SMALL
GAST_HUCK


@<TRIPOS>ATOM
      1 C1         33.8740    4.6450   27.8850 C.cat     1 4PG         0.1640
      2 C2         31.9330    5.9770   28.4410 C.ar      1 4PG         0.1551
      3 C3         31.3210    5.1850   29.4660 C.ar      1 4PG         0.0448
      4 C7         31.1760    6.9990   27.8130 C.ar      1 4PG         0.0448
      5 C8         27.7360    6.6410   29.7020 C.3       1 4PG         0.0952
      6 C9         27.0800    7.9250   29.2180 C.2       1 4PG         0.1624
      7 C10        27.1470    9.2390   30.0010 C.ar      1 4PG         0.0381
      8 C11        26.5040   10.4070   29.4820 C.ar      1 4PG        -0.0426
      9 C12        26.5540   11.6400   30.1920 C.ar      1 4PG        -0.0559
     10 C13        27.2480   11.7220   31.4370 C.ar      1 4PG        -0.0572
     11 C14        27.8900   10.5710   31.9660 C.ar      1 4PG        -0.0559
     12 C15        27.8410    9.3350   31.2560 C.ar      1 4PG        -0.0426
     13 N1         33.2440    5.7690   28.0740 N.pl3     1 4PG        -0.2417
     14 N2         35.1060    4.7490   27.5640 N.pl3     1 4PG        -0.3494
     15 N3         33.3760    3.4690   28.0040 N.pl3     1 4PG        -0.3494
     16 C4         29.9760    5.4160   29.8510 C.ar      1 4PG         0.0177
     17 C5         29.2020    6.4390   29.2310 C.ar      1 4PG         0.0546
     18 C6         29.8190    7.2340   28.1990 C.ar      1 4PG         0.0177
     19 O1         26.4770    7.8860   28.1520 O.2       1 4PG        -0.3682
     20 H1         31.8915    4.4017   29.9518 H         1 4PG         0.0930
     21 H2         31.6283    7.6051   27.0364 H         1 4PG         0.0930
     22 H3         27.1392    5.7929   29.3353 H         1 4PG         0.0873
     23 H4         27.7281    6.6466   30.8019 H         1 4PG         0.0873
     24 H5         25.9733   10.3526   28.5384 H         1 4PG         0.0672
     25 H6         26.0643   12.5180   29.7866 H         1 4PG         0.0630
     26 H7         27.2848   12.6610   31.9774 H         1 4PG         0.0655
     27 H8         28.4180   10.6319   32.9107 H         1 4PG         0.0630
     28 H9         28.3317    8.4600   31.6666 H         1 4PG         0.0672
     29 H10        33.8042    6.6210   27.9288 H         1 4PG         0.2422
     30 H11        35.6684    3.9021   27.3986 H         1 4PG         0.1668
     31 H12        35.5371    5.6798   27.4706 H         1 4PG         0.1668
     32 H13        32.3856    3.3528   28.2618 H         1 4PG         0.1668
     33 H14        33.9665    2.6408   27.8418 H         1 4PG         0.1668
     34 H15        29.5303    4.8056   30.6281 H         1 4PG         0.0863
     35 H16        29.2495    8.0168   27.7112 H         1 4PG         0.0863
@<TRIPOS>BOND
     1   13    1 ar 
     2    1   14 ar 
     3    1   15 ar 
     4    3    2 ar 
     5    2    4 ar 
     6    2   13 1  
     7   16    3 ar 
     8    4   18 ar 
     9    5    6 1  
    10   17    5 1  
    11    6    7 1  
    12    6   19 2  
    13    7    8 ar 
    14    7   12 ar 
    15    8    9 ar 
    16    9   10 ar 
    17   11   10 ar 
    18   12   11 ar 
    19   16   17 ar 
    20   17   18 ar 
    21    3   20 1  
    22    4   21 1  
    23    5   22 1  
    24    5   23 1  
    25    8   24 1  
    26    9   25 1  
    27   10   26 1  
    28   11   27 1  
    29   12   28 1  
    30   13   29 1  
    31   14   30 1  
    32   14   31 1  
    33   15   32 1  
    34   15   33 1  
    35   16   34 1  
    36   18   35 1  
@<TRIPOS>SUBSTRUCTURE
     1 4PG         1

