### 
### Created by X-TOOL on Mon Sep 10 21:12:58 2018
### 

@<TRIPOS>MOLECULE
2r38_ligand
   79    83     1     0     0
SMALL
GAST_HUCK


@<TRIPOS>ATOM
      1 C1          9.0910  -15.6380  -14.4700 C.ar      1 G4G        -0.0401
      2 O2         17.0880  -24.4640  -22.0150 O.2       1 G4G        -0.3849
      3 N2          5.5910  -14.9370  -15.3750 N.am      1 G4G        -0.3001
      4 C2         14.4900  -23.7450  -21.2580 C.ar      1 G4G        -0.0401
      5 O1          7.3040  -13.5910  -14.8850 O.2       1 G4G        -0.3849
      6 N1         17.4820  -25.6230  -20.1460 N.am      1 G4G        -0.3001
      7 C3          7.5230  -17.0750  -15.7590 C.ar      1 G4G        -0.0401
      8 C4          7.8340  -15.8330  -15.1470 C.ar      1 G4G         0.0498
      9 C5         15.1830  -24.2720  -18.9590 C.ar      1 G4G        -0.0401
     10 C6         15.4290  -24.2640  -20.3520 C.ar      1 G4G         0.0498
     11 C7         13.4650  -18.7130  -15.2480 C.3       1 G4G         0.0639
     12 C8         16.7330  -24.7990  -20.8980 C.2       1 G4G         0.2025
     13 S8         10.8400  -19.3140  -14.9990 S.o2      1 G4G         0.0746
     14 C9          6.8880  -14.7080  -15.1350 C.2       1 G4G         0.2025
     15 S9         11.4550  -22.5440  -18.7730 S.o2      1 G4G         0.0746
     16 O10        10.2440  -20.5080  -15.5810 O.2       1 G4G        -0.1494
     17 O11        11.4530  -22.7950  -17.3490 O.2       1 G4G        -0.1494
     18 C12        14.3370  -19.9700  -15.1960 C.ar      1 G4G        -0.0244
     19 C13        13.7750  -21.2360  -14.8290 C.ar      1 G4G        -0.0588
     20 C14        15.7290  -19.8980  -15.5270 C.ar      1 G4G        -0.0588
     21 C17        10.0240  -16.7160  -14.4420 C.ar      1 G4G        -0.0295
     22 C18        13.2560  -23.2270  -20.8000 C.ar      1 G4G        -0.0295
     23 C19         8.4590  -18.1500  -15.6960 C.ar      1 G4G        -0.0295
     24 C20        13.9410  -23.7450  -18.5020 C.ar      1 G4G        -0.0295
     25 C21        12.5480  -17.7440  -18.1340 C.3       1 G4G        -0.0110
     26 N22        13.9080  -18.1870  -18.5630 N.4       1 G4G         0.2298
     27 C23        11.9170  -18.9640  -17.4310 C.3       1 G4G         0.1075
     28 C24        12.6710  -20.2210  -18.0330 C.3       1 G4G         0.1075
     29 C25        13.9840  -19.6560  -18.6380 C.3       1 G4G        -0.0110
     30 C26         9.7200  -17.9720  -15.0360 C.ar      1 G4G         0.1128
     31 C27        12.9930  -23.2100  -19.4050 C.ar      1 G4G         0.1128
     32 N28        12.1900  -18.9500  -15.9490 N.am      1 G4G        -0.2123
     33 C29        14.6280  -22.3830  -14.8010 C.ar      1 G4G        -0.0685
     34 C30        16.5830  -21.0400  -15.4640 C.ar      1 G4G        -0.0685
     35 C31        16.0200  -22.2980  -15.0980 C.ar      1 G4G        -0.0687
     36 N32        11.8070  -20.8900  -19.0730 N.am      1 G4G        -0.2123
     37 C33        11.2780  -20.2790  -20.3230 C.3       1 G4G         0.0639
     38 C34         9.9940  -19.4760  -20.1590 C.ar      1 G4G        -0.0244
     39 C35         9.0510  -19.8620  -19.1850 C.ar      1 G4G        -0.0588
     40 C36         7.8680  -19.0780  -19.0800 C.ar      1 G4G        -0.0685
     41 C37         7.6650  -17.9450  -19.9230 C.ar      1 G4G        -0.0687
     42 C38         9.7850  -18.3620  -21.0180 C.ar      1 G4G        -0.0588
     43 C39         8.6190  -17.5620  -20.9020 C.ar      1 G4G        -0.0685
     44 O40        10.4790  -22.9790  -19.7570 O.2       1 G4G        -0.1494
     45 O41        11.2960  -19.4340  -13.5890 O.2       1 G4G        -0.1494
     46 H1          9.3222  -14.6927  -13.9925 H         1 G4G         0.0670
     47 H2          5.2761  -15.8642  -15.5778 H         1 G4G         0.1808
     48 H3          4.9370  -14.1808  -15.3515 H         1 G4G         0.1808
     49 H4         14.7130  -23.7413  -22.3188 H         1 G4G         0.0670
     50 H5         17.1725  -25.8856  -19.2321 H         1 G4G         0.1808
     51 H6         18.3489  -25.9737  -20.5003 H         1 G4G         0.1808
     52 H7          6.5775  -17.2065  -16.2726 H         1 G4G         0.0670
     53 H8         15.9148  -24.6658  -18.2629 H         1 G4G         0.0670
     54 H9         14.0168  -17.9202  -15.7743 H         1 G4G         0.0641
     55 H10        13.2490  -18.3886  -14.2194 H         1 G4G         0.0641
     56 H11        12.7241  -21.3223  -14.5776 H         1 G4G         0.0557
     57 H12        16.1468  -18.9464  -15.8350 H         1 G4G         0.0557
     58 H13        10.9839  -16.5754  -13.9584 H         1 G4G         0.0649
     59 H14        12.5227  -22.8490  -21.5031 H         1 G4G         0.0649
     60 H15         8.2163  -19.1047  -16.1485 H         1 G4G         0.0649
     61 H16        13.7180  -23.7542  -17.4412 H         1 G4G         0.0649
     62 H17        11.9466  -17.4504  -19.0070 H         1 G4G         0.0833
     63 H18        12.6223  -16.8956  -17.4378 H         1 G4G         0.0833
     64 H19        14.5883  -17.8551  -17.8973 H         1 G4G         0.2015
     65 H20        14.1099  -17.7995  -19.4714 H         1 G4G         0.2015
     66 H21        10.8345  -19.0086  -17.6214 H         1 G4G         0.0590
     67 H22        12.9040  -20.9460  -17.2392 H         1 G4G         0.0590
     68 H23        14.8490  -20.0175  -18.0625 H         1 G4G         0.0833
     69 H24        14.0821  -19.9743  -19.6864 H         1 G4G         0.0833
     70 H25        14.2033  -23.3472  -14.5461 H         1 G4G         0.0599
     71 H26        17.6396  -20.9526  -15.6901 H         1 G4G         0.0599
     72 H27        16.6450  -23.1822  -15.0460 H         1 G4G         0.0559
     73 H28        11.0836  -21.0886  -21.0418 H         1 G4G         0.0641
     74 H29        12.0500  -19.6076  -20.7269 H         1 G4G         0.0641
     75 H30         9.2197  -20.7193  -18.5434 H         1 G4G         0.0557
     76 H31         7.1118  -19.3449  -18.3506 H         1 G4G         0.0599
     77 H32         6.7583  -17.3612  -19.8130 H         1 G4G         0.0559
     78 H33        10.5263  -18.1209  -21.7713 H         1 G4G         0.0557
     79 H34         8.4633  -16.6952  -21.5340 H         1 G4G         0.0599
@<TRIPOS>BOND
     1    1    8 ar 
     2   21    1 ar 
     3   12    2 2  
     4   14    3 am 
     5    4   10 ar 
     6   22    4 ar 
     7   14    5 2  
     8   12    6 am 
     9    7    8 ar 
    10   23    7 ar 
    11    8   14 1  
    12    9   10 ar 
    13   24    9 ar 
    14   10   12 1  
    15   11   18 1  
    16   32   11 1  
    17   13   16 2  
    18   13   30 1  
    19   32   13 am 
    20   13   45 2  
    21   15   17 2  
    22   15   31 1  
    23   36   15 am 
    24   15   44 2  
    25   18   19 ar 
    26   18   20 ar 
    27   19   33 ar 
    28   20   34 ar 
    29   30   21 ar 
    30   31   22 ar 
    31   30   23 ar 
    32   31   24 ar 
    33   26   25 1  
    34   27   25 1  
    35   29   26 1  
    36   28   27 1  
    37   27   32 1  
    38   28   29 1  
    39   28   36 1  
    40   33   35 ar 
    41   34   35 ar 
    42   36   37 1  
    43   37   38 1  
    44   38   39 ar 
    45   38   42 ar 
    46   39   40 ar 
    47   40   41 ar 
    48   41   43 ar 
    49   42   43 ar 
    50    1   46 1  
    51    3   47 1  
    52    3   48 1  
    53    4   49 1  
    54    6   50 1  
    55    6   51 1  
    56    7   52 1  
    57    9   53 1  
    58   11   54 1  
    59   11   55 1  
    60   19   56 1  
    61   20   57 1  
    62   21   58 1  
    63   22   59 1  
    64   23   60 1  
    65   24   61 1  
    66   25   62 1  
    67   25   63 1  
    68   26   64 1  
    69   26   65 1  
    70   27   66 1  
    71   28   67 1  
    72   29   68 1  
    73   29   69 1  
    74   33   70 1  
    75   34   71 1  
    76   35   72 1  
    77   37   73 1  
    78   37   74 1  
    79   39   75 1  
    80   40   76 1  
    81   41   77 1  
    82   42   78 1  
    83   43   79 1  
@<TRIPOS>SUBSTRUCTURE
     1 G4G         1

