### 
### Created by X-TOOL on Mon Sep 10 21:12:58 2018
### 

@<TRIPOS>MOLECULE
2r3f_ligand
   38    41     1     0     0
SMALL
GAST_HUCK


@<TRIPOS>ATOM
      1 C01        -0.5430   31.2880    8.0500 C.2       1 SC8        -0.0450
      2 C02         0.0220   30.0200    8.3790 C.2       1 SC8         0.1452
      3 N03         1.2750   29.9830    7.6510 N.pl3     1 SC8        -0.1144
      4 N04         1.4750   31.1120    6.9180 N.2       1 SC8        -0.2151
      5 C05         0.4140   31.9190    7.1880 C.2       1 SC8        -0.0226
      6 N06        -0.4140   28.9930    9.1660 N.2       1 SC8        -0.2938
      7 C07         0.3850   27.9270    9.2360 C.2       1 SC8         0.0280
      8 C08         1.6690   27.8320    8.5880 C.2       1 SC8         0.0222
      9 C09         2.1090   28.8990    7.7780 C.2       1 SC8         0.2224
     10 N10         3.3240   28.9410    7.1360 N.pl3     1 SC8        -0.2574
     11 C11        -0.0330   26.8450   10.1610 C.ar      1 SC8         0.0149
     12 C12         4.3450   27.9960    7.5410 C.3       1 SC8         0.0765
     13 C13         4.4690   26.8600    6.5880 C.ar      1 SC8         0.0002
     14 C14         4.3760   25.5440    7.0440 C.ar      1 SC8        -0.0304
     15 C15         4.4810   24.5020    6.1000 C.ar      1 SC8         0.0031
     16 N16         4.6460   24.7110    4.7810 N.ar      1 SC8        -0.3066
     17 C17         4.7570   25.9950    4.3600 C.ar      1 SC8         0.0031
     18 C18         4.6540   27.0980    5.2270 C.ar      1 SC8        -0.0304
     19 C19        -0.2800   27.2010   11.4940 C.ar      1 SC8        -0.0470
     20 C20        -0.7300   26.2580   12.4020 C.ar      1 SC8        -0.0563
     21 C21        -0.9080   24.9430   12.0010 C.ar      1 SC8        -0.0436
     22 C22        -0.6710   24.5830   10.6740 C.ar      1 SC8         0.0592
     23 C23        -0.2370   25.5210    9.7470 C.ar      1 SC8         0.0691
     24 CL24        0.0400   25.0550    8.1620 Cl        1 SC8        -0.0644
     25 CL25       -0.9480   22.9790   10.2060 Cl        1 SC8        -0.0690
     26 H1         -1.4983   31.6913    8.3828 H         1 SC8         0.0196
     27 H2          0.3038   32.9285    6.7948 H         1 SC8         0.0631
     28 H3          2.2908   26.9481    8.7222 H         1 SC8         0.0415
     29 H4          3.5036   29.6255    6.3876 H         1 SC8         0.1973
     30 H5          4.0865   27.5990    8.5337 H         1 SC8         0.0725
     31 H6          5.3108   28.5196    7.5956 H         1 SC8         0.0725
     32 H7          4.2270   25.3289    8.0959 H         1 SC8         0.0652
     33 H8          4.4259   23.4793    6.4553 H         1 SC8         0.0803
     34 H9          4.9333   26.1802    3.3066 H         1 SC8         0.0803
     35 H10         4.7171   28.1106    4.8452 H         1 SC8         0.0652
     36 H11        -0.1173   28.2231   11.8165 H         1 SC8         0.0663
     37 H12        -0.9428   26.5473   13.4248 H         1 SC8         0.0629
     38 H13        -1.2307   24.1959   12.7170 H         1 SC8         0.0655
@<TRIPOS>BOND
     1    1    2 2  
     2    1    5 1  
     3    2    3 1  
     4    2    6 1  
     5    3    4 1  
     6    3    9 1  
     7    4    5 2  
     8    6    7 2  
     9    7    8 1  
    10    7   11 1  
    11    8    9 2  
    12    9   10 1  
    13   10   12 1  
    14   11   19 ar 
    15   11   23 ar 
    16   12   13 1  
    17   13   14 ar 
    18   13   18 ar 
    19   14   15 ar 
    20   15   16 ar 
    21   16   17 ar 
    22   17   18 ar 
    23   19   20 ar 
    24   20   21 ar 
    25   21   22 ar 
    26   22   23 ar 
    27   22   25 1  
    28   23   24 1  
    29    1   26 1  
    30    5   27 1  
    31    8   28 1  
    32   10   29 1  
    33   12   30 1  
    34   12   31 1  
    35   14   32 1  
    36   15   33 1  
    37   17   34 1  
    38   18   35 1  
    39   19   36 1  
    40   20   37 1  
    41   21   38 1  
@<TRIPOS>SUBSTRUCTURE
     1 SC8         1

