### 
### Created by X-TOOL on Mon Sep 10 21:12:57 2018
### 

@<TRIPOS>MOLECULE
2r3g_ligand
   39    42     1     0     0
SMALL
GAST_HUCK


@<TRIPOS>ATOM
      1 C01         4.7510   27.2600    5.3530 C.2       1 SC9         0.0682
      2 N02         3.7760   27.4230    6.3150 N.ar      1 SC9        -0.2588
      3 C03         3.9450   26.4550    7.2380 C.ar      1 SC9         0.2593
      4 N04         4.9810   25.6520    6.9200 N.pl3     1 SC9        -0.2000
      5 C05         5.4770   26.1650    5.7680 C.2       1 SC9         0.1152
      6 C06         2.7330   28.2840    6.3950 C.ar      1 SC9         0.0517
      7 C07         1.8740   28.2380    7.4880 C.ar      1 SC9         0.0948
      8 N08         2.0480   27.2650    8.4510 N.ar      1 SC9        -0.2274
      9 C09         3.0300   26.3890    8.3660 C.ar      1 SC9         0.2280
     10 N10         3.2530   25.4020    9.2840 N.pl3     1 SC9        -0.2656
     11 C11         2.4150   25.4500   10.4870 C.3       1 SC9         0.0774
     12 C12         1.2100   24.5860   10.2840 C.ar      1 SC9         0.0095
     13 C13         1.3300   23.1920   10.1360 C.ar      1 SC9        -0.0383
     14 C14         0.1680   22.4290    9.9360 C.ar      1 SC9        -0.0404
     15 C15        -1.0640   23.0910    9.8770 C.ar      1 SC9         0.0042
     16 N16        -1.2010   24.4290   10.0340 N.ar      1 SC9        -0.3043
     17 C17        -0.0800   25.1360   10.2260 C.ar      1 SC9         0.0147
     18 C18         0.7830   29.2310    7.7520 C.ar      1 SC9         0.0599
     19 C19         0.6870   30.5270    7.1360 C.ar      1 SC9         0.1611
     20 C20        -0.3160   31.4220    7.5130 C.ar      1 SC9        -0.0138
     21 C21        -1.2280   31.0940    8.5240 C.ar      1 SC9        -0.0516
     22 C22        -1.1560   29.8350    9.1290 C.ar      1 SC9        -0.0526
     23 C23        -0.1470   28.9270    8.7600 C.ar      1 SC9        -0.0384
     24 F24         1.5020   30.9250    6.1820 F         1 SC9        -0.1700
     25 H1          4.9117   27.8641    4.4613 H         1 SC9         0.1009
     26 H2          5.3205   24.8295    7.4388 H         1 SC9         0.2749
     27 H3          6.3393   25.7631    5.2380 H         1 SC9         0.1351
     28 H4          2.5678   29.0093    5.6065 H         1 SC9         0.1005
     29 H5          3.9642   24.6709    9.1405 H         1 SC9         0.2034
     30 H6          2.0970   26.4866   10.6724 H         1 SC9         0.0729
     31 H7          2.9895   25.0827   11.3501 H         1 SC9         0.0729
     32 H8          2.3026   22.7151   10.1757 H         1 SC9         0.0679
     33 H9          0.2239   21.3517    9.8297 H         1 SC9         0.0693
     34 H10        -1.9555   22.5014    9.6961 H         1 SC9         0.0767
     35 H11        -0.1757   26.2092   10.3451 H         1 SC9         0.0766
     36 H12        -0.3898   32.3830    7.0169 H         1 SC9         0.0637
     37 H13        -1.9818   31.8084    8.8344 H         1 SC9         0.0706
     38 H14        -1.8810   29.5577    9.8857 H         1 SC9         0.0624
     39 H15        -0.0856   27.9700    9.2655 H         1 SC9         0.0696
@<TRIPOS>BOND
     1    1    2 1  
     2    1    5 2  
     3    2    3 ar 
     4    2    6 ar 
     5    3    4 1  
     6    3    9 ar 
     7    4    5 1  
     8    6    7 ar 
     9    7    8 ar 
    10    7   18 1  
    11    8    9 ar 
    12    9   10 1  
    13   10   11 1  
    14   11   12 1  
    15   12   13 ar 
    16   12   17 ar 
    17   13   14 ar 
    18   14   15 ar 
    19   15   16 ar 
    20   16   17 ar 
    21   18   19 ar 
    22   18   23 ar 
    23   19   20 ar 
    24   19   24 1  
    25   20   21 ar 
    26   21   22 ar 
    27   22   23 ar 
    28    1   25 1  
    29    4   26 1  
    30    5   27 1  
    31    6   28 1  
    32   10   29 1  
    33   11   30 1  
    34   11   31 1  
    35   13   32 1  
    36   14   33 1  
    37   15   34 1  
    38   17   35 1  
    39   20   36 1  
    40   21   37 1  
    41   22   38 1  
    42   23   39 1  
@<TRIPOS>SUBSTRUCTURE
     1 SC9         1

