### 
### Created by X-TOOL on Mon Sep 10 21:12:57 2018
### 

@<TRIPOS>MOLECULE
2r3h_ligand
   31    33     1     0     0
SMALL
GAST_HUCK


@<TRIPOS>ATOM
      1 C01        -0.2280   30.4830    7.8410 C.2       1 SCE         0.0713
      2 N02         0.4500   29.2650    8.0110 N.pl3     1 SCE        -0.2046
      3 C03         1.6890   29.3660    7.2990 C.2       1 SCE         0.1918
      4 N04         1.7920   30.5860    6.6620 N.2       1 SCE        -0.3362
      5 C05         0.6420   31.2990    7.0400 C.2       1 SCE        -0.0237
      6 C06         0.1480   28.1080    8.7120 C.2       1 SCE         0.0729
      7 C07         1.0660   27.0600    8.6860 C.2       1 SCE         0.0057
      8 N08         2.2670   27.0760    8.0280 N.2       1 SCE        -0.3021
      9 C09         2.6020   28.2010    7.3410 C.2       1 SCE         0.1636
     10 N10         3.7900   28.3030    6.6450 N.pl3     1 SCE        -0.2846
     11 C11         4.8130   27.2760    6.7850 C.3       1 SCE         0.0701
     12 C12         4.8740   26.3270    5.6150 C.ar      1 SCE        -0.0009
     13 C13         4.7030   24.9460    5.8130 C.ar      1 SCE        -0.0305
     14 C14         4.7650   24.0920    4.6930 C.ar      1 SCE         0.0031
     15 N15         4.9920   24.5330    3.4300 N.ar      1 SCE        -0.3066
     16 C16         5.1530   25.8610    3.2610 C.ar      1 SCE         0.0031
     17 C17         5.0980   26.7910    4.3180 C.ar      1 SCE        -0.0305
     18 C18        -1.5460   30.7980    8.4130 C.3       1 SCE        -0.0076
     19 H1          0.4373   32.3321    6.7629 H         1 SCE         0.0406
     20 H2         -0.7835   28.0202    9.2692 H         1 SCE         0.1013
     21 H3          0.8074   26.1547    9.2333 H         1 SCE         0.0639
     22 H4          3.9534   29.1086    6.0243 H         1 SCE         0.1872
     23 H5          4.6011   26.6947    7.6945 H         1 SCE         0.0712
     24 H6          5.7910   27.7695    6.8847 H         1 SCE         0.0712
     25 H7          4.5273   24.5463    6.8052 H         1 SCE         0.0652
     26 H8          4.6241   23.0285    4.8488 H         1 SCE         0.0803
     27 H9          5.3343   26.2328    2.2590 H         1 SCE         0.0803
     28 H10         5.2276   27.8501    4.1268 H         1 SCE         0.0652
     29 H11        -1.8378   31.8179    8.1219 H         1 SCE         0.0397
     30 H12        -1.4955   30.7301    9.5097 H         1 SCE         0.0397
     31 H13        -2.2904   30.0818    8.0351 H         1 SCE         0.0397
@<TRIPOS>BOND
     1    1    2 1  
     2    1    5 2  
     3    1   18 1  
     4    2    3 1  
     5    2    6 1  
     6    3    4 2  
     7    3    9 1  
     8    4    5 1  
     9    6    7 2  
    10    7    8 1  
    11    8    9 2  
    12    9   10 1  
    13   10   11 1  
    14   11   12 1  
    15   12   13 ar 
    16   12   17 ar 
    17   13   14 ar 
    18   14   15 ar 
    19   15   16 ar 
    20   16   17 ar 
    21    5   19 1  
    22    6   20 1  
    23    7   21 1  
    24   10   22 1  
    25   11   23 1  
    26   11   24 1  
    27   13   25 1  
    28   14   26 1  
    29   16   27 1  
    30   17   28 1  
    31   18   29 1  
    32   18   30 1  
    33   18   31 1  
@<TRIPOS>SUBSTRUCTURE
     1 SCE         1

