### 
### Created by X-TOOL on Mon Sep 10 21:12:57 2018
### 

@<TRIPOS>MOLECULE
2r3i_ligand
   38    41     1     0     0
SMALL
GAST_HUCK


@<TRIPOS>ATOM
      1 C01        -0.4540   31.5250    8.0940 C.2       1 SCF        -0.0455
      2 C02         0.0870   30.2500    8.2840 C.2       1 SCF         0.1441
      3 N03         1.2260   30.1960    7.4700 N.pl3     1 SCF        -0.1149
      4 N04         1.4580   31.3630    6.8360 N.2       1 SCF        -0.2155
      5 C05         0.4510   32.1780    7.2150 C.2       1 SCF        -0.0230
      6 N06        -0.3280   29.2050    9.0170 N.2       1 SCF        -0.2957
      7 C07         0.4500   28.1340    8.9830 C.2       1 SCF         0.0275
      8 C08         1.6660   28.0510    8.2540 C.2       1 SCF         0.0213
      9 C09         2.0470   29.1240    7.4950 C.2       1 SCF         0.2219
     10 N10         3.1980   29.2270    6.7960 N.pl3     1 SCF        -0.2575
     11 C11         0.0700   26.9870    9.8140 C.ar      1 SCF         0.0350
     12 C12         4.3530   28.4500    7.1930 C.3       1 SCF         0.0765
     13 C13         4.5950   27.3370    6.2500 C.ar      1 SCF         0.0002
     14 C14         4.5140   26.0190    6.6900 C.ar      1 SCF        -0.0304
     15 C15         4.7570   24.9860    5.7550 C.ar      1 SCF         0.0031
     16 N16         5.0310   25.2190    4.4510 N.ar      1 SCF        -0.3066
     17 C17         5.0990   26.5090    4.0500 C.ar      1 SCF         0.0031
     18 C18         4.8550   27.5940    4.9100 C.ar      1 SCF        -0.0304
     19 C19         0.0210   25.6890    9.2610 C.ar      1 SCF        -0.0488
     20 C20        -0.3660   24.5800   10.0230 C.ar      1 SCF        -0.0607
     21 C21        -0.7010   24.7620   11.3620 C.ar      1 SCF        -0.0596
     22 C22        -0.6320   26.0240   11.9530 C.ar      1 SCF        -0.0225
     23 C23        -0.2700   27.1600   11.1820 C.ar      1 SCF         0.1488
     24 F24        -0.2260   28.4050   11.8130 F         1 SCF        -0.1772
     25 H1         -1.3687   31.9290    8.5253 H         1 SCF         0.0194
     26 H2          0.3451   33.2109    6.8867 H         1 SCF         0.0630
     27 H3          2.2814   27.1536    8.2980 H         1 SCF         0.0411
     28 H4          3.2538   29.8566    5.9828 H         1 SCF         0.1973
     29 H5          4.1808   28.0381    8.1983 H         1 SCF         0.0725
     30 H6          5.2372   29.1041    7.2112 H         1 SCF         0.0725
     31 H7          4.2712   25.7904    7.7214 H         1 SCF         0.0652
     32 H8          4.7220   23.9589    6.0997 H         1 SCF         0.0803
     33 H9          5.3536   26.7160    3.0169 H         1 SCF         0.0803
     34 H10         4.8695   28.6109    4.5348 H         1 SCF         0.0652
     35 H11         0.2897   25.5474    8.2204 H         1 SCF         0.0651
     36 H12        -0.4043   23.5930    9.5764 H         1 SCF         0.0595
     37 H13        -1.0199   23.9115   11.9536 H         1 SCF         0.0641
     38 H14        -0.8562   26.1379   13.0074 H         1 SCF         0.0615
@<TRIPOS>BOND
     1    1    2 2  
     2    1    5 1  
     3    2    3 1  
     4    2    6 1  
     5    3    4 1  
     6    3    9 1  
     7    4    5 2  
     8    6    7 2  
     9    7    8 1  
    10    7   11 1  
    11    8    9 2  
    12    9   10 1  
    13   10   12 1  
    14   11   19 ar 
    15   11   23 ar 
    16   12   13 1  
    17   13   14 ar 
    18   13   18 ar 
    19   14   15 ar 
    20   15   16 ar 
    21   16   17 ar 
    22   17   18 ar 
    23   19   20 ar 
    24   20   21 ar 
    25   21   22 ar 
    26   22   23 ar 
    27   23   24 1  
    28    1   25 1  
    29    5   26 1  
    30    8   27 1  
    31   10   28 1  
    32   12   29 1  
    33   12   30 1  
    34   14   31 1  
    35   15   32 1  
    36   17   33 1  
    37   18   34 1  
    38   19   35 1  
    39   20   36 1  
    40   21   37 1  
    41   22   38 1  
@<TRIPOS>SUBSTRUCTURE
     1 SCF         1

