### 
### Created by X-TOOL on Mon Sep 10 21:12:58 2018
### 

@<TRIPOS>MOLECULE
2r3j_ligand
   38    41     1     0     0
SMALL
GAST_HUCK


@<TRIPOS>ATOM
      1 C01        -0.2650   32.0710    8.5400 C.2       1 SCJ         0.0268
      2 C02         0.2890   30.8530    8.8530 C.2       1 SCJ         0.1559
      3 N03         1.4490   30.7730    8.1420 N.pl3     1 SCJ        -0.1109
      4 N04         1.6550   31.9170    7.3860 N.2       1 SCJ        -0.2117
      5 C05         0.6190   32.7020    7.6570 C.2       1 SCJ        -0.0130
      6 N06        -0.1960   29.8790    9.6960 N.2       1 SCJ        -0.2907
      7 C07         0.5330   28.7870    9.8010 C.2       1 SCJ         0.0296
      8 C08         1.7580   28.6500    9.0780 C.2       1 SCJ         0.0239
      9 C09         2.2420   29.6580    8.2470 C.2       1 SCJ         0.2244
     10 N10         3.4080   29.6340    7.5070 N.pl3     1 SCJ        -0.2576
     11 C11         0.0480   27.7290   10.6980 C.ar      1 SCJ         0.0015
     12 C12         4.4700   28.6680    7.8500 C.3       1 SCJ         0.0757
     13 C13         4.6130   27.6790    6.7200 C.ar      1 SCJ         0.0083
     14 C14         4.5850   26.2910    6.9300 C.ar      1 SCJ         0.0146
     15 N15         4.7050   25.3750    5.9610 N.ar      1 SCJ        -0.3043
     16 C16         4.8670   25.8290    4.7140 C.ar      1 SCJ         0.0042
     17 C17         4.9280   27.1820    4.3920 C.ar      1 SCJ        -0.0404
     18 C18         4.7860   28.1190    5.4110 C.ar      1 SCJ        -0.0384
     19 C19        -0.4940   28.0580   11.9460 C.ar      1 SCJ        -0.0471
     20 C20        -0.9570   27.0610   12.8220 C.ar      1 SCJ        -0.0566
     21 C21        -0.8640   25.7210   12.4640 C.ar      1 SCJ        -0.0577
     22 C22        -0.3000   25.3730   11.2320 C.ar      1 SCJ        -0.0566
     23 C23         0.1480   26.3680   10.3580 C.ar      1 SCJ        -0.0471
     24 BR24       -1.8400   32.7670    9.2150 Br        1 SCJ        -0.0940
     25 H1          0.4764   33.7011    7.2479 H         1 SCJ         0.0652
     26 H2          2.3308   27.7294    9.1797 H         1 SCJ         0.0423
     27 H3          3.5357   30.2865    6.7203 H         1 SCJ         0.1974
     28 H4          4.2011   28.1362    8.7746 H         1 SCJ         0.0714
     29 H5          5.4209   29.2011    7.9969 H         1 SCJ         0.0714
     30 H6          4.4575   25.9367    7.9465 H         1 SCJ         0.0766
     31 H7          4.9555   25.1056    3.9115 H         1 SCJ         0.0767
     32 H8          5.0831   27.4995    3.3672 H         1 SCJ         0.0693
     33 H9          4.8099   29.1795    5.1878 H         1 SCJ         0.0679
     34 H10        -0.5577   29.0989   12.2418 H         1 SCJ         0.0663
     35 H11        -1.3871   27.3374   13.7779 H         1 SCJ         0.0629
     36 H12        -1.2262   24.9507   13.1352 H         1 SCJ         0.0651
     37 H13        -0.2101   24.3290   10.9543 H         1 SCJ         0.0629
     38 H14         0.5789   26.0863    9.4040 H         1 SCJ         0.0663
@<TRIPOS>BOND
     1    1    2 2  
     2    1    5 1  
     3    1   24 1  
     4    2    3 1  
     5    2    6 1  
     6    3    4 1  
     7    3    9 1  
     8    4    5 2  
     9    6    7 2  
    10    7    8 1  
    11    7   11 1  
    12    8    9 2  
    13    9   10 1  
    14   10   12 1  
    15   11   19 ar 
    16   11   23 ar 
    17   12   13 1  
    18   13   14 ar 
    19   13   18 ar 
    20   14   15 ar 
    21   15   16 ar 
    22   16   17 ar 
    23   17   18 ar 
    24   19   20 ar 
    25   20   21 ar 
    26   21   22 ar 
    27   22   23 ar 
    28    5   25 1  
    29    8   26 1  
    30   10   27 1  
    31   12   28 1  
    32   12   29 1  
    33   14   30 1  
    34   16   31 1  
    35   17   32 1  
    36   18   33 1  
    37   19   34 1  
    38   20   35 1  
    39   21   36 1  
    40   22   37 1  
    41   23   38 1  
@<TRIPOS>SUBSTRUCTURE
     1 SCJ         1

