### 
### Created by X-TOOL on Mon Sep 10 21:12:57 2018
### 

@<TRIPOS>MOLECULE
2r3k_ligand
   38    41     1     0     0
SMALL
GAST_HUCK


@<TRIPOS>ATOM
      1 C01        -0.3820   31.7800    8.6640 C.2       1 SCQ         0.0098
      2 C02         0.1670   30.5590    8.9710 C.2       1 SCQ         0.0942
      3 N03         1.3800   30.5110    8.3510 N.pl3     1 SCQ        -0.1337
      4 N04         1.6120   31.6870    7.6480 N.2       1 SCQ        -0.2194
      5 C05         0.5380   32.4470    7.8470 C.2       1 SCQ        -0.0188
      6 C06        -0.3240   29.4720    9.7700 C.2       1 SCQ        -0.0374
      7 C07         0.4650   28.3660    9.8910 C.2       1 SCQ        -0.0348
      8 C08         1.7410   28.3370    9.2260 C.2       1 SCQ        -0.0008
      9 C09         2.1990   29.4130    8.4560 C.2       1 SCQ         0.2103
     10 N10         3.4130   29.4610    7.8030 N.pl3     1 SCQ        -0.2642
     11 C11         0.0270   27.1920   10.6960 C.ar      1 SCQ        -0.0212
     12 C12         4.4530   28.5030    8.1630 C.3       1 SCQ         0.0777
     13 C13         4.5160   27.4910    7.0730 C.ar      1 SCQ         0.0330
     14 C14         4.7150   27.8440    5.7340 C.ar      1 SCQ         0.0331
     15 N15         4.7440   26.9450    4.7500 N.ar      1 SCQ        -0.2698
     16 C16         4.5650   25.6710    5.1210 C.ar      1 SCQ         0.0831
     17 N17         4.3350   25.2060    6.3620 N.ar      1 SCQ        -0.2698
     18 C18         4.3210   26.1300    7.3300 C.ar      1 SCQ         0.0331
     19 C19        -0.1020   27.2750   12.0940 C.ar      1 SCQ        -0.0532
     20 C20        -0.5260   26.1620   12.8350 C.ar      1 SCQ        -0.0602
     21 C21        -0.8220   24.9620   12.1870 C.ar      1 SCQ        -0.0609
     22 C22        -0.6960   24.8760   10.7980 C.ar      1 SCQ        -0.0602
     23 C23        -0.2780   25.9880   10.0610 C.ar      1 SCQ        -0.0532
     24 BR24       -2.0210   32.3970    9.2230 Br        1 SCQ        -0.0973
     25 H1          0.3954   33.4444    7.4337 H         1 SCQ         0.0636
     26 H2         -1.2935   29.5286   10.2628 H         1 SCQ         0.0447
     27 H3          2.3685   27.4525    9.3246 H         1 SCQ         0.0394
     28 H4          3.5833   30.1645    7.0702 H         1 SCQ         0.1930
     29 H5          4.2021   28.0149    9.1163 H         1 SCQ         0.0718
     30 H6          5.4215   29.0159    8.2574 H         1 SCQ         0.0718
     31 H7          4.8511   28.8906    5.4866 H         1 SCQ         0.0881
     32 H8          4.6106   24.9299    4.3312 H         1 SCQ         0.1071
     33 H9          4.1521   25.8115    8.3523 H         1 SCQ         0.0881
     34 H10         0.1276   28.2047   12.6020 H         1 SCQ         0.0632
     35 H11        -0.6238   26.2341   13.9122 H         1 SCQ         0.0620
     36 H12        -1.1482   24.1006   12.7585 H         1 SCQ         0.0625
     37 H13        -0.9228   23.9452   10.2909 H         1 SCQ         0.0620
     38 H14        -0.1898   25.9137    8.9831 H         1 SCQ         0.0632
@<TRIPOS>BOND
     1    1    2 2  
     2    1    5 1  
     3    1   24 1  
     4    2    3 1  
     5    2    6 1  
     6    3    4 1  
     7    3    9 1  
     8    4    5 2  
     9    6    7 2  
    10    7    8 1  
    11    7   11 1  
    12    8    9 2  
    13    9   10 1  
    14   10   12 1  
    15   11   19 ar 
    16   11   23 ar 
    17   12   13 1  
    18   13   14 ar 
    19   13   18 ar 
    20   14   15 ar 
    21   15   16 ar 
    22   16   17 ar 
    23   17   18 ar 
    24   19   20 ar 
    25   20   21 ar 
    26   21   22 ar 
    27   22   23 ar 
    28    5   25 1  
    29    6   26 1  
    30    8   27 1  
    31   10   28 1  
    32   12   29 1  
    33   12   30 1  
    34   14   31 1  
    35   16   32 1  
    36   18   33 1  
    37   19   34 1  
    38   20   35 1  
    39   21   36 1  
    40   22   37 1  
    41   23   38 1  
@<TRIPOS>SUBSTRUCTURE
     1 SCQ         1

