### 
### Created by X-TOOL on Mon Sep 10 21:12:57 2018
### 

@<TRIPOS>MOLECULE
2r3l_ligand
   38    41     1     0     0
SMALL
GAST_HUCK


@<TRIPOS>ATOM
      1 C01        -0.2380   32.4840    8.9900 C.2       1 SCW         0.1200
      2 N02         0.3290   31.2830    9.2310 N.pl3     1 SCW        -0.2094
      3 C03         1.4830   31.2310    8.5100 C.2       1 SCW         0.1678
      4 N04         1.6860   32.3760    7.7960 N.2       1 SCW        -0.3358
      5 C05         0.6140   33.1620    8.1100 C.2       1 SCW        -0.0207
      6 C06        -0.1050   30.2270   10.0320 C.2       1 SCW         0.0753
      7 C07         0.6450   29.0810   10.1100 C.2       1 SCW         0.0013
      8 C08         1.8580   28.9920    9.3700 C.2       1 SCW        -0.0384
      9 C09         2.3060   30.0460    8.5660 C.2       1 SCW         0.0927
     10 N10         3.4780   30.0760    7.8630 N.pl3     1 SCW        -0.3068
     11 C11         0.2280   27.9800   11.0170 C.ar      1 SCW        -0.0256
     12 C12         4.5170   29.0810    8.1980 C.3       1 SCW         0.0687
     13 C13         4.5630   28.0330    7.1280 C.ar      1 SCW         0.0316
     14 C14         4.4060   26.6620    7.4060 C.ar      1 SCW         0.0330
     15 N15         4.4410   25.7230    6.4390 N.ar      1 SCW        -0.2698
     16 C16         4.6710   26.1820    5.1890 C.ar      1 SCW         0.0831
     17 N17         4.8420   27.4550    4.8090 N.ar      1 SCW        -0.2698
     18 C18         4.7840   28.3680    5.7850 C.ar      1 SCW         0.0330
     19 C19        -0.3740   28.2700   12.2510 C.ar      1 SCW        -0.0579
     20 C20        -0.7540   27.2360   13.1210 C.ar      1 SCW        -0.0639
     21 C21        -0.5090   25.9080   12.7800 C.ar      1 SCW        -0.0641
     22 C22         0.1190   25.6050   11.5630 C.ar      1 SCW        -0.0639
     23 C23         0.4850   26.6340   10.6880 C.ar      1 SCW        -0.0579
     24 BR24       -1.8380   33.0930    9.6980 Br        1 SCW        -0.0346
     25 H1          0.4465   34.1691    7.7311 H         1 SCW         0.0538
     26 H2         -1.0347   30.3118   10.5928 H         1 SCW         0.1079
     27 H3          2.4518   28.0812    9.4312 H         1 SCW         0.0453
     28 H4          3.6322   30.7730    7.1205 H         1 SCW         0.1790
     29 H5          4.2775   28.6104    9.1630 H         1 SCW         0.0702
     30 H6          5.4951   29.5798    8.2659 H         1 SCW         0.0702
     31 H7          4.2517   26.3505    8.4327 H         1 SCW         0.0881
     32 H8          4.7230   25.4353    4.4049 H         1 SCW         0.1071
     33 H9          4.9136   29.4126    5.5259 H         1 SCW         0.0881
     34 H10        -0.5471   29.3017   12.5349 H         1 SCW         0.0601
     35 H11        -1.2396   27.4718   14.0610 H         1 SCW         0.0611
     36 H12        -0.8028   25.1109   13.4533 H         1 SCW         0.0597
     37 H13         0.3210   24.5730   11.3000 H         1 SCW         0.0611
     38 H14         0.9704   26.3936    9.7490 H         1 SCW         0.0601
@<TRIPOS>BOND
     1    1    2 1  
     2    1    5 2  
     3    1   24 1  
     4    2    3 1  
     5    2    6 1  
     6    3    4 2  
     7    3    9 1  
     8    4    5 1  
     9    6    7 2  
    10    7    8 1  
    11    7   11 1  
    12    8    9 2  
    13    9   10 1  
    14   10   12 1  
    15   11   19 ar 
    16   11   23 ar 
    17   12   13 1  
    18   13   14 ar 
    19   13   18 ar 
    20   14   15 ar 
    21   15   16 ar 
    22   16   17 ar 
    23   17   18 ar 
    24   19   20 ar 
    25   20   21 ar 
    26   21   22 ar 
    27   22   23 ar 
    28    5   25 1  
    29    6   26 1  
    30    8   27 1  
    31   10   28 1  
    32   12   29 1  
    33   12   30 1  
    34   14   31 1  
    35   16   32 1  
    36   18   33 1  
    37   19   34 1  
    38   20   35 1  
    39   21   36 1  
    40   22   37 1  
    41   23   38 1  
@<TRIPOS>SUBSTRUCTURE
     1 SCW         1

