### 
### Created by X-TOOL on Mon Sep 10 21:12:57 2018
### 

@<TRIPOS>MOLECULE
2r3m_ligand
   45    48     1     0     0
SMALL
GAST_HUCK


@<TRIPOS>ATOM
      1 C01        -0.6750   31.1570    8.2220 C.2       1 SCX        -0.0257
      2 C02        -0.1090   29.9570    8.6070 C.2       1 SCX         0.1451
      3 N03         1.1270   29.8800    7.9750 N.pl3     1 SCX        -0.1209
      4 N04         1.3770   30.9910    7.1940 N.2       1 SCX        -0.2207
      5 C05         0.2940   31.7540    7.3650 C.2       1 SCX        -0.0192
      6 N06        -0.5640   28.9690    9.4520 N.2       1 SCX        -0.3024
      7 C07         0.2110   27.9490    9.6250 C.2       1 SCX         0.0239
      8 C08         1.5520   27.7780    8.9910 C.2       1 SCX         0.0170
      9 C09         1.9960   28.7820    8.1990 C.2       1 SCX         0.2172
     10 N10         3.2400   28.8300    7.5860 N.pl3     1 SCX        -0.2608
     11 C11        -0.2180   26.8670   10.5410 C.ar      1 SCX         0.0674
     12 C12         4.4410   28.0740    7.8790 C.3       1 SCX         0.0738
     13 C13         4.5400   26.8800    7.0050 C.ar      1 SCX         0.0190
     14 C14         4.5030   25.6060    7.5170 C.ar      1 SCX         0.0181
     15 N15         4.5570   24.4960    6.7580 N.ar      1 SCX        -0.2605
     16 C16         4.6320   24.6840    5.4280 C.ar      1 SCX         0.1837
     17 N17         4.6710   25.8800    4.8190 N.ar      1 SCX        -0.2605
     18 C18         4.6060   26.9530    5.6180 C.ar      1 SCX         0.0181
     19 C19        -0.3360   27.1440   11.9000 C.ar      1 SCX         0.1467
     20 C20        -0.7560   26.1690   12.8100 C.ar      1 SCX        -0.0270
     21 C21        -1.0380   24.8760   12.3640 C.ar      1 SCX        -0.0617
     22 C22        -0.9130   24.5770   11.0080 C.ar      1 SCX        -0.0270
     23 C23        -0.5110   25.5750   10.1050 C.ar      1 SCX         0.1467
     24 C24        -1.9940   31.7000    8.6330 C.3       1 SCX        -0.0423
     25 N25         4.6680   23.5820    4.6420 N.pl3     1 SCX        -0.3062
     26 C26        -3.1350   30.7520    8.3120 C.3       1 SCX        -0.0626
     27 F27        -0.0790   28.3540   12.3720 F         1 SCX        -0.1788
     28 F28        -0.4140   25.2420    8.8070 F         1 SCX        -0.1788
     29 H1          0.1653   32.7296    6.8985 H         1 SCX         0.0594
     30 H2          2.1483   26.8824    9.1589 H         1 SCX         0.0390
     31 H3          3.3216   29.5012    6.8090 H         1 SCX         0.1964
     32 H4          4.4155   27.7501    8.9299 H         1 SCX         0.0696
     33 H5          5.3195   28.7150    7.7141 H         1 SCX         0.0696
     34 H6          4.4261   25.4881    8.5918 H         1 SCX         0.0840
     35 H7          4.6048   27.9342    5.1571 H         1 SCX         0.0840
     36 H8         -0.8625   26.4164   13.8600 H         1 SCX         0.0580
     37 H9         -1.3513   24.1116   13.0659 H         1 SCX         0.0628
     38 H10        -1.1257   23.5758   10.6511 H         1 SCX         0.0580
     39 H11        -2.1650   32.6500    8.1055 H         1 SCX         0.0322
     40 H12        -1.9793   31.8805    9.7180 H         1 SCX         0.0322
     41 H13         4.6402   22.6446    5.0678 H         1 SCX         0.1805
     42 H14         4.7232   23.6812    3.6183 H         1 SCX         0.1805
     43 H15        -4.0861   31.2002    8.6354 H         1 SCX         0.0241
     44 H16        -2.9801   29.7997    8.8402 H         1 SCX         0.0241
     45 H17        -3.1658   30.5691    7.2278 H         1 SCX         0.0241
@<TRIPOS>BOND
     1    1    2 2  
     2    1    5 1  
     3    1   24 1  
     4    2    3 1  
     5    2    6 1  
     6    3    4 1  
     7    3    9 1  
     8    4    5 2  
     9    6    7 2  
    10    7    8 1  
    11    7   11 1  
    12    8    9 2  
    13    9   10 1  
    14   10   12 1  
    15   11   19 ar 
    16   11   23 ar 
    17   12   13 1  
    18   13   14 ar 
    19   13   18 ar 
    20   14   15 ar 
    21   15   16 ar 
    22   16   17 ar 
    23   16   25 1  
    24   17   18 ar 
    25   19   20 ar 
    26   19   27 1  
    27   20   21 ar 
    28   21   22 ar 
    29   22   23 ar 
    30   23   28 1  
    31   24   26 1  
    32    5   29 1  
    33    8   30 1  
    34   10   31 1  
    35   12   32 1  
    36   12   33 1  
    37   14   34 1  
    38   18   35 1  
    39   20   36 1  
    40   21   37 1  
    41   22   38 1  
    42   24   39 1  
    43   24   40 1  
    44   25   41 1  
    45   25   42 1  
    46   26   43 1  
    47   26   44 1  
    48   26   45 1  
@<TRIPOS>SUBSTRUCTURE
     1 SCX         1

