### 
### Created by X-TOOL on Mon Sep 10 21:12:57 2018
### 

@<TRIPOS>MOLECULE
2r3n_ligand
   45    49     1     0     0
SMALL
GAST_HUCK


@<TRIPOS>ATOM
      1 C01        -0.1700   30.5250    8.2710 C.2       1 SCZ        -0.0213
      2 C02         0.5290   29.3480    8.5070 C.2       1 SCZ         0.1477
      3 N03         1.7200   29.4750    7.7820 N.pl3     1 SCZ        -0.1199
      4 N04         1.7760   30.6710    7.0870 N.2       1 SCZ        -0.2197
      5 C05         0.6430   31.2910    7.4170 C.2       1 SCZ        -0.0181
      6 N06         0.2670   28.2140    9.2250 N.2       1 SCZ        -0.2985
      7 C07         1.2050   27.2610    9.2090 C.2       1 SCZ         0.0246
      8 C08         2.4650   27.3180    8.4680 C.2       1 SCZ         0.0189
      9 C09         2.7000   28.4550    7.7780 C.2       1 SCZ         0.2183
     10 N10         3.8180   28.6980    7.0510 N.pl3     1 SCZ        -0.2594
     11 C11         0.9730   26.0060    9.9700 C.ar      1 SCZ        -0.0011
     12 C12         5.0880   27.9970    7.0580 C.3       1 SCZ         0.0753
     13 C13         5.1230   26.8410    6.0960 C.ar      1 SCZ         0.0082
     14 C14         5.1070   27.0660    4.7330 C.ar      1 SCZ         0.0146
     15 N15         5.1780   26.0770    3.7970 N.ar      1 SCZ        -0.3043
     16 C16         5.2540   24.8120    4.2580 C.ar      1 SCZ         0.0042
     17 C17         5.2490   24.4800    5.6030 C.ar      1 SCZ        -0.0404
     18 C18         5.1790   25.5120    6.5360 C.ar      1 SCZ        -0.0384
     19 C19        -0.3180   25.7130   10.3910 C.ar      1 SCZ        -0.0482
     20 C20        -0.5890   24.5440   11.1080 C.ar      1 SCZ        -0.0574
     21 C21         0.4480   23.6800   11.4450 C.ar      1 SCZ        -0.0584
     22 C22         1.7570   23.9690   11.0290 C.ar      1 SCZ        -0.0574
     23 C23         2.0210   25.1330   10.2880 C.ar      1 SCZ        -0.0482
     24 C24        -1.5310   30.9660    8.7550 C.3       1 SCZ        -0.0269
     25 C25        -2.5240   29.9570    9.2420 C.3       1 SCZ        -0.0464
     26 C26        -1.8880   30.9270   10.2160 C.3       1 SCZ        -0.0464
     27 H1          0.3754   32.2854    7.0627 H         1 SCZ         0.0596
     28 H2          3.1732   26.4907    8.4725 H         1 SCZ         0.0398
     29 H3          3.7570   29.4943    6.4006 H         1 SCZ         0.1967
     30 H4          5.2726   27.6149    8.0728 H         1 SCZ         0.0713
     31 H5          5.8823   28.7066    6.7832 H         1 SCZ         0.0713
     32 H6          5.0336   28.0906    4.3868 H         1 SCZ         0.0766
     33 H7          5.3230   24.0081    3.5340 H         1 SCZ         0.0767
     34 H8          5.2982   23.4448    5.9209 H         1 SCZ         0.0693
     35 H9          5.1679   25.2881    7.5966 H         1 SCZ         0.0679
     36 H10        -1.1250   26.3992   10.1607 H         1 SCZ         0.0657
     37 H11        -1.6063   24.3109   11.4012 H         1 SCZ         0.0627
     38 H12         0.2460   22.7876   12.0263 H         1 SCZ         0.0645
     39 H13         2.5660   23.2926   11.2800 H         1 SCZ         0.0627
     40 H14         3.0314   25.3545    9.9638 H         1 SCZ         0.0657
     41 H15        -1.8726   31.8110    8.1391 H         1 SCZ         0.0361
     42 H16        -2.2551   28.8908    9.2727 H         1 SCZ         0.0280
     43 H17        -3.5870   30.0596    8.9784 H         1 SCZ         0.0280
     44 H18        -2.4872   31.7361   10.6591 H         1 SCZ         0.0280
     45 H19        -1.1553   30.5673   10.9534 H         1 SCZ         0.0280
@<TRIPOS>BOND
     1    1    2 2  
     2    1    5 1  
     3    1   24 1  
     4    2    3 1  
     5    2    6 1  
     6    3    4 1  
     7    3    9 1  
     8    4    5 2  
     9    6    7 2  
    10    7    8 1  
    11    7   11 1  
    12    8    9 2  
    13    9   10 1  
    14   10   12 1  
    15   11   19 ar 
    16   11   23 ar 
    17   12   13 1  
    18   13   14 ar 
    19   13   18 ar 
    20   14   15 ar 
    21   15   16 ar 
    22   16   17 ar 
    23   17   18 ar 
    24   19   20 ar 
    25   20   21 ar 
    26   21   22 ar 
    27   22   23 ar 
    28   24   25 1  
    29   24   26 1  
    30   25   26 1  
    31    5   27 1  
    32    8   28 1  
    33   10   29 1  
    34   12   30 1  
    35   12   31 1  
    36   14   32 1  
    37   16   33 1  
    38   17   34 1  
    39   18   35 1  
    40   19   36 1  
    41   20   37 1  
    42   21   38 1  
    43   22   39 1  
    44   23   40 1  
    45   24   41 1  
    46   25   42 1  
    47   25   43 1  
    48   26   44 1  
    49   26   45 1  
@<TRIPOS>SUBSTRUCTURE
     1 SCZ         1

