### 
### Created by X-TOOL on Mon Sep 10 21:12:57 2018
### 

@<TRIPOS>MOLECULE
2r3o_ligand
   42    45     1     0     0
SMALL
GAST_HUCK


@<TRIPOS>ATOM
      1 C01        -0.0540   30.2160    7.7490 C.2       1 2SC         0.0007
      2 C02         0.6020   28.9950    7.8950 C.2       1 2SC         0.1496
      3 N03         1.7780   29.0840    7.1770 N.pl3     1 2SC        -0.1198
      4 N04         1.9170   30.3150    6.5840 N.2       1 2SC        -0.2196
      5 C05         0.8220   30.9850    6.9580 C.2       1 2SC        -0.0162
      6 N06         0.2480   27.8560    8.5870 N.2       1 2SC        -0.2984
      7 C07         1.0980   26.8520    8.5280 C.2       1 2SC         0.0246
      8 C08         2.3780   26.8690    7.7730 C.2       1 2SC         0.0189
      9 C09         2.6950   28.0040    7.1190 C.2       1 2SC         0.2183
     10 N10         3.8440   28.2050    6.3850 N.pl3     1 2SC        -0.2594
     11 C11         0.8040   25.5880    9.2790 C.ar      1 2SC        -0.0011
     12 C12         5.0900   27.4830    6.4370 C.3       1 2SC         0.0753
     13 C13         5.1650   26.4260    5.3850 C.ar      1 2SC         0.0082
     14 C14         5.4210   26.7710    4.0640 C.ar      1 2SC         0.0146
     15 N15         5.5310   25.8790    3.0490 N.ar      1 2SC        -0.3043
     16 C16         5.3490   24.5760    3.3650 C.ar      1 2SC         0.0042
     17 C17         5.0690   24.1300    4.6540 C.ar      1 2SC        -0.0404
     18 C18         5.0000   25.0710    5.6700 C.ar      1 2SC        -0.0384
     19 C19        -0.5290   25.2590    9.5360 C.ar      1 2SC        -0.0482
     20 C20        -0.8380   24.0870   10.2480 C.ar      1 2SC        -0.0574
     21 C21         0.1860   23.2520   10.7070 C.ar      1 2SC        -0.0584
     22 C22         1.5250   23.5760   10.4510 C.ar      1 2SC        -0.0574
     23 C23         1.8350   24.7470    9.7380 C.ar      1 2SC        -0.0482
     24 C24        -1.3830   30.6080    8.2920 C.3       1 2SC         0.0589
     25 O25        -1.3460   30.9080    9.6870 O.3       1 2SC        -0.3910
     26 H1          0.6272   32.0196    6.6795 H         1 2SC         0.0597
     27 H2          3.0333   25.9995    7.7492 H         1 2SC         0.0398
     28 H3          3.8070   28.9781    5.7054 H         1 2SC         0.1967
     29 H4          5.1854   27.0089    7.4250 H         1 2SC         0.0713
     30 H5          5.9182   28.1916    6.2888 H         1 2SC         0.0713
     31 H6          5.5407   27.8225    3.8293 H         1 2SC         0.0766
     32 H7          5.4252   23.8402    2.5726 H         1 2SC         0.0767
     33 H8          4.9095   23.0773    4.8574 H         1 2SC         0.0693
     34 H9          4.8171   24.7521    6.6898 H         1 2SC         0.0679
     35 H10        -1.3246   25.9070    9.1866 H         1 2SC         0.0657
     36 H11        -1.8730   23.8296   10.4419 H         1 2SC         0.0627
     37 H12        -0.0567   22.3528   11.2616 H         1 2SC         0.0645
     38 H13         2.3187   22.9261   10.8014 H         1 2SC         0.0627
     39 H14         2.8699   25.0028    9.5413 H         1 2SC         0.0657
     40 H15        -2.0871   29.7785    8.1299 H         1 2SC         0.0618
     41 H16        -1.7347   31.4986    7.7506 H         1 2SC         0.0618
     42 H17        -2.2162   31.1510    9.9807 H         1 2SC         0.2110
@<TRIPOS>BOND
     1    1    2 2  
     2    1    5 1  
     3    1   24 1  
     4    2    3 1  
     5    2    6 1  
     6    3    4 1  
     7    3    9 1  
     8    4    5 2  
     9    6    7 2  
    10    7    8 1  
    11    7   11 1  
    12    8    9 2  
    13    9   10 1  
    14   10   12 1  
    15   11   19 ar 
    16   11   23 ar 
    17   12   13 1  
    18   13   14 ar 
    19   13   18 ar 
    20   14   15 ar 
    21   15   16 ar 
    22   16   17 ar 
    23   17   18 ar 
    24   19   20 ar 
    25   20   21 ar 
    26   21   22 ar 
    27   22   23 ar 
    28   24   25 1  
    29    5   26 1  
    30    8   27 1  
    31   10   28 1  
    32   12   29 1  
    33   12   30 1  
    34   14   31 1  
    35   16   32 1  
    36   17   33 1  
    37   18   34 1  
    38   19   35 1  
    39   20   36 1  
    40   21   37 1  
    41   22   38 1  
    42   23   39 1  
    43   24   40 1  
    44   24   41 1  
    45   25   42 1  
@<TRIPOS>SUBSTRUCTURE
     1 2SC         1

