### 
### Created by X-TOOL on Mon Sep 10 21:12:57 2018
### 

@<TRIPOS>MOLECULE
2r3p_ligand
   40    43     1     0     0
SMALL
GAST_HUCK


@<TRIPOS>ATOM
      1 C01        -0.5810   31.1270    8.0390 C.2       1 3SC         0.0754
      2 C02        -0.0020   29.9290    8.3680 C.2       1 3SC         0.1639
      3 N03         1.2540   29.9240    7.7520 N.pl3     1 3SC        -0.1176
      4 N04         1.4920   31.0930    7.0480 N.2       1 3SC        -0.2175
      5 C05         0.3720   31.8130    7.2310 C.2       1 3SC        -0.0022
      6 N06        -0.4570   28.8830    9.1120 N.2       1 3SC        -0.2967
      7 C07         0.3260   27.8810    9.2430 C.2       1 3SC         0.0254
      8 C08         1.6890   27.7740    8.6560 C.2       1 3SC         0.0193
      9 C09         2.1180   28.8340    7.9120 C.2       1 3SC         0.2190
     10 N10         3.3520   28.9230    7.2900 N.pl3     1 3SC        -0.2584
     11 C11        -0.0920   26.7310   10.0770 C.ar      1 3SC         0.0133
     12 C12         4.5130   28.1090    7.5410 C.3       1 3SC         0.0763
     13 C13         4.5340   26.9870    6.5510 C.ar      1 3SC         0.0001
     14 C14         4.6210   27.2420    5.1860 C.ar      1 3SC        -0.0304
     15 C15         4.6350   26.1670    4.3250 C.ar      1 3SC         0.0031
     16 N16         4.5740   24.8620    4.7160 N.ar      1 3SC        -0.3066
     17 C17         4.4890   24.6380    6.0300 C.ar      1 3SC         0.0031
     18 C18         4.4700   25.6540    6.9830 C.ar      1 3SC        -0.0304
     19 C19        -0.3660   26.8890   11.4490 C.ar      1 3SC         0.0684
     20 C20        -0.7420   25.7770   12.2100 C.ar      1 3SC         0.0587
     21 C21        -0.8360   24.5290   11.6070 C.ar      1 3SC        -0.0440
     22 C22        -0.5690   24.3790   10.2520 C.ar      1 3SC        -0.0568
     23 C23        -0.1860   25.4750    9.4780 C.ar      1 3SC        -0.0477
     24 S24        -2.1600   31.7240    8.5020 S.3       1 3SC         0.0651
     25 C25        -2.8430   30.3170    9.2150 C.1       1 3SC         0.1645
     26 N26        -3.2780   29.3170    9.7170 N.1       1 3SC        -0.3414
     27 CL27       -0.2490   28.4220   12.1690 Cl        1 3SC        -0.0648
     28 CL28       -1.0860   25.8570   13.9010 Cl        1 3SC        -0.0691
     29 H1          0.2113   32.8048    6.8110 H         1 3SC         0.0614
     30 H2          2.3122   26.8947    8.8122 H         1 3SC         0.0401
     31 H3          3.4502   29.6515    6.5685 H         1 3SC         0.1969
     32 H4          4.4660   27.7015    8.5616 H         1 3SC         0.0724
     33 H5          5.4228   28.7174    7.4306 H         1 3SC         0.0724
     34 H6          4.6762   28.2575    4.8109 H         1 3SC         0.0652
     35 H7          4.6990   26.3726    3.2626 H         1 3SC         0.0803
     36 H8          4.4318   23.6113    6.3730 H         1 3SC         0.0803
     37 H9          4.4069   25.4187    8.0393 H         1 3SC         0.0652
     38 H10        -1.1198   23.6659   12.1982 H         1 3SC         0.0651
     39 H11        -0.6590   23.4017    9.7918 H         1 3SC         0.0628
     40 H12         0.0358   25.3518    8.4241 H         1 3SC         0.0659
@<TRIPOS>BOND
     1    1    2 2  
     2    1    5 1  
     3    1   24 1  
     4    2    3 1  
     5    2    6 1  
     6    3    4 1  
     7    3    9 1  
     8    4    5 2  
     9    6    7 2  
    10    7    8 1  
    11    7   11 1  
    12    8    9 2  
    13    9   10 1  
    14   10   12 1  
    15   11   19 ar 
    16   11   23 ar 
    17   12   13 1  
    18   13   14 ar 
    19   13   18 ar 
    20   14   15 ar 
    21   15   16 ar 
    22   16   17 ar 
    23   17   18 ar 
    24   19   20 ar 
    25   19   27 1  
    26   20   21 ar 
    27   20   28 1  
    28   21   22 ar 
    29   22   23 ar 
    30   24   25 1  
    31   25   26 3  
    32    5   29 1  
    33    8   30 1  
    34   10   31 1  
    35   12   32 1  
    36   12   33 1  
    37   14   34 1  
    38   15   35 1  
    39   17   36 1  
    40   18   37 1  
    41   21   38 1  
    42   22   39 1  
    43   23   40 1  
@<TRIPOS>SUBSTRUCTURE
     1 3SC         1

