### 
### Created by X-TOOL on Mon Sep 10 21:12:57 2018
### 

@<TRIPOS>MOLECULE
2r3t_ligand
   79    83     1     0     0
SMALL
GAST_HUCK


@<TRIPOS>ATOM
      1 C1         -8.8560   15.2040  -14.5190 C.ar      1 G4G        -0.0401
      2 O2        -16.6750   24.2070  -22.0810 O.2       1 G4G        -0.3849
      3 N2         -5.3090   14.6220  -15.4730 N.am      1 G4G        -0.3001
      4 C2        -14.0280   23.7510  -21.1890 C.ar      1 G4G        -0.0401
      5 O1         -6.9840   13.1880  -15.0080 O.2       1 G4G        -0.3849
      6 N1        -17.1320   25.4280  -20.2760 N.am      1 G4G        -0.3001
      7 C3         -7.2560   16.7100  -15.6670 C.ar      1 G4G        -0.0401
      8 C4         -7.5770   15.4330  -15.1340 C.ar      1 G4G         0.0498
      9 C5        -15.0750   23.7590  -18.9610 C.ar      1 G4G        -0.0401
     10 C6        -15.0980   24.0630  -20.3340 C.ar      1 G4G         0.0498
     11 C7        -13.2480   18.2880  -15.1280 C.3       1 G4G         0.0639
     12 C8        -16.3710   24.5780  -20.9630 C.2       1 G4G         0.2025
     13 S8        -10.5910   18.8980  -14.8950 S.o2      1 G4G         0.0746
     14 C9         -6.6000   14.3370  -15.2080 C.2       1 G4G         0.2025
     15 S9        -11.3000   22.2570  -18.5320 S.o2      1 G4G         0.0746
     16 O10       -10.0180   20.0970  -15.4980 O.2       1 G4G        -0.1494
     17 O11       -11.4040   22.5550  -17.1220 O.2       1 G4G        -0.1494
     18 C12       -14.0340   19.6180  -14.9870 C.ar      1 G4G        -0.0244
     19 C13       -13.3550   20.7890  -14.5110 C.ar      1 G4G        -0.0588
     20 C14       -15.4240   19.6830  -15.3130 C.ar      1 G4G        -0.0588
     21 C17        -9.8060   16.2640  -14.4470 C.ar      1 G4G        -0.0295
     22 C18       -12.8310   23.2050  -20.6520 C.ar      1 G4G        -0.0295
     23 C19        -8.2030   17.7640  -15.5770 C.ar      1 G4G        -0.0295
     24 C20       -13.8760   23.2230  -18.4170 C.ar      1 G4G        -0.0295
     25 C21       -12.3390   17.4940  -18.1480 C.3       1 G4G        -0.0110
     26 N22       -13.7340   17.9410  -18.4250 N.4       1 G4G         0.2298
     27 C23       -11.7160   18.6200  -17.3100 C.3       1 G4G         0.1075
     28 C24       -12.4380   19.9220  -17.8440 C.3       1 G4G         0.1075
     29 C25       -13.7880   19.4270  -18.4500 C.3       1 G4G        -0.0110
     30 C26        -9.4750   17.5470  -14.9670 C.ar      1 G4G         0.1128
     31 C27       -12.7730   22.9430  -19.2640 C.ar      1 G4G         0.1128
     32 N28       -11.9680   18.5480  -15.8340 N.am      1 G4G        -0.2123
     33 C29       -14.1250   21.9950  -14.4160 C.ar      1 G4G        -0.0685
     34 C30       -16.1880   20.8870  -15.2230 C.ar      1 G4G        -0.0685
     35 C31       -15.5070   22.0490  -14.7570 C.ar      1 G4G        -0.0687
     36 N32       -11.5950   20.6110  -18.8790 N.am      1 G4G        -0.2123
     37 C33       -11.1050   19.9900  -20.1360 C.3       1 G4G         0.0639
     38 C34        -9.7930   19.2250  -20.0450 C.ar      1 G4G        -0.0244
     39 C35        -8.8670   19.5250  -19.0210 C.ar      1 G4G        -0.0588
     40 C36        -7.6590   18.7640  -18.9940 C.ar      1 G4G        -0.0685
     41 C37        -7.4070   17.7830  -19.9920 C.ar      1 G4G        -0.0687
     42 C38        -9.5610   18.2190  -21.0240 C.ar      1 G4G        -0.0588
     43 C39        -8.3600   17.4650  -20.9910 C.ar      1 G4G        -0.0685
     44 O40       -10.2400   22.7050  -19.4280 O.2       1 G4G        -0.1494
     45 O41       -11.0080   18.9390  -13.4720 O.2       1 G4G        -0.1494
     46 H1         -9.0970   14.2288  -14.1116 H         1 G4G         0.0670
     47 H2         -5.0283   15.5686  -15.6314 H         1 G4G         0.1808
     48 H3         -4.6323   13.8867  -15.5112 H         1 G4G         0.1808
     49 H4        -14.1152   23.9262  -22.2552 H         1 G4G         0.0670
     50 H5        -16.8573   25.7159  -19.3586 H         1 G4G         0.1808
     51 H6        -17.9782   25.7784  -20.6776 H         1 G4G         0.1808
     52 H7         -6.2949   16.8786  -16.1391 H         1 G4G         0.0670
     53 H8        -15.9449   23.9282  -18.3367 H         1 G4G         0.0670
     54 H9        -13.8459   17.5670  -15.7046 H         1 G4G         0.0641
     55 H10       -13.0399   17.8763  -14.1294 H         1 G4G         0.0641
     56 H11       -12.3069   20.7632  -14.2355 H         1 G4G         0.0557
     57 H12       -15.9210   18.7781  -15.6434 H         1 G4G         0.0557
     58 H13       -10.7776   16.0937  -13.9976 H         1 G4G         0.0649
     59 H14       -11.9818   22.9942  -21.2920 H         1 G4G         0.0649
     60 H15        -7.9578   18.7420  -15.9750 H         1 G4G         0.0649
     61 H16       -13.8044   23.0279  -17.3531 H         1 G4G         0.0649
     62 H17       -11.7831   17.3593  -19.0876 H         1 G4G         0.0833
     63 H18       -12.3411   16.5493  -17.5844 H         1 G4G         0.0833
     64 H19       -14.3463   17.5955  -17.7027 H         1 G4G         0.2015
     65 H20       -14.0306   17.5798  -19.3181 H         1 G4G         0.2015
     66 H21       -10.6311   18.6585  -17.4874 H         1 G4G         0.0590
     67 H22       -12.6286   20.6187  -17.0144 H         1 G4G         0.0590
     68 H23       -14.6327   19.7881  -17.8449 H         1 G4G         0.0833
     69 H24       -13.8968   19.7873  -19.4836 H         1 G4G         0.0833
     70 H25       -13.6370   22.8996  -14.0717 H         1 G4G         0.0599
     71 H26       -17.2366   20.9153  -15.4964 H         1 G4G         0.0599
     72 H27       -16.0467   22.9842  -14.6610 H         1 G4G         0.0559
     73 H28       -10.9740   20.7924  -20.8770 H         1 G4G         0.0641
     74 H29       -11.8773   19.2896  -20.4866 H         1 G4G         0.0641
     75 H30        -9.0648   20.2988  -18.2881 H         1 G4G         0.0557
     76 H31        -6.9309   18.9349  -18.2093 H         1 G4G         0.0599
     77 H32        -6.4563   17.2623  -19.9884 H         1 G4G         0.0559
     78 H33       -10.3005   18.0292  -21.7935 H         1 G4G         0.0557
     79 H34        -8.1773   16.6715  -21.7066 H         1 G4G         0.0599
@<TRIPOS>BOND
     1    1    8 ar 
     2   21    1 ar 
     3   12    2 2  
     4   14    3 am 
     5    4   10 ar 
     6   22    4 ar 
     7   14    5 2  
     8   12    6 am 
     9    7    8 ar 
    10   23    7 ar 
    11    8   14 1  
    12    9   10 ar 
    13   24    9 ar 
    14   10   12 1  
    15   11   18 1  
    16   32   11 1  
    17   13   16 2  
    18   13   30 1  
    19   32   13 am 
    20   13   45 2  
    21   15   17 2  
    22   15   31 1  
    23   36   15 am 
    24   15   44 2  
    25   18   19 ar 
    26   18   20 ar 
    27   19   33 ar 
    28   20   34 ar 
    29   30   21 ar 
    30   31   22 ar 
    31   30   23 ar 
    32   31   24 ar 
    33   26   25 1  
    34   27   25 1  
    35   29   26 1  
    36   28   27 1  
    37   27   32 1  
    38   28   29 1  
    39   28   36 1  
    40   33   35 ar 
    41   34   35 ar 
    42   36   37 1  
    43   37   38 1  
    44   38   39 ar 
    45   38   42 ar 
    46   39   40 ar 
    47   40   41 ar 
    48   41   43 ar 
    49   42   43 ar 
    50    1   46 1  
    51    3   47 1  
    52    3   48 1  
    53    4   49 1  
    54    6   50 1  
    55    6   51 1  
    56    7   52 1  
    57    9   53 1  
    58   11   54 1  
    59   11   55 1  
    60   19   56 1  
    61   20   57 1  
    62   21   58 1  
    63   22   59 1  
    64   23   60 1  
    65   24   61 1  
    66   25   62 1  
    67   25   63 1  
    68   26   64 1  
    69   26   65 1  
    70   27   66 1  
    71   28   67 1  
    72   29   68 1  
    73   29   69 1  
    74   33   70 1  
    75   34   71 1  
    76   35   72 1  
    77   37   73 1  
    78   37   74 1  
    79   39   75 1  
    80   40   76 1  
    81   41   77 1  
    82   42   78 1  
    83   43   79 1  
@<TRIPOS>SUBSTRUCTURE
     1 G4G         1

