### 
### Created by X-TOOL on Mon Sep 10 21:12:58 2018
### 

@<TRIPOS>MOLECULE
2r3w_ligand
   75    79     1     0     0
SMALL
GAST_HUCK


@<TRIPOS>ATOM
      1 C2        -14.3310  -23.7390   21.5950 C.ar      1 G3G        -0.0429
      2 C6        -15.3530  -24.1980   20.7420 C.ar      1 G3G         0.0353
      3 C5        -15.1890  -24.1640   19.3370 C.ar      1 G3G        -0.0429
      4 C20       -13.9890  -23.6390   18.7890 C.ar      1 G3G        -0.0471
      5 C27       -12.9540  -23.1730   19.6370 C.ar      1 G3G         0.0951
      6 C18       -13.1220  -23.2360   21.0450 C.ar      1 G3G        -0.0471
      7 S9        -11.4530  -22.5260   18.9190 S.o2      1 G3G         0.0669
      8 O40       -10.4410  -22.9580   19.8640 O.2       1 G3G        -0.1516
      9 O11       -11.4620  -22.8280   17.4980 O.2       1 G3G        -0.1516
     10 N32       -11.7850  -20.8490   19.1690 N.am      1 G3G        -0.2141
     11 C33       -11.3140  -20.2390   20.4480 C.3       1 G3G         0.0637
     12 C34       -10.0190  -19.4370   20.3320 C.ar      1 G3G        -0.0244
     13 C38        -9.7610  -18.3880   21.2570 C.ar      1 G3G        -0.0588
     14 C39        -8.5750  -17.6190   21.1800 C.ar      1 G3G        -0.0685
     15 C37        -7.6360  -17.9210   20.1580 C.ar      1 G3G        -0.0687
     16 C36        -7.8860  -18.9840   19.2400 C.ar      1 G3G        -0.0685
     17 C35        -9.0850  -19.7410   19.3130 C.ar      1 G3G        -0.0588
     18 C24       -12.7230  -20.1930   18.1790 C.3       1 G3G         0.1074
     19 C25       -13.9960  -19.5630   18.7900 C.3       1 G3G        -0.0110
     20 N22       -13.9390  -18.0960   18.5460 N.4       1 G3G         0.2298
     21 C21       -12.5240  -17.7280   18.2390 C.3       1 G3G        -0.0110
     22 C23       -11.9750  -18.9730   17.4930 C.3       1 G3G         0.1074
     23 N28       -12.2670  -18.8910   16.0220 N.am      1 G3G        -0.2141
     24 C7        -13.5820  -18.7510   15.3710 C.3       1 G3G         0.0637
     25 C12       -14.4510  -20.0070   15.3450 C.ar      1 G3G        -0.0244
     26 C14       -15.8720  -19.8700   15.4540 C.ar      1 G3G        -0.0588
     27 C30       -16.7360  -21.0020   15.4180 C.ar      1 G3G        -0.0685
     28 C31       -16.1640  -22.3050   15.2970 C.ar      1 G3G        -0.0687
     29 C29       -14.7490  -22.4520   15.2100 C.ar      1 G3G        -0.0685
     30 C13       -13.8860  -21.3130   15.2250 C.ar      1 G3G        -0.0588
     31 S8        -10.9520  -19.2580   15.0260 S.o2      1 G3G         0.0669
     32 C26        -9.8450  -17.8890   15.0500 C.ar      1 G3G         0.0951
     33 C17       -10.0740  -16.6150   14.4640 C.ar      1 G3G        -0.0471
     34 C1         -9.1040  -15.5650   14.5650 C.ar      1 G3G        -0.0429
     35 C4         -7.8480  -15.8000   15.2330 C.ar      1 G3G         0.0353
     36 C3         -7.6070  -17.0790   15.8220 C.ar      1 G3G        -0.0429
     37 C19        -8.6140  -18.0850   15.7680 C.ar      1 G3G        -0.0471
     38 O41       -11.4410  -19.4500   13.6470 O.2       1 G3G        -0.1516
     39 O10       -10.2500  -20.4100   15.6160 O.2       1 G3G        -0.1516
     40 N42        -6.8850  -14.8540   15.3160 N.pl3     1 G3G        -0.3369
     41 N43       -16.4950  -24.6810   21.2640 N.pl3     1 G3G        -0.3369
     42 H1        -14.4668  -23.7695   22.6700 H         1 G3G         0.0515
     43 H2        -15.9718  -24.5351   18.6854 H         1 G3G         0.0515
     44 H3        -13.8637  -23.5943   17.7132 H         1 G3G         0.0602
     45 H4        -12.3271  -22.9000   21.7009 H         1 G3G         0.0602
     46 H5        -11.1520  -21.0486   21.1749 H         1 G3G         0.0641
     47 H6        -12.1019  -19.5664   20.8178 H         1 G3G         0.0641
     48 H7        -10.4852  -18.1736   22.0346 H         1 G3G         0.0557
     49 H8         -8.3876  -16.8175   21.8853 H         1 G3G         0.0599
     50 H9         -6.7243  -17.3405   20.0751 H         1 G3G         0.0559
     51 H10        -7.1516  -19.2166   18.4774 H         1 G3G         0.0599
     52 H11        -9.2811  -20.5359   18.6025 H         1 G3G         0.0557
     53 H12       -13.0132  -20.9418   17.4273 H         1 G3G         0.0590
     54 H13       -14.0298  -19.7615   19.8714 H         1 G3G         0.0833
     55 H14       -14.8906  -19.9876   18.3111 H         1 G3G         0.0833
     56 H15       -14.2496  -17.6012   19.3674 H         1 G3G         0.2015
     57 H16       -14.5306  -17.8567   17.7658 H         1 G3G         0.2015
     58 H17       -11.9572  -17.5429   19.1634 H         1 G3G         0.0833
     59 H18       -12.4809  -16.8355   17.5975 H         1 G3G         0.0833
     60 H19       -10.8881  -19.0610   17.6373 H         1 G3G         0.0590
     61 H20       -13.4113  -18.4378   14.3304 H         1 G3G         0.0641
     62 H21       -14.1397  -17.9664   15.9033 H         1 G3G         0.0641
     63 H22       -16.3008  -18.8808   15.5667 H         1 G3G         0.0557
     64 H23       -17.8108  -20.8764   15.4815 H         1 G3G         0.0599
     65 H24       -16.8040  -23.1795   15.2714 H         1 G3G         0.0559
     66 H25       -14.3202  -23.4445   15.1311 H         1 G3G         0.0599
     67 H26       -12.8123  -21.4393   15.1460 H         1 G3G         0.0557
     68 H27       -11.0000  -16.4339   13.9304 H         1 G3G         0.0602
     69 H28        -9.3151  -14.5913   14.1380 H         1 G3G         0.0515
     70 H29        -6.6602  -17.2834   16.3088 H         1 G3G         0.0515
     71 H30        -8.4480  -19.0246   16.2824 H         1 G3G         0.0602
     72 H31        -7.0382  -13.9251   14.8982 H         1 G3G         0.1719
     73 H32        -5.9984  -15.0624   15.7971 H         1 G3G         0.1719
     74 H33       -16.6227  -24.7094   22.2857 H         1 G3G         0.1719
     75 H34       -17.2416  -25.0224   20.6420 H         1 G3G         0.1719
@<TRIPOS>BOND
     1    1    2 ar 
     2    1    6 ar 
     3    2    3 ar 
     4    2   41 1  
     5    3    4 ar 
     6    4    5 ar 
     7    5    6 ar 
     8    5    7 1  
     9    7    8 2  
    10    7    9 2  
    11    7   10 am 
    12   10   11 1  
    13   10   18 1  
    14   11   12 1  
    15   12   13 ar 
    16   12   17 ar 
    17   13   14 ar 
    18   14   15 ar 
    19   15   16 ar 
    20   16   17 ar 
    21   18   19 1  
    22   18   22 1  
    23   19   20 1  
    24   20   21 1  
    25   21   22 1  
    26   22   23 1  
    27   23   24 1  
    28   23   31 am 
    29   24   25 1  
    30   25   26 ar 
    31   25   30 ar 
    32   26   27 ar 
    33   27   28 ar 
    34   28   29 ar 
    35   29   30 ar 
    36   31   32 1  
    37   31   38 2  
    38   31   39 2  
    39   32   33 ar 
    40   32   37 ar 
    41   33   34 ar 
    42   34   35 ar 
    43   35   36 ar 
    44   35   40 1  
    45   36   37 ar 
    46    1   42 1  
    47    3   43 1  
    48    4   44 1  
    49    6   45 1  
    50   11   46 1  
    51   11   47 1  
    52   13   48 1  
    53   14   49 1  
    54   15   50 1  
    55   16   51 1  
    56   17   52 1  
    57   18   53 1  
    58   19   54 1  
    59   19   55 1  
    60   20   56 1  
    61   20   57 1  
    62   21   58 1  
    63   21   59 1  
    64   22   60 1  
    65   24   61 1  
    66   24   62 1  
    67   26   63 1  
    68   27   64 1  
    69   28   65 1  
    70   29   66 1  
    71   30   67 1  
    72   33   68 1  
    73   34   69 1  
    74   36   70 1  
    75   37   71 1  
    76   40   72 1  
    77   40   73 1  
    78   41   74 1  
    79   41   75 1  
@<TRIPOS>SUBSTRUCTURE
     1 G3G         1

