### 
### Created by X-TOOL on Mon Sep 10 21:12:56 2018
### 

@<TRIPOS>MOLECULE
2r3y_ligand
   84    87     1     0     0
SMALL
GAST_HUCK


@<TRIPOS>ATOM
      1 N          78.5220   24.1470   12.9790 N.4       1 VAL         0.2381
      2 CA         79.7540   24.0550   13.8150 C.3       1 VAL         0.0673
      3 C          80.9240   23.5490   12.9780 C.2       1 VAL         0.2271
      4 O          80.8340   22.4980   12.3420 O.2       1 VAL        -0.3907
      5 CB         79.5480   23.0960   15.0090 C.3       1 VAL         0.0139
      6 CG1        80.7680   23.1210   15.9160 C.3       1 VAL        -0.0553
      7 CG2        78.3000   23.4910   15.7810 C.3       1 VAL        -0.0553
      8 N          82.0190   24.3040   12.9830 N.am      1 TYR        -0.2594
      9 CA         83.2110   23.9410   12.2220 C.3       1 TYR         0.1391
     10 C          84.4250   23.6950   13.1200 C.2       1 TYR         0.2058
     11 O          84.4140   24.0240   14.3090 O.2       1 TYR        -0.3942
     12 CB         83.5430   25.0420   11.2030 C.3       1 TYR         0.0164
     13 CG         82.6270   25.1020    9.9930 C.ar      1 TYR        -0.0493
     14 CD1        82.8510   26.0310    8.9760 C.ar      1 TYR        -0.0685
     15 CD2        81.5510   24.2230    9.8510 C.ar      1 TYR        -0.0685
     16 CE1        82.0310   26.0820    7.8480 C.ar      1 TYR        -0.0398
     17 CE2        80.7240   24.2670    8.7270 C.ar      1 TYR        -0.0398
     18 CZ         80.9710   25.1990    7.7310 C.ar      1 TYR         0.0805
     19 OH         80.1630   25.2490    6.6180 O.3       1 TYR        -0.3376
     20 N          85.4680   23.1060   12.5400 N.am      1 TRP        -0.2625
     21 CA         86.7040   22.8220   13.2630 C.3       1 TRP         0.1351
     22 C          87.9290   23.0480   12.3710 C.2       1 TRP         0.2047
     23 O          88.4880   22.1070   11.8090 O.2       1 TRP        -0.3943
     24 CB         86.6990   21.3810   13.8110 C.3       1 TRP         0.0042
     25 CG         86.2650   20.2980   12.8360 C.2       1 TRP        -0.0418
     26 CD1        86.4290   20.2950   11.4810 C.2       1 TRP         0.0167
     27 CD2        85.6600   19.0380   13.1650 C.ar      1 TRP        -0.0214
     28 NE1        85.9690   19.1160   10.9440 N.pl3     1 TRP        -0.2890
     29 CE2        85.4900   18.3260   11.9550 C.ar      1 TRP         0.0603
     30 CE3        85.2450   18.4410   14.3640 C.ar      1 TRP        -0.0747
     31 CZ2        84.9250   17.0460   11.9100 C.ar      1 TRP        -0.0443
     32 CZ3        84.6830   17.1660   14.3190 C.ar      1 TRP        -0.0792
     33 CH2        84.5290   16.4850   13.0980 C.ar      1 TRP        -0.0768
     34 N          88.3450   24.3060   12.2480 N.am      1 PHE        -0.2676
     35 CA         89.4950   24.6590   11.4190 C.3       1 PHE         0.1039
     36 C          90.7870   24.7930   12.2170 C.2       1 PHE         0.0621
     37 O          91.2480   25.9360   12.4120 O.co2     1 PHE        -0.5664
     38 CB         89.2140   25.9590   10.6620 C.3       1 PHE         0.0159
     39 CG         88.1760   25.8190    9.5870 C.ar      1 PHE        -0.0392
     40 CD1        86.9140   25.3170    9.8830 C.ar      1 PHE        -0.0602
     41 CD2        88.4610   26.1840    8.2770 C.ar      1 PHE        -0.0602
     42 CE1        85.9520   25.1790    8.8890 C.ar      1 PHE        -0.0686
     43 CE2        87.5040   26.0500    7.2730 C.ar      1 PHE        -0.0686
     44 CZ         86.2460   25.5470    7.5810 C.ar      1 PHE        -0.0687
     45 OXT        91.3210   23.7480   12.6400 O.co2     1 PHE        -0.5664
     46 H1         78.6844   24.7775   12.2095 H         1 VAL         0.2015
     47 H2         77.7596   24.4921   13.5409 H         1 VAL         0.2015
     48 H3         78.2895   23.2336   12.6216 H         1 VAL         0.2015
     49 H4         79.9932   25.0574   14.1996 H         1 VAL         0.1101
     50 H5         79.4161   22.0740   14.6243 H         1 VAL         0.0376
     51 H6         80.6103   22.4354   16.7616 H         1 VAL         0.0236
     52 H7         80.9219   24.1419   16.2955 H         1 VAL         0.0236
     53 H8         81.6544   22.8037   15.3471 H         1 VAL         0.0236
     54 H9         77.4299   23.4668   15.1085 H         1 VAL         0.0236
     55 H10        78.4241   24.5071   16.1836 H         1 VAL         0.0236
     56 H11        78.1426   22.7850   16.6097 H         1 VAL         0.0236
     57 H12        82.0261   25.1451   13.5239 H         1 TYR         0.1886
     58 H13        82.9953   23.0110   11.6757 H         1 TYR         0.0821
     59 H14        84.5695   24.8754   10.8445 H         1 TYR         0.0453
     60 H15        83.4879   26.0115   11.7197 H         1 TYR         0.0453
     61 H16        83.6779   26.7264    9.0639 H         1 TYR         0.0530
     62 H17        81.3543   23.4931   10.6279 H         1 TYR         0.0530
     63 H18        82.2230   26.8092    7.0674 H         1 TYR         0.0525
     64 H19        79.8937   23.5764    8.6337 H         1 TYR         0.0525
     65 H20        80.4666   25.9376    6.0383 H         1 TYR         0.2458
     66 H21        85.4028   22.8491   11.5758 H         1 TRP         0.1884
     67 H22        86.7678   23.5142   14.1155 H         1 TRP         0.0815
     68 H23        86.0160   21.3511   14.6728 H         1 TRP         0.0397
     69 H24        87.7202   21.1442   14.1441 H         1 TRP         0.0397
     70 H25        86.8632   21.1117   10.9061 H         1 TRP         0.0795
     71 H26        85.9824   18.8674    9.9445 H         1 TRP         0.2216
     72 H27        85.3590   18.9611   15.3082 H         1 TRP         0.0540
     73 H28        84.8048   16.5175   10.9712 H         1 TRP         0.0541
     74 H29        84.3598   16.6923   15.2389 H         1 TRP         0.0510
     75 H30        84.0876   15.4949   13.0954 H         1 TRP         0.0530
     76 H31        87.8571   25.0295   12.7364 H         1 PHE         0.1877
     77 H32        89.6374   23.8537   10.6834 H         1 PHE         0.0749
     78 H33        90.1510   26.2999   10.1976 H         1 PHE         0.0467
     79 H34        88.8669   26.7131   11.3837 H         1 PHE         0.0467
     80 H35        86.6772   25.0297   10.9011 H         1 PHE         0.0557
     81 H36        89.4408   26.5782    8.0328 H         1 PHE         0.0557
     82 H37        84.9725   24.7844    9.1338 H         1 PHE         0.0599
     83 H38        87.7403   26.3373    6.2548 H         1 PHE         0.0599
     84 H39        85.4968   25.4419    6.8046 H         1 PHE         0.0559
@<TRIPOS>BOND
     1    1    2 1  
     2    2    3 1  
     3    2    5 1  
     4    3    4 2  
     5    3    8 am 
     6    5    6 1  
     7    5    7 1  
     8    8    9 1  
     9    9   10 1  
    10    9   12 1  
    11   10   11 2  
    12   10   20 am 
    13   12   13 1  
    14   13   14 ar 
    15   13   15 ar 
    16   14   16 ar 
    17   15   17 ar 
    18   16   18 ar 
    19   17   18 ar 
    20   18   19 1  
    21   20   21 1  
    22   21   22 1  
    23   21   24 1  
    24   22   23 2  
    25   22   34 am 
    26   24   25 1  
    27   25   26 2  
    28   25   27 1  
    29   26   28 1  
    30   27   29 ar 
    31   27   30 ar 
    32   28   29 1  
    33   29   31 ar 
    34   30   32 ar 
    35   31   33 ar 
    36   32   33 ar 
    37   34   35 1  
    38   35   36 1  
    39   35   38 1  
    40   36   37 ar 
    41   36   45 ar 
    42   38   39 1  
    43   39   40 ar 
    44   39   41 ar 
    45   40   42 ar 
    46   41   43 ar 
    47   42   44 ar 
    48   43   44 ar 
    49    1   46 1  
    50    1   47 1  
    51    1   48 1  
    52    2   49 1  
    53    5   50 1  
    54    6   51 1  
    55    6   52 1  
    56    6   53 1  
    57    7   54 1  
    58    7   55 1  
    59    7   56 1  
    60    8   57 1  
    61    9   58 1  
    62   12   59 1  
    63   12   60 1  
    64   14   61 1  
    65   15   62 1  
    66   16   63 1  
    67   17   64 1  
    68   19   65 1  
    69   20   66 1  
    70   21   67 1  
    71   24   68 1  
    72   24   69 1  
    73   26   70 1  
    74   28   71 1  
    75   30   72 1  
    76   31   73 1  
    77   32   74 1  
    78   33   75 1  
    79   34   76 1  
    80   35   77 1  
    81   38   78 1  
    82   38   79 1  
    83   40   80 1  
    84   41   81 1  
    85   42   82 1  
    86   43   83 1  
    87   44   84 1  
@<TRIPOS>SUBSTRUCTURE
     1 VAL         1

