### 
### Created by X-TOOL on Mon Sep 10 21:12:58 2018
### 

@<TRIPOS>MOLECULE
2r43_ligand
   75    79     1     0     0
SMALL
GAST_HUCK


@<TRIPOS>ATOM
      1 C2        -14.7450   23.7500   -1.7310 C.ar      1 G3G        -0.0429
      2 C6        -13.6670   24.2220   -2.5000 C.ar      1 G3G         0.0353
      3 C5        -13.7640   24.1920   -3.9170 C.ar      1 G3G        -0.0429
      4 C20       -14.9510   23.6710   -4.5060 C.ar      1 G3G        -0.0471
      5 C27       -16.0300   23.1860   -3.7250 C.ar      1 G3G         0.0951
      6 C18       -15.9300   23.2320   -2.3150 C.ar      1 G3G        -0.0471
      7 S9        -17.4600   22.5520   -4.5940 S.o2      1 G3G         0.0669
      8 O40       -18.6040   22.9310   -3.7680 O.2       1 G3G        -0.1516
      9 O11       -17.2910   22.9710   -5.9610 O.2       1 G3G        -0.1516
     10 N32       -17.1540   20.8760   -4.3050 N.am      1 G3G        -0.2141
     11 C33       -17.7290   20.2290   -3.0980 C.3       1 G3G         0.0637
     12 C34       -19.0190   19.4400   -3.1260 C.ar      1 G3G        -0.0244
     13 C38       -19.1290   18.2920   -2.2790 C.ar      1 G3G        -0.0588
     14 C39       -20.3230   17.5290   -2.2340 C.ar      1 G3G        -0.0685
     15 C37       -21.3980   17.8800   -3.0880 C.ar      1 G3G        -0.0687
     16 C36       -21.2870   19.0090   -3.9460 C.ar      1 G3G        -0.0685
     17 C35       -20.1010   19.7880   -3.9640 C.ar      1 G3G        -0.0588
     18 C24       -16.2480   20.1720   -5.2950 C.3       1 G3G         0.1074
     19 C25       -14.8920   19.7440   -4.6940 C.3       1 G3G        -0.0110
     20 N22       -14.8090   18.2760   -4.7020 N.4       1 G3G         0.2298
     21 C21       -16.1220   17.7040   -5.1150 C.3       1 G3G        -0.0110
     22 C23       -16.9180   18.8290   -5.8220 C.3       1 G3G         0.1074
     23 N28       -16.7490   18.7960   -7.3160 N.am      1 G3G        -0.2141
     24 C7        -15.4620   18.5460   -8.0060 C.3       1 G3G         0.0637
     25 C12       -14.5810   19.7990   -8.1370 C.ar      1 G3G        -0.0244
     26 C14       -13.2100   19.7570   -7.7470 C.ar      1 G3G        -0.0588
     27 C30       -12.3640   20.8990   -7.8520 C.ar      1 G3G        -0.0685
     28 C31       -12.9090   22.1110   -8.3690 C.ar      1 G3G        -0.0687
     29 C29       -14.2780   22.1660   -8.7600 C.ar      1 G3G        -0.0685
     30 C13       -15.1140   21.0200   -8.6480 C.ar      1 G3G        -0.0588
     31 S8        -18.1070   19.1180   -8.2690 S.o2      1 G3G         0.0669
     32 C26       -19.2780   17.7950   -8.2320 C.ar      1 G3G         0.0951
     33 C17       -19.0610   16.5280   -8.8520 C.ar      1 G3G        -0.0471
     34 C1        -20.0550   15.5170   -8.7770 C.ar      1 G3G        -0.0429
     35 C4        -21.2950   15.7600   -8.0740 C.ar      1 G3G         0.0353
     36 C3        -21.5230   17.0260   -7.4520 C.ar      1 G3G        -0.0429
     37 C19       -20.4990   18.0220   -7.5380 C.ar      1 G3G        -0.0471
     38 O41       -17.6280   19.1870   -9.6680 O.2       1 G3G        -0.1516
     39 O10       -18.8090   20.2830   -7.6770 O.2       1 G3G        -0.1516
     40 N42       -22.2450   14.8010   -7.9900 N.pl3     1 G3G        -0.3369
     41 N43       -12.5570   24.7170   -1.9050 N.pl3     1 G3G        -0.3369
     42 H1        -14.6680   23.7830   -0.6502 H         1 G3G         0.0515
     43 H2        -12.9526   24.5575   -4.5359 H         1 G3G         0.0515
     44 H3        -15.0322   23.6444   -5.5866 H         1 G3G         0.0602
     45 H4        -16.7435   22.8781   -1.6920 H         1 G3G         0.0602
     46 H5        -17.8817   21.0348   -2.3649 H         1 G3G         0.0641
     47 H6        -16.9580   19.5374   -2.7275 H         1 G3G         0.0641
     48 H7        -18.2863   18.0012   -1.6622 H         1 G3G         0.0557
     49 H8        -20.4124   16.6884   -1.5554 H         1 G3G         0.0599
     50 H9        -22.3058   17.2875   -3.0874 H         1 G3G         0.0559
     51 H10       -22.1155   19.2767   -4.5917 H         1 G3G         0.0599
     52 H11       -20.0258   20.6481   -4.6194 H         1 G3G         0.0557
     53 H12       -16.0697   20.8538   -6.1396 H         1 G3G         0.0590
     54 H13       -14.8134   20.1125   -3.6606 H         1 G3G         0.0833
     55 H14       -14.0725   20.1633   -5.2961 H         1 G3G         0.0833
     56 H15       -14.5759   17.9480   -3.7778 H         1 G3G         0.2015
     57 H16       -14.0963   17.9837   -5.3521 H         1 G3G         0.2015
     58 H17       -16.6735   17.3526   -4.2305 H         1 G3G         0.0833
     59 H18       -15.9646   16.8635   -5.8069 H         1 G3G         0.0833
     60 H19       -17.9851   18.7754   -5.5605 H         1 G3G         0.0590
     61 H20       -15.6767   18.1647   -9.0152 H         1 G3G         0.0641
     62 H21       -14.9045   17.7867   -7.4380 H         1 G3G         0.0641
     63 H22       -12.8001   18.8311   -7.3601 H         1 G3G         0.0557
     64 H23       -11.3258   20.8473   -7.5446 H         1 G3G         0.0599
     65 H24       -12.2821   22.9901   -8.4645 H         1 G3G         0.0559
     66 H25       -14.6875   23.0919   -9.1474 H         1 G3G         0.0599
     67 H26       -16.1536   21.0744   -8.9502 H         1 G3G         0.0557
     68 H27       -18.1347   16.3370   -9.3817 H         1 G3G         0.0602
     69 H28       -19.8832   14.5568   -9.2498 H         1 G3G         0.0515
     70 H29       -22.4499   17.2273   -6.9273 H         1 G3G         0.0515
     71 H30       -20.6590   18.9810   -7.0586 H         1 G3G         0.0602
     72 H31       -22.0922   13.8844   -8.4343 H         1 G3G         0.1719
     73 H32       -23.1213   14.9873   -7.4818 H         1 G3G         0.1719
     74 H33       -12.4892   24.7376   -0.8774 H         1 G3G         0.1719
     75 H34       -11.7799   25.0732   -2.4797 H         1 G3G         0.1719
@<TRIPOS>BOND
     1    1    2 ar 
     2    1    6 ar 
     3    2    3 ar 
     4    2   41 1  
     5    3    4 ar 
     6    4    5 ar 
     7    5    6 ar 
     8    5    7 1  
     9    7    8 2  
    10    7    9 2  
    11    7   10 am 
    12   10   11 1  
    13   10   18 1  
    14   11   12 1  
    15   12   13 ar 
    16   12   17 ar 
    17   13   14 ar 
    18   14   15 ar 
    19   15   16 ar 
    20   16   17 ar 
    21   18   19 1  
    22   18   22 1  
    23   19   20 1  
    24   20   21 1  
    25   21   22 1  
    26   22   23 1  
    27   23   24 1  
    28   23   31 am 
    29   24   25 1  
    30   25   26 ar 
    31   25   30 ar 
    32   26   27 ar 
    33   27   28 ar 
    34   28   29 ar 
    35   29   30 ar 
    36   31   32 1  
    37   31   38 2  
    38   31   39 2  
    39   32   33 ar 
    40   32   37 ar 
    41   33   34 ar 
    42   34   35 ar 
    43   35   36 ar 
    44   35   40 1  
    45   36   37 ar 
    46    1   42 1  
    47    3   43 1  
    48    4   44 1  
    49    6   45 1  
    50   11   46 1  
    51   11   47 1  
    52   13   48 1  
    53   14   49 1  
    54   15   50 1  
    55   16   51 1  
    56   17   52 1  
    57   18   53 1  
    58   19   54 1  
    59   19   55 1  
    60   20   56 1  
    61   20   57 1  
    62   21   58 1  
    63   21   59 1  
    64   22   60 1  
    65   24   61 1  
    66   24   62 1  
    67   26   63 1  
    68   27   64 1  
    69   28   65 1  
    70   29   66 1  
    71   30   67 1  
    72   33   68 1  
    73   34   69 1  
    74   36   70 1  
    75   37   71 1  
    76   40   72 1  
    77   40   73 1  
    78   41   74 1  
    79   41   75 1  
@<TRIPOS>SUBSTRUCTURE
     1 G3G         1

