### 
### Created by X-TOOL on Mon Sep 10 21:12:58 2018
### 

@<TRIPOS>MOLECULE
2r4b_ligand
   43    46     1     0     0
SMALL
GAST_HUCK


@<TRIPOS>ATOM
      1 F1        -21.2290   16.9550   -0.2150 F         1 GW7        -0.1853
      2 C1        -20.8290   18.2330   -0.2870 C.ar      1 GW7         0.1259
      3 C2        -21.6050   19.1790   -0.9250 C.ar      1 GW7        -0.0352
      4 C3        -21.1630   20.4860   -0.9790 C.ar      1 GW7        -0.0703
      5 C4        -19.9550   20.8300   -0.4030 C.ar      1 GW7        -0.0618
      6 C5        -19.1840   19.8810    0.2340 C.ar      1 GW7        -0.0151
      7 C6        -17.8790   20.2610    0.8450 C.3       1 GW7         0.1013
      8 O1        -17.2180   19.0910    1.3200 O.3       1 GW7        -0.3118
      9 C7        -16.3390   18.5630    0.3720 C.ar      1 GW7         0.0969
     10 C8        -15.9390   19.2400   -0.7650 C.ar      1 GW7        -0.0409
     11 C9        -15.0580   18.6330   -1.6400 C.ar      1 GW7        -0.0459
     12 C10       -14.5650   17.3600   -1.4110 C.ar      1 GW7         0.0538
     13 N1        -13.6590   16.7620   -2.3130 N.pl3     1 GW7        -0.2607
     14 C11       -13.7950   15.4760   -2.8640 C.ar      1 GW7         0.1577
     15 N2        -14.8450   14.6680   -2.6620 N.ar      1 GW7        -0.2642
     16 C12       -14.8470   13.4680   -3.2520 C.ar      1 GW7         0.0535
     17 N3        -13.9320   12.9160   -4.0530 N.ar      1 GW7        -0.3010
     18 C13       -12.8820   13.7240   -4.2560 C.ar      1 GW7         0.0435
     19 C14       -11.7560   13.4190   -5.0570 C.2       1 GW7        -0.0333
     20 C15       -10.8210   14.4240   -5.0960 C.2       1 GW7         0.0405
     21 C16        -9.5310   14.4680   -5.8100 C.2       1 GW7        -0.0415
     22 C17        -9.0530   15.7030   -6.1790 C.2       1 GW7        -0.0909
     23 S1        -11.3370   15.7550   -4.1410 S.3       1 GW7        -0.0192
     24 C18       -12.7990   14.9820   -3.6790 C.ar      1 GW7         0.1079
     25 C19       -14.9700   16.7000   -0.2700 C.ar      1 GW7        -0.0323
     26 C20       -15.8480   17.2940    0.6090 C.ar      1 GW7         0.0595
     27 CL1       -16.3200   16.4120    2.0130 Cl        1 GW7        -0.0814
     28 C21       -19.6300   18.5780    0.2910 C.ar      1 GW7        -0.0245
     29 H1        -22.5494   18.8997   -1.3779 H         1 GW7         0.0546
     30 H2        -21.7632   21.2416   -1.4729 H         1 GW7         0.0589
     31 H3        -19.6100   21.8565   -0.4525 H         1 GW7         0.0523
     32 H4        -18.0540   20.9496    1.6847 H         1 GW7         0.0774
     33 H5        -17.2508   20.7559    0.0897 H         1 GW7         0.0774
     34 H6        -16.3126   20.2371   -0.9683 H         1 GW7         0.0516
     35 H7        -14.7448   19.1680   -2.5292 H         1 GW7         0.0514
     36 H8        -12.8328   17.3114   -2.5894 H         1 GW7         0.2128
     37 H9        -15.7176   12.8542   -3.0510 H         1 GW7         0.1007
     38 H10       -11.6418   12.4771   -5.5915 H         1 GW7         0.0481
     39 H11        -8.9785   13.5572   -6.0361 H         1 GW7         0.0642
     40 H12        -8.1046   15.7840   -6.7081 H         1 GW7         0.0597
     41 H13        -9.6227   16.6004   -5.9422 H         1 GW7         0.0597
     42 H14       -14.5938   15.7046   -0.0631 H         1 GW7         0.0517
     43 H15       -19.0344   17.8238    0.7925 H         1 GW7         0.0543
@<TRIPOS>BOND
     1    1    2 1  
     2    2    3 ar 
     3    2   28 ar 
     4    3    4 ar 
     5    4    5 ar 
     6    5    6 ar 
     7    6    7 1  
     8    6   28 ar 
     9    7    8 1  
    10    8    9 1  
    11    9   10 ar 
    12    9   26 ar 
    13   10   11 ar 
    14   11   12 ar 
    15   12   13 1  
    16   12   25 ar 
    17   13   14 1  
    18   14   15 ar 
    19   14   24 ar 
    20   15   16 ar 
    21   16   17 ar 
    22   17   18 ar 
    23   18   19 1  
    24   18   24 ar 
    25   19   20 2  
    26   20   21 1  
    27   20   23 1  
    28   21   22 2  
    29   23   24 1  
    30   25   26 ar 
    31   26   27 1  
    32    3   29 1  
    33    4   30 1  
    34    5   31 1  
    35    7   32 1  
    36    7   33 1  
    37   10   34 1  
    38   11   35 1  
    39   13   36 1  
    40   16   37 1  
    41   19   38 1  
    42   21   39 1  
    43   22   40 1  
    44   22   41 1  
    45   25   42 1  
    46   28   43 1  
@<TRIPOS>SUBSTRUCTURE
     1 GW7         1

