### 
### Created by X-TOOL on Mon Sep 10 21:12:58 2018
### 

@<TRIPOS>MOLECULE
2r4f_ligand
   73    75     1     0     0
SMALL
GAST_HUCK


@<TRIPOS>ATOM
      1 N3         77.2520    8.4100   -5.4310 N.pl3     1 RIE        -0.1642
      2 C4         78.4760    8.0650   -5.0140 C.2       1 RIE         0.0856
      3 C5         79.2990    9.2900   -5.2960 C.2       1 RIE        -0.0091
      4 C6         80.7470    9.5420   -5.0530 C.3       1 RIE        -0.0289
      5 C7         78.9000    6.7480   -4.3960 C.3       1 RIE         0.0094
      6 C8         78.9040    6.9250   -2.8790 C.3       1 RIE        -0.0150
      7 C10        78.5790    5.7710   -0.6750 C.3       1 RIE         0.0010
      8 C13        80.9610    9.9660   -3.6050 C.3       1 RIE        -0.0589
      9 C15        74.6670    5.9850   -6.4020 C.ar      1 RIE        -0.0320
     10 C17        80.8230   12.7310   -9.0530 C.ar      1 RIE        -0.0582
     11 C20        82.0780   13.0370   -9.5800 C.ar      1 RIE        -0.0685
     12 C21        75.2880    7.6550   -4.2930 C.ar      1 RIE        -0.0271
     13 C24        74.1390    6.8690   -4.2320 C.ar      1 RIE        -0.0320
     14 C26        80.5270   15.0500   -8.4400 C.ar      1 RIE        -0.0582
     15 O2         79.1490   12.3740   -5.4810 O.2       1 RIE        -0.3870
     16 C3         78.6650   11.6430   -6.3330 C.2       1 RIE         0.2094
     17 N2         78.3910   12.0680   -7.5770 N.am      1 RIE        -0.2621
     18 C1         78.6950   13.4720   -7.9060 C.3       1 RIE         0.0747
     19 C16        77.6180   14.0590   -8.8260 C.3       1 RIE        -0.0318
     20 C32        80.0430   13.7380   -8.4800 C.ar      1 RIE        -0.0181
     21 C23        81.7790   15.3590   -8.9680 C.ar      1 RIE        -0.0685
     22 C29        82.5530   14.3480   -9.5370 C.ar      1 RIE        -0.0687
     23 C14        77.7850   11.2370   -8.6200 C.3       1 RIE         0.0245
     24 C2         78.3300   10.2530   -5.9080 C.2       1 RIE         0.1002
     25 C12        81.6150    8.3370   -5.4120 C.3       1 RIE        -0.0589
     26 C27        76.1650    7.6350   -5.3830 C.ar      1 RIE         0.1067
     27 C18        75.8100    6.7820   -6.4350 C.ar      1 RIE        -0.0271
     28 C30        73.8270    6.0300   -5.2970 C.ar      1 RIE         0.1252
     29 F1         72.7240    5.2660   -5.2570 F         1 RIE        -0.1891
     30 N4         77.1070    9.6900   -5.9560 N.2       1 RIE        -0.1973
     31 C9         79.0210    5.6010   -2.1290 C.3       1 RIE         0.0595
     32 O4         80.3890    5.1760   -2.1370 O.3       1 RIE        -0.3915
     33 C11        77.0630    5.8210   -0.4980 C.3       1 RIE         0.0689
     34 O3         76.4760    4.5520   -0.8200 O.3       1 RIE        -0.3900
     35 C35        76.7500    6.1750    0.9520 C.3       1 RIE         0.0264
     36 C36        75.2880    6.5290    1.1060 C.2       1 RIE         0.0373
     37 O6         74.8970    7.6570    0.7310 O.co2     1 RIE        -0.5689
     38 O7         74.5220    5.6800    1.6130 O.co2     1 RIE        -0.5689
     39 H1         81.0558   10.3760   -5.7003 H         1 RIE         0.0369
     40 H2         79.9081    6.4785   -4.7441 H         1 RIE         0.0448
     41 H3         78.1906    5.9563   -4.6786 H         1 RIE         0.0448
     42 H4         77.9664    7.4164   -2.5801 H         1 RIE         0.0313
     43 H5         79.7566    7.5623   -2.6018 H         1 RIE         0.0313
     44 H6         79.0051    6.7090   -0.2895 H         1 RIE         0.0316
     45 H7         78.9693    4.9240   -0.0917 H         1 RIE         0.0316
     46 H8         82.0314   10.1506   -3.4314 H         1 RIE         0.0245
     47 H9         80.6132    9.1670   -2.9337 H         1 RIE         0.0245
     48 H10        80.3930   10.8864   -3.4047 H         1 RIE         0.0245
     49 H11        74.4346    5.3324   -7.2358 H         1 RIE         0.0588
     50 H12        80.4535   11.7125   -9.0882 H         1 RIE         0.0557
     51 H13        82.6845   12.2555  -10.0232 H         1 RIE         0.0599
     52 H14        75.5122    8.3107   -3.4594 H         1 RIE         0.0577
     53 H15        73.4937    6.9109   -3.3620 H         1 RIE         0.0588
     54 H16        79.9232   15.8325   -7.9947 H         1 RIE         0.0557
     55 H17        78.6509   14.0236   -6.9553 H         1 RIE         0.0718
     56 H18        77.8647   15.1055   -9.0581 H         1 RIE         0.0274
     57 H19        76.6415   14.0158   -8.3215 H         1 RIE         0.0274
     58 H20        77.5752   13.4769   -9.7584 H         1 RIE         0.0274
     59 H21        82.1486   16.3776   -8.9367 H         1 RIE         0.0599
     60 H22        83.5285   14.5820   -9.9479 H         1 RIE         0.0559
     61 H23        77.6179   10.2223   -8.2294 H         1 RIE         0.0488
     62 H24        78.4586   11.1893   -9.4883 H         1 RIE         0.0488
     63 H25        76.8234   11.6752   -8.9255 H         1 RIE         0.0488
     64 H26        81.4375    8.0567   -6.4608 H         1 RIE         0.0245
     65 H27        81.3569    7.4912   -4.7578 H         1 RIE         0.0245
     66 H28        82.6755    8.5955   -5.2760 H         1 RIE         0.0245
     67 H29        76.4492    6.7398   -7.3095 H         1 RIE         0.0577
     68 H30        78.3915    4.8445   -2.6204 H         1 RIE         0.0596
     69 H31        80.6798    5.0655   -3.0346 H         1 RIE         0.2098
     70 H32        76.6445    6.5911   -1.1626 H         1 RIE         0.0612
     71 H33        76.8320    3.8847   -0.2452 H         1 RIE         0.2099
     72 H34        77.3648    7.0351    1.2556 H         1 RIE         0.0456
     73 H35        76.9833    5.3127    1.5938 H         1 RIE         0.0456
@<TRIPOS>BOND
     1    2    1 1  
     2    1   26 1  
     3    1   30 1  
     4    3    2 2  
     5    2    5 1  
     6    3    4 1  
     7   24    3 1  
     8    4    8 1  
     9    4   25 1  
    10    5    6 1  
    11    6   31 1  
    12   31    7 1  
    13    7   33 1  
    14    9   27 ar 
    15   28    9 ar 
    16   10   11 ar 
    17   20   10 ar 
    18   11   22 ar 
    19   12   13 ar 
    20   26   12 ar 
    21   13   28 ar 
    22   20   14 ar 
    23   14   21 ar 
    24   16   15 2  
    25   17   16 am 
    26   16   24 1  
    27   18   17 1  
    28   17   23 1  
    29   18   19 1  
    30   18   20 1  
    31   21   22 ar 
    32   24   30 2  
    33   26   27 ar 
    34   28   29 1  
    35   31   32 1  
    36   33   34 1  
    37   33   35 1  
    38   35   36 1  
    39   36   37 ar 
    40   36   38 ar 
    41    4   39 1  
    42    5   40 1  
    43    5   41 1  
    44    6   42 1  
    45    6   43 1  
    46    7   44 1  
    47    7   45 1  
    48    8   46 1  
    49    8   47 1  
    50    8   48 1  
    51    9   49 1  
    52   10   50 1  
    53   11   51 1  
    54   12   52 1  
    55   13   53 1  
    56   14   54 1  
    57   18   55 1  
    58   19   56 1  
    59   19   57 1  
    60   19   58 1  
    61   21   59 1  
    62   22   60 1  
    63   23   61 1  
    64   23   62 1  
    65   23   63 1  
    66   25   64 1  
    67   25   65 1  
    68   25   66 1  
    69   27   67 1  
    70   31   68 1  
    71   32   69 1  
    72   33   70 1  
    73   34   71 1  
    74   35   72 1  
    75   35   73 1  
@<TRIPOS>SUBSTRUCTURE
     1 RIE         1

