### 
### Created by X-TOOL on Mon Sep 10 21:12:55 2018
### 

@<TRIPOS>MOLECULE
2r58_ligand
   31    30     1     0     0
SMALL
GAST_HUCK


@<TRIPOS>ATOM
      1 N         -27.4310  -20.9950  -15.7020 N.4       1 MLY         0.2327
      2 CA        -27.1070  -20.7590  -17.1440 C.3       1 MLY         0.0283
      3 CB        -25.8200  -19.9430  -17.2420 C.3       1 MLY         0.0026
      4 CG        -25.6240  -19.4670  -18.6730 C.3       1 MLY        -0.0416
      5 CD        -24.5780  -18.3710  -18.7750 C.3       1 MLY        -0.0122
      6 CE        -24.1050  -18.2510  -20.2200 C.3       1 MLY        -0.0324
      7 NZ        -23.2310  -17.0770  -20.3810 N.4       1 MLY         0.2309
      8 CH1       -22.9850  -16.8360  -21.8120 C.3       1 MLY        -0.0433
      9 CH2       -21.9540  -17.3240  -19.6980 C.3       1 MLY        -0.0433
     10 C         -26.9690  -22.0410  -17.9280 C.2       1 MLY         0.0844
     11 O         -26.2410  -22.9510  -17.5270 O.co2     1 MLY        -0.5643
     12 OXT       -27.5670  -22.2100  -18.9990 O.co2     1 MLY        -0.5643
     13 H1        -27.5118  -20.1098  -15.2266 H         1 MLY         0.2010
     14 H2        -26.6962  -21.5387  -15.2771 H         1 MLY         0.2010
     15 H3        -28.3032  -21.4953  -15.6311 H         1 MLY         0.2010
     16 H4        -27.9276  -20.1766  -17.5883 H         1 MLY         0.1024
     17 H5        -24.9661  -20.5694  -16.9446 H         1 MLY         0.0339
     18 H6        -25.8868  -19.0725  -16.5728 H         1 MLY         0.0339
     19 H7        -26.5813  -19.0793  -19.0516 H         1 MLY         0.0270
     20 H8        -25.3043  -20.3201  -19.2894 H         1 MLY         0.0270
     21 H9        -23.7230  -18.6191  -18.1290 H         1 MLY         0.0317
     22 H10       -25.0162  -17.4150  -18.4523 H         1 MLY         0.0317
     23 H11       -24.9790  -18.1446  -20.8793 H         1 MLY         0.0814
     24 H12       -23.5468  -19.1581  -20.4946 H         1 MLY         0.0814
     25 H13       -23.6772  -16.2685  -19.9770 H         1 MLY         0.2028
     26 H14       -22.3320  -15.9586  -21.9291 H         1 MLY         0.0777
     27 H15       -23.9417  -16.6517  -22.3226 H         1 MLY         0.0777
     28 H16       -22.4974  -17.7175  -22.2538 H         1 MLY         0.0777
     29 H17       -22.1389  -17.5040  -18.6287 H         1 MLY         0.0777
     30 H18       -21.3002  -16.4471  -19.8145 H         1 MLY         0.0777
     31 H19       -21.4667  -18.2059  -20.1393 H         1 MLY         0.0777
@<TRIPOS>BOND
     1    1    2 1  
     2    2    3 1  
     3    2   10 1  
     4    3    4 1  
     5    4    5 1  
     6    5    6 1  
     7    6    7 1  
     8    7    8 1  
     9    7    9 1  
    10   10   11 ar 
    11   10   12 ar 
    12    1   13 1  
    13    1   14 1  
    14    1   15 1  
    15    2   16 1  
    16    3   17 1  
    17    3   18 1  
    18    4   19 1  
    19    4   20 1  
    20    5   21 1  
    21    5   22 1  
    22    6   23 1  
    23    6   24 1  
    24    7   25 1  
    25    8   26 1  
    26    8   27 1  
    27    8   28 1  
    28    9   29 1  
    29    9   30 1  
    30    9   31 1  
@<TRIPOS>SUBSTRUCTURE
     1 MLY         1

