### 
### Created by X-TOOL on Mon Sep 10 21:12:55 2018
### 

@<TRIPOS>MOLECULE
2r5a_ligand
   28    27     1     0     0
SMALL
GAST_HUCK


@<TRIPOS>ATOM
      1 N         -26.9940  -20.5260  -15.8370 N.4       1 MLZ         0.2327
      2 CA        -26.4300  -20.5520  -17.2200 C.3       1 MLZ         0.0283
      3 CB        -25.1370  -19.7370  -17.2980 C.3       1 MLZ         0.0026
      4 CG        -25.0700  -19.0160  -18.6360 C.3       1 MLZ        -0.0416
      5 CD        -23.8060  -18.1830  -18.8010 C.3       1 MLZ        -0.0123
      6 CE        -23.5150  -18.0370  -20.2870 C.3       1 MLZ        -0.0339
      7 NZ        -22.6920  -16.9010  -20.6420 N.4       1 MLZ         0.2248
      8 CM        -22.7040  -16.4390  -22.0200 C.3       1 MLZ        -0.0449
      9 C         -26.1530  -21.9540  -17.6930 C.2       1 MLZ         0.0844
     10 O         -25.4350  -22.7060  -17.0260 O.co2     1 MLZ        -0.5643
     11 OXT       -26.6200  -22.3660  -18.7660 O.co2     1 MLZ        -0.5643
     12 H1        -27.1638  -19.5714  -15.5613 H         1 MLZ         0.2010
     13 H2        -26.3382  -20.9485  -15.1987 H         1 MLZ         0.2010
     14 H3        -27.8606  -21.0404  -15.8178 H         1 MLZ         0.2010
     15 H4        -27.1703  -20.0993  -17.8960 H         1 MLZ         0.1024
     16 H5        -24.2729  -20.4107  -17.2012 H         1 MLZ         0.0339
     17 H6        -25.1195  -18.9987  -16.4828 H         1 MLZ         0.0339
     18 H7        -25.9417  -18.3503  -18.7194 H         1 MLZ         0.0270
     19 H8        -25.1029  -19.7658  -19.4402 H         1 MLZ         0.0270
     20 H9        -22.9626  -18.6861  -18.3054 H         1 MLZ         0.0317
     21 H10       -23.9551  -17.1896  -18.3527 H         1 MLZ         0.0317
     22 H11       -24.4754  -17.9402  -20.8146 H         1 MLZ         0.0814
     23 H12       -23.0012  -18.9490  -20.6250 H         1 MLZ         0.0814
     24 H13       -21.7394  -17.1420  -20.4174 H         1 MLZ         0.2011
     25 H14       -22.9877  -16.1280  -20.0666 H         1 MLZ         0.2011
     26 H15       -22.0311  -15.5750  -22.1229 H         1 MLZ         0.0777
     27 H16       -23.7261  -16.1429  -22.2986 H         1 MLZ         0.0777
     28 H17       -22.3639  -17.2494  -22.6814 H         1 MLZ         0.0777
@<TRIPOS>BOND
     1    1    2 1  
     2    2    3 1  
     3    2    9 1  
     4    3    4 1  
     5    4    5 1  
     6    5    6 1  
     7    6    7 1  
     8    7    8 1  
     9    9   10 ar 
    10    9   11 ar 
    11    1   12 1  
    12    1   13 1  
    13    1   14 1  
    14    2   15 1  
    15    3   16 1  
    16    3   17 1  
    17    4   18 1  
    18    4   19 1  
    19    5   20 1  
    20    5   21 1  
    21    6   22 1  
    22    6   23 1  
    23    7   24 1  
    24    7   25 1  
    25    8   26 1  
    26    8   27 1  
    27    8   28 1  
@<TRIPOS>SUBSTRUCTURE
     1 MLZ         1

