### 
### Created by X-TOOL on Mon Sep 10 21:12:56 2018
### 

@<TRIPOS>MOLECULE
2r5p_ligand
   94    98     1     0     0
SMALL
GAST_HUCK


@<TRIPOS>ATOM
      1 N1         26.4360   -8.3120   -1.5830 N.4       1 MK1         0.2576
      2 C1         27.9290   -8.3930   -1.5440 C.3       1 MK1         0.0316
      3 C2         28.4980   -9.5290   -2.4010 C.3       1 MK1         0.1092
      4 C3         30.0200   -9.5050   -2.2950 C.2       1 MK1         0.2304
      5 O1         30.5500   -9.8940   -1.2470 O.2       1 MK1        -0.3906
      6 N2         30.6940   -9.0480   -3.3730 N.am      1 MK1        -0.2769
      7 C4         32.1510   -8.9380   -3.5100 C.3       1 MK1         0.0448
      8 C5         32.3650   -8.3490   -4.9030 C.3       1 MK1        -0.0396
      9 C6         32.7860  -10.3210   -3.4480 C.3       1 MK1        -0.0396
     10 C7         32.7520   -7.9740   -2.4800 C.3       1 MK1        -0.0396
     11 N3         27.8750  -10.8290   -1.8520 N.4       1 MK1         0.2635
     12 C8         26.3900  -10.8170   -1.9150 C.3       1 MK1         0.0117
     13 C9         25.8920   -9.6050   -1.1300 C.3       1 MK1         0.0112
     14 C10        28.3230  -12.0320   -2.6040 C.3       1 MK1        -0.0026
     15 C11        28.6030  -13.2040   -1.6400 C.3       1 MK1         0.0974
     16 O2         28.2070  -14.3830   -2.3530 O.3       1 MK1        -0.3864
     17 C12        30.0940  -13.3640   -1.2560 C.3       1 MK1        -0.0003
     18 C13        30.3800  -14.5220   -0.2780 C.3       1 MK1         0.0608
     19 C14        31.9030  -14.6030    0.0040 C.3       1 MK1         0.0007
     20 C15        32.2710  -15.7110    0.9750 C.ar      1 MK1        -0.0405
     21 C16        31.9590  -17.0730    0.7120 C.ar      1 MK1        -0.0602
     22 C17        32.2940  -18.0880    1.6280 C.ar      1 MK1        -0.0686
     23 C18        32.9530  -17.7250    2.8300 C.ar      1 MK1        -0.0687
     24 C19        33.2690  -16.3760    3.1010 C.ar      1 MK1        -0.0686
     25 C20        32.9290  -15.3610    2.1760 C.ar      1 MK1        -0.0602
     26 C21        29.6300  -14.3110    1.0470 C.2       1 MK1         0.1831
     27 O3         29.5680  -13.2300    1.6440 O.2       1 MK1        -0.3964
     28 N4         29.0600  -15.4200    1.5200 N.am      1 MK1        -0.2707
     29 C22        28.6760  -15.6000    2.8800 C.3       1 MK1         0.1006
     30 C23        28.9850  -16.9600    3.4790 C.3       1 MK1         0.0951
     31 O4         28.8000  -18.0050    2.5130 O.3       1 MK1        -0.3857
     32 C24        28.0110  -17.1060    4.6180 C.3       1 MK1         0.0085
     33 C25        26.7800  -16.3380    4.1890 C.ar      1 MK1        -0.0361
     34 C26        25.4220  -16.3750    4.6140 C.ar      1 MK1        -0.0667
     35 C27        24.4970  -15.5160    4.0040 C.ar      1 MK1        -0.0755
     36 C28        24.8650  -14.6250    2.9830 C.ar      1 MK1        -0.0754
     37 C29        26.2050  -14.5930    2.5660 C.ar      1 MK1        -0.0646
     38 C30        27.1900  -15.4310    3.1370 C.ar      1 MK1        -0.0133
     39 C31        25.9490   -7.1870   -0.7530 C.3       1 MK1         0.0087
     40 C32        26.3920   -5.7760   -1.0760 C.ar      1 MK1         0.0294
     41 C33        25.9800   -5.1460   -2.2680 C.ar      1 MK1         0.0176
     42 N5         26.3330   -3.8390   -2.6700 N.ar      1 MK1        -0.3042
     43 C34        27.1670   -3.2090   -1.7210 C.ar      1 MK1         0.0042
     44 C35        27.6260   -3.7530   -0.5110 C.ar      1 MK1        -0.0403
     45 C36        27.2300   -5.0630   -0.1810 C.ar      1 MK1        -0.0354
     46 H1         26.1417   -8.1525   -2.5338 H         1 MK1         0.2056
     47 H2         28.2428   -8.5514   -0.5017 H         1 MK1         0.0899
     48 H3         28.3399   -7.4405   -1.9099 H         1 MK1         0.0899
     49 H4         28.2092   -9.3982   -3.4543 H         1 MK1         0.1155
     50 H5         30.1451   -8.7554   -4.1560 H         1 MK1         0.1859
     51 H6         33.4427   -8.2319   -5.0900 H         1 MK1         0.0254
     52 H7         31.8732   -7.3670   -4.9654 H         1 MK1         0.0254
     53 H8         31.9333   -9.0239   -5.6568 H         1 MK1         0.0254
     54 H9         33.8772  -10.2284   -3.5515 H         1 MK1         0.0254
     55 H10        32.3917  -10.9425   -4.2654 H         1 MK1         0.0254
     56 H11        32.5479  -10.7909   -2.4824 H         1 MK1         0.0254
     57 H12        33.8420   -7.9222   -2.6186 H         1 MK1         0.0254
     58 H13        32.5282   -8.3352   -1.4654 H         1 MK1         0.0254
     59 H14        32.3170   -6.9730   -2.6171 H         1 MK1         0.0254
     60 H15        28.1590  -10.9224   -0.8894 H         1 MK1         0.2061
     61 H16        25.9903  -11.7398   -1.4693 H         1 MK1         0.0868
     62 H17        26.0617  -10.7435   -2.9623 H         1 MK1         0.0868
     63 H18        24.7963   -9.5658   -1.2189 H         1 MK1         0.0868
     64 H19        26.1696   -9.7427   -0.0746 H         1 MK1         0.0868
     65 H20        29.2432  -11.7908   -3.1562 H         1 MK1         0.0840
     66 H21        27.5364  -12.3281   -3.3136 H         1 MK1         0.0840
     67 H22        28.0062  -13.0796   -0.7244 H         1 MK1         0.0648
     68 H23        27.2845  -14.3243   -2.5722 H         1 MK1         0.2100
     69 H24        30.4310  -12.4274   -0.7879 H         1 MK1         0.0321
     70 H25        30.6692  -13.5415   -2.1767 H         1 MK1         0.0321
     71 H26        30.0450  -15.4655   -0.7336 H         1 MK1         0.0561
     72 H27        32.2322  -13.6427    0.4276 H         1 MK1         0.0453
     73 H28        32.4260  -14.7829   -0.9468 H         1 MK1         0.0453
     74 H29        31.4539  -17.3346   -0.2108 H         1 MK1         0.0557
     75 H30        32.0535  -19.1242    1.4192 H         1 MK1         0.0599
     76 H31        33.2171  -18.4921    3.5490 H         1 MK1         0.0559
     77 H32        33.7753  -16.1163    4.0236 H         1 MK1         0.0599
     78 H33        33.1707  -14.3254    2.3862 H         1 MK1         0.0557
     79 H34        28.8919  -16.1708    0.8812 H         1 MK1         0.1880
     80 H35        29.2204  -14.8374    3.4562 H         1 MK1         0.0732
     81 H36        30.0198  -16.9896    3.8509 H         1 MK1         0.0659
     82 H37        28.9995  -18.8433    2.9129 H         1 MK1         0.2103
     83 H38        28.4300  -16.6786    5.5409 H         1 MK1         0.0439
     84 H39        27.7664  -18.1657    4.7828 H         1 MK1         0.0439
     85 H40        25.1081  -17.0563    5.3966 H         1 MK1         0.0537
     86 H41        23.4639  -15.5405    4.3313 H         1 MK1         0.0541
     87 H42        24.1284  -13.9744    2.5256 H         1 MK1         0.0541
     88 H43        26.4938  -13.9036    1.7809 H         1 MK1         0.0538
     89 H44        26.2638   -7.3924    0.2808 H         1 MK1         0.0997
     90 H45        24.8506   -7.1986   -0.8110 H         1 MK1         0.0997
     91 H46        25.3378   -5.7129   -2.9323 H         1 MK1         0.0767
     92 H47        27.4866   -2.1990   -1.9508 H         1 MK1         0.0767
     93 H48        28.2668   -3.1809    0.1501 H         1 MK1         0.0693
     94 H49        27.5610   -5.5205    0.7443 H         1 MK1         0.0680
@<TRIPOS>BOND
     1    1    2 1  
     2    1   13 1  
     3    1   39 1  
     4    2    3 1  
     5    3    4 1  
     6    3   11 1  
     7    4    5 2  
     8    4    6 am 
     9    6    7 1  
    10    7    8 1  
    11    7    9 1  
    12    7   10 1  
    13   11   12 1  
    14   11   14 1  
    15   12   13 1  
    16   14   15 1  
    17   15   16 1  
    18   15   17 1  
    19   17   18 1  
    20   18   19 1  
    21   18   26 1  
    22   19   20 1  
    23   20   21 ar 
    24   20   25 ar 
    25   21   22 ar 
    26   22   23 ar 
    27   23   24 ar 
    28   24   25 ar 
    29   26   27 2  
    30   26   28 am 
    31   28   29 1  
    32   29   30 1  
    33   29   38 1  
    34   30   31 1  
    35   30   32 1  
    36   32   33 1  
    37   33   34 ar 
    38   33   38 ar 
    39   34   35 ar 
    40   35   36 ar 
    41   36   37 ar 
    42   37   38 ar 
    43   39   40 1  
    44   40   41 ar 
    45   40   45 ar 
    46   41   42 ar 
    47   42   43 ar 
    48   43   44 ar 
    49   44   45 ar 
    50    1   46 1  
    51    2   47 1  
    52    2   48 1  
    53    3   49 1  
    54    6   50 1  
    55    8   51 1  
    56    8   52 1  
    57    8   53 1  
    58    9   54 1  
    59    9   55 1  
    60    9   56 1  
    61   10   57 1  
    62   10   58 1  
    63   10   59 1  
    64   11   60 1  
    65   12   61 1  
    66   12   62 1  
    67   13   63 1  
    68   13   64 1  
    69   14   65 1  
    70   14   66 1  
    71   15   67 1  
    72   16   68 1  
    73   17   69 1  
    74   17   70 1  
    75   18   71 1  
    76   19   72 1  
    77   19   73 1  
    78   21   74 1  
    79   22   75 1  
    80   23   76 1  
    81   24   77 1  
    82   25   78 1  
    83   28   79 1  
    84   29   80 1  
    85   30   81 1  
    86   31   82 1  
    87   32   83 1  
    88   32   84 1  
    89   34   85 1  
    90   35   86 1  
    91   36   87 1  
    92   37   88 1  
    93   39   89 1  
    94   39   90 1  
    95   41   91 1  
    96   43   92 1  
    97   44   93 1  
    98   45   94 1  
@<TRIPOS>SUBSTRUCTURE
     1 MK1         1

