### 
### Created by X-TOOL on Mon Sep 10 21:12:56 2018
### 

@<TRIPOS>MOLECULE
2r5q_ligand
   86    89     1     0     0
SMALL
GAST_HUCK


@<TRIPOS>ATOM
      1 C1         25.3670   -9.4850   -1.7570 C.3       1 1UN         0.0024
      2 C2         26.0470   -8.1590   -2.3020 C.3       1 1UN        -0.0261
      3 C3         25.4380   -6.9210   -1.6360 C.3       1 1UN        -0.0494
      4 C4         25.5090   -7.0440   -0.1030 C.3       1 1UN        -0.0528
      5 C5         24.7820   -8.3180    0.3890 C.3       1 1UN        -0.0526
      6 C6         25.4630   -9.6100   -0.2020 C.3       1 1UN        -0.0451
      7 N7         27.5140  -10.7540   -2.2070 N.4       1 1UN         0.2562
      8 C8         28.1670   -9.5150   -2.7770 C.3       1 1UN         0.0688
      9 C9         27.5930   -8.2540   -2.0820 C.3       1 1UN         0.0113
     10 C10        26.0260  -10.7300   -2.4520 C.3       1 1UN        -0.0266
     11 C11        29.6410   -9.5200   -2.5070 C.2       1 1UN         0.2251
     12 N12        30.3510   -9.0880   -3.5820 N.am      1 1UN        -0.2771
     13 C13        31.8560   -8.9720   -3.6520 C.3       1 1UN         0.0448
     14 C14        32.4080   -7.9710   -2.5870 C.3       1 1UN        -0.0396
     15 C15        32.4980  -10.3710   -3.3860 C.3       1 1UN        -0.0396
     16 C16        32.1850   -8.4300   -5.0720 C.3       1 1UN        -0.0396
     17 O17        30.0580   -9.8910   -1.3970 O.2       1 1UN        -0.3909
     18 C18        27.9940  -12.0010   -2.8510 C.3       1 1UN        -0.0009
     19 C19        27.9040  -13.1280   -1.8020 C.3       1 1UN         0.1184
     20 C20        29.0600  -13.2110   -0.7860 C.3       1 1UN         0.0832
     21 O21        27.8300  -14.3240   -2.5950 O.3       1 1UN        -0.3842
     22 N22        28.6740  -14.3140    0.1150 N.am      1 1UN        -0.2808
     23 C23        30.4050  -13.6150   -1.3630 C.3       1 1UN         0.0326
     24 C24        28.3240  -14.0030    1.4170 C.2       1 1UN         0.1978
     25 O25        28.3310  -12.8290    1.8460 O.2       1 1UN        -0.3887
     26 C29        27.9320  -15.1160    2.2760 C.ar      1 1UN         0.0427
     27 C30        28.8540  -16.1590    2.5100 C.ar      1 1UN        -0.0597
     28 C31        28.5430  -17.2690    3.3290 C.ar      1 1UN        -0.0720
     29 C32        27.2740  -17.3320    3.9240 C.ar      1 1UN        -0.0355
     30 C33        26.3320  -16.3010    3.7070 C.ar      1 1UN         0.0948
     31 C34        26.6260  -15.1700    2.8830 C.ar      1 1UN         0.0036
     32 O38        25.0790  -16.3880    4.3080 O.3       1 1UN        -0.3358
     33 C39        25.5570  -14.1080    2.7040 C.3       1 1UN        -0.0293
     34 S74        31.7250  -13.2730   -0.1890 S.3       1 1UN        -0.0993
     35 C77        32.0040  -14.7430    0.6910 C.ar      1 1UN         0.0154
     36 C78        32.3970  -14.6050    2.0460 C.ar      1 1UN        -0.0498
     37 C79        32.6390  -15.7870    2.7910 C.ar      1 1UN        -0.0678
     38 C80        32.4890  -17.0570    2.1800 C.ar      1 1UN        -0.0687
     39 C81        32.0950  -17.1820    0.8210 C.ar      1 1UN        -0.0678
     40 C82        31.8510  -16.0040    0.0720 C.ar      1 1UN        -0.0498
     41 H1         24.3012   -9.4584   -2.0278 H         1 1UN         0.0355
     42 H2         25.8573   -8.0878   -3.3832 H         1 1UN         0.0309
     43 H3         24.3861   -6.8251   -1.9432 H         1 1UN         0.0268
     44 H4         25.9957   -6.0277   -1.9537 H         1 1UN         0.0268
     45 H5         25.0337   -6.1617    0.3504 H         1 1UN         0.0265
     46 H6         26.5639   -7.0911    0.2050 H         1 1UN         0.0265
     47 H7         23.7316   -8.2827    0.0644 H         1 1UN         0.0265
     48 H8         24.8252   -8.3572    1.4874 H         1 1UN         0.0265
     49 H9         26.5161   -9.6626    0.1115 H         1 1UN         0.0270
     50 H10        24.9328  -10.5107    0.1411 H         1 1UN         0.0270
     51 H11        27.7013  -10.7898   -1.2172 H         1 1UN         0.2057
     52 H12        27.9825   -9.4697   -3.8605 H         1 1UN         0.1100
     53 H13        27.8019   -8.3092   -1.0034 H         1 1UN         0.0348
     54 H14        28.0737   -7.3588   -2.5033 H         1 1UN         0.0348
     55 H15        25.8395  -10.6794   -3.5349 H         1 1UN         0.0818
     56 H16        25.5786  -11.6490   -2.0454 H         1 1UN         0.0818
     57 H17        29.8335   -8.8244   -4.3961 H         1 1UN         0.1859
     58 H18        33.5034   -7.9146   -2.6699 H         1 1UN         0.0254
     59 H19        32.1339   -8.3188   -1.5801 H         1 1UN         0.0254
     60 H20        31.9754   -6.9748   -2.7612 H         1 1UN         0.0254
     61 H21        33.5936  -10.2873   -3.4368 H         1 1UN         0.0254
     62 H22        32.1492  -11.0851   -4.1465 H         1 1UN         0.0254
     63 H23        32.2034  -10.7258   -2.3874 H         1 1UN         0.0254
     64 H24        33.2745   -8.3246   -5.1809 H         1 1UN         0.0254
     65 H25        31.7062   -7.4494   -5.2102 H         1 1UN         0.0254
     66 H26        31.8071   -9.1326   -5.8293 H         1 1UN         0.0254
     67 H27        29.0362  -11.8767   -3.1803 H         1 1UN         0.0841
     68 H28        27.3619  -12.2435   -3.7180 H         1 1UN         0.0841
     69 H29        26.9735  -13.0026   -1.2290 H         1 1UN         0.0670
     70 H30        29.1577  -12.2555   -0.2499 H         1 1UN         0.0593
     71 H31        27.1118  -14.2494   -3.2123 H         1 1UN         0.2101
     72 H32        28.6656  -15.2608   -0.2068 H         1 1UN         0.1847
     73 H33        30.5872  -13.0474   -2.2875 H         1 1UN         0.0425
     74 H34        30.3927  -14.6913   -1.5899 H         1 1UN         0.0425
     75 H35        29.8326  -16.1073    2.0466 H         1 1UN         0.0556
     76 H36        29.2705  -18.0555    3.4938 H         1 1UN         0.0543
     77 H37        27.0147  -18.1757    4.5533 H         1 1UN         0.0556
     78 H38        25.0296  -17.1864    4.8206 H         1 1UN         0.2456
     79 H39        25.9375  -13.3118    2.0472 H         1 1UN         0.0382
     80 H40        25.2961  -13.6816    3.6838 H         1 1UN         0.0382
     81 H41        24.6626  -14.5607    2.2511 H         1 1UN         0.0382
     82 H42        32.5090  -13.6264    2.4985 H         1 1UN         0.0565
     83 H43        32.9394  -15.7191    3.8303 H         1 1UN         0.0600
     84 H44        32.6789  -17.9516    2.7619 H         1 1UN         0.0559
     85 H45        31.9832  -18.1594    0.3657 H         1 1UN         0.0600
     86 H46        31.5495  -16.0697   -0.9672 H         1 1UN         0.0565
@<TRIPOS>BOND
     1    1    2 1  
     2    1    6 1  
     3   10    1 1  
     4    2    3 1  
     5    2    9 1  
     6    3    4 1  
     7    5    4 1  
     8    6    5 1  
     9    7    8 1  
    10    7   10 1  
    11    7   18 1  
    12    8    9 1  
    13    8   11 1  
    14   11   12 am 
    15   11   17 2  
    16   12   13 1  
    17   13   14 1  
    18   13   15 1  
    19   13   16 1  
    20   18   19 1  
    21   19   20 1  
    22   19   21 1  
    23   20   22 1  
    24   20   23 1  
    25   22   24 am 
    26   23   34 1  
    27   24   25 2  
    28   24   26 1  
    29   26   27 ar 
    30   26   31 ar 
    31   27   28 ar 
    32   28   29 ar 
    33   29   30 ar 
    34   30   31 ar 
    35   30   32 1  
    36   31   33 1  
    37   34   35 1  
    38   35   36 ar 
    39   35   40 ar 
    40   36   37 ar 
    41   37   38 ar 
    42   38   39 ar 
    43   39   40 ar 
    44    1   41 1  
    45    2   42 1  
    46    3   43 1  
    47    3   44 1  
    48    4   45 1  
    49    4   46 1  
    50    5   47 1  
    51    5   48 1  
    52    6   49 1  
    53    6   50 1  
    54    7   51 1  
    55    8   52 1  
    56    9   53 1  
    57    9   54 1  
    58   10   55 1  
    59   10   56 1  
    60   12   57 1  
    61   14   58 1  
    62   14   59 1  
    63   14   60 1  
    64   15   61 1  
    65   15   62 1  
    66   15   63 1  
    67   16   64 1  
    68   16   65 1  
    69   16   66 1  
    70   18   67 1  
    71   18   68 1  
    72   19   69 1  
    73   20   70 1  
    74   21   71 1  
    75   22   72 1  
    76   23   73 1  
    77   23   74 1  
    78   27   75 1  
    79   28   76 1  
    80   29   77 1  
    81   32   78 1  
    82   33   79 1  
    83   33   80 1  
    84   33   81 1  
    85   36   82 1  
    86   37   83 1  
    87   38   84 1  
    88   39   85 1  
    89   40   86 1  
@<TRIPOS>SUBSTRUCTURE
     1 1UN         1

