### 
### Created by X-TOOL on Mon Sep 10 21:12:58 2018
### 

@<TRIPOS>MOLECULE
2r64_ligand
   59    63     1     0     0
SMALL
GAST_HUCK


@<TRIPOS>ATOM
      1 C1         21.7670   24.6660   31.7320 C.ar      1 740         0.0337
      2 C2         22.0340   24.4640   30.3280 C.ar      1 740        -0.0502
      3 C3         22.0410   25.6070   29.4420 C.ar      1 740        -0.0692
      4 C4         21.7830   26.9100   29.9790 C.ar      1 740        -0.0359
      5 C5         21.5270   27.0670   31.3500 C.ar      1 740        -0.0692
      6 C6         21.5200   25.9660   32.2080 C.ar      1 740        -0.0502
      7 C7         21.7860   28.1370   29.1090 C.3       1 740         0.0770
      8 C8         23.2150   28.5100   28.6300 C.2       1 740         0.2449
      9 N9         23.5810   29.7760   29.0000 N.am      1 740        -0.1542
     10 C10        24.7840   30.6260   28.7700 C.2       1 740         0.2628
     11 N11        24.9740   31.8610   29.2320 N.pl3     1 740        -0.2615
     12 N12        26.1680   32.3580   28.8290 N.2       1 740        -0.4616
     13 C13        26.8640   31.4720   28.0570 C.ar      1 740        -0.0763
     14 C14        28.1020   31.5090   27.4200 C.ar      1 740        -0.0834
     15 C15        28.5290   30.3880   26.6720 C.ar      1 740        -0.0459
     16 C16        27.6950   29.2180   26.5670 C.ar      1 740         0.0667
     17 C17        26.4310   29.1860   27.2270 C.ar      1 740        -0.0231
     18 C18        25.9830   30.2860   27.9770 C.ar      1 740         0.0613
     19 N19        28.1370   28.1460   25.8210 N.am      1 740        -0.1780
     20 C22        28.0940   26.7420   26.2350 C.3       1 740         0.0572
     21 O24        23.8670   27.7140   27.9690 O.2       1 740        -0.3671
     22 C9         28.7030   25.8780   25.0780 C.3       1 740        -0.0081
     23 S1         28.7820   28.3250   24.3640 S.o2      1 740         0.0625
     24 C12        28.6480   26.6540   23.7610 C.3       1 740         0.0922
     25 O2         27.9140   29.2550   23.5530 O.2       1 740        -0.1497
     26 O3         30.1920   28.7150   24.6960 O.2       1 740        -0.1497
     27 C11        22.6640   23.6190   33.8460 C.3       1 740         0.0255
     28 N1         21.7360   23.5880   32.6520 N.pl3     1 740        -0.3123
     29 C19        20.7450   22.4980   32.4320 C.3       1 740         0.0255
     30 C20        20.9930   21.2160   33.2600 C.3       1 740        -0.0334
     31 C21        21.3620   21.5880   34.7040 C.3       1 740        -0.0495
     32 C23        22.7280   22.3020   34.6820 C.3       1 740        -0.0334
     33 H1         22.2266   23.4692   29.9429 H         1 740         0.0500
     34 H2         22.2391   25.4794   28.3839 H         1 740         0.0529
     35 H3         21.3321   28.0564   31.7478 H         1 740         0.0529
     36 H4         21.3201   26.1161   33.2628 H         1 740         0.0500
     37 H5         21.3731   28.9797   29.6829 H         1 740         0.0647
     38 H6         21.1546   27.9488   28.2282 H         1 740         0.0647
     39 H7         22.8828   30.2350   29.5494 H         1 740         0.2696
     40 H8         24.3000   32.3720   29.8198 H         1 740         0.2459
     41 H9         28.7315   32.3881   27.4970 H         1 740         0.0566
     42 H10        29.4914   30.4089   26.1736 H         1 740         0.0481
     43 H11        25.8085   28.3020   27.1489 H         1 740         0.0498
     44 H12        27.0528   26.4387   26.4192 H         1 740         0.0555
     45 H13        28.6838   26.6052   27.1534 H         1 740         0.0555
     46 H14        28.1264   24.9468   24.9764 H         1 740         0.0303
     47 H15        29.7497   25.6371   25.3154 H         1 740         0.0303
     48 H16        27.6984   26.4883   23.2312 H         1 740         0.0524
     49 H17        29.4873   26.3922   23.0999 H         1 740         0.0524
     50 H18        22.3312   24.4279   34.5130 H         1 740         0.0511
     51 H19        23.6783   23.8384   33.4813 H         1 740         0.0511
     52 H20        20.7670   22.2261   31.3664 H         1 740         0.0511
     53 H21        19.7484   22.8847   32.6913 H         1 740         0.0511
     54 H22        21.8175   20.6445   32.8088 H         1 740         0.0284
     55 H23        20.0802   20.6021   33.2637 H         1 740         0.0284
     56 H24        21.4272   20.6778   35.3182 H         1 740         0.0266
     57 H25        20.5976   22.2590   35.1229 H         1 740         0.0266
     58 H26        23.0219   22.5459   35.7136 H         1 740         0.0284
     59 H27        23.4766   21.6304   34.2365 H         1 740         0.0284
@<TRIPOS>BOND
     1    1    2 ar 
     2    1    6 ar 
     3    1   28 1  
     4    2    3 ar 
     5    3    4 ar 
     6    4    5 ar 
     7    4    7 1  
     8    5    6 ar 
     9    7    8 1  
    10    8    9 am 
    11    8   21 2  
    12    9   10 1  
    13   10   11 1  
    14   10   18 2  
    15   11   12 1  
    16   12   13 2  
    17   13   14 ar 
    18   13   18 ar 
    19   14   15 ar 
    20   15   16 ar 
    21   16   17 ar 
    22   16   19 1  
    23   17   18 ar 
    24   19   20 1  
    25   19   23 am 
    26   20   22 1  
    27   22   24 1  
    28   23   24 1  
    29   23   25 2  
    30   23   26 2  
    31   28   27 1  
    32   27   32 1  
    33   28   29 1  
    34   29   30 1  
    35   30   31 1  
    36   31   32 1  
    37    2   33 1  
    38    3   34 1  
    39    5   35 1  
    40    6   36 1  
    41    7   37 1  
    42    7   38 1  
    43    9   39 1  
    44   11   40 1  
    45   14   41 1  
    46   15   42 1  
    47   17   43 1  
    48   20   44 1  
    49   20   45 1  
    50   22   46 1  
    51   22   47 1  
    52   24   48 1  
    53   24   49 1  
    54   27   50 1  
    55   27   51 1  
    56   29   52 1  
    57   29   53 1  
    58   30   54 1  
    59   30   55 1  
    60   31   56 1  
    61   31   57 1  
    62   32   58 1  
    63   32   59 1  
@<TRIPOS>SUBSTRUCTURE
     1 740         1

