### 
### Created by X-TOOL on Mon Sep 10 21:12:58 2018
### 

@<TRIPOS>MOLECULE
2r6w_ligand
   65    69     1     0     0
SMALL
GAST_HUCK


@<TRIPOS>ATOM
      1 C4         10.7080   53.3480   59.6360 C.ar      1 LLB        -0.0190
      2 C5         10.2010   54.6090   60.1340 C.ar      1 LLB        -0.0711
      3 C6          8.7920   54.8130   60.2910 C.ar      1 LLB        -0.0408
      4 C7         11.7390   56.6550   71.3940 C.3       1 LLB        -0.0621
      5 C15        13.2350   53.9520   59.7510 C.2       1 LLB         0.1326
      6 C20        14.1970   55.0950   63.7940 C.ar      1 LLB         0.0970
      7 C21        14.8140   55.7760   62.7110 C.ar      1 LLB        -0.0269
      8 C22        14.4950   55.3920   61.3700 C.ar      1 LLB        -0.0525
      9 C28        15.2480   56.4120   65.4630 C.3       1 LLB         0.1114
     10 O17        13.8880   54.4290   58.8390 O.2       1 LLB        -0.3880
     11 C12        12.1240   53.0060   59.4430 C.2       1 LLB         0.0314
     12 C11        12.2990   51.6840   58.9650 C.2       1 LLB         0.0508
     13 C14        13.6050   51.0450   58.6540 C.ar      1 LLB        -0.0085
     14 C54        14.6140   50.9770   59.6100 C.ar      1 LLB        -0.0573
     15 C53        15.8550   50.3780   59.2780 C.ar      1 LLB        -0.0288
     16 C52        16.0650   49.8660   57.9880 C.ar      1 LLB         0.0923
     17 O59        17.2630   49.2760   57.6190 O.3       1 LLB        -0.3300
     18 C51        15.0450   49.9230   57.0100 C.ar      1 LLB        -0.0288
     19 C50        13.8060   50.5260   57.3600 C.ar      1 LLB        -0.0573
     20 S10        10.7740   50.9350   58.7570 S.3       1 LLB        -0.0307
     21 C3          9.8470   52.3010   59.2910 C.ar      1 LLB         0.0320
     22 C2          8.4540   52.4840   59.4420 C.ar      1 LLB        -0.0212
     23 C1          7.9420   53.7470   59.9390 C.ar      1 LLB         0.0805
     24 O13         6.5930   53.8990   60.0350 O.3       1 LLB        -0.3362
     25 C16        13.5620   54.3280   61.1600 C.ar      1 LLB         0.0176
     26 C19        13.2770   54.0730   63.5960 C.ar      1 LLB        -0.0269
     27 C18        12.9500   53.6820   62.2850 C.ar      1 LLB        -0.0525
     28 O27        14.4150   55.3460   65.1190 O.3       1 LLB        -0.3091
     29 C29        15.4330   56.3180   66.9750 C.3       1 LLB        -0.0032
     30 N61        14.3510   56.6080   67.9170 N.4       1 LLB         0.2372
     31 C66        13.5420   55.3660   68.1680 C.3       1 LLB        -0.0316
     32 C65        12.4690   55.4960   69.2680 C.3       1 LLB        -0.0098
     33 C64        12.9630   56.2400   70.5520 C.3       1 LLB        -0.0343
     34 C63        13.7750   57.4960   70.2600 C.3       1 LLB        -0.0098
     35 C62        14.8430   57.2060   69.1970 C.3       1 LLB        -0.0316
     36 H1         10.8921   55.4040   60.3898 H         1 LLB         0.0549
     37 H2          8.3961   55.7500   60.6656 H         1 LLB         0.0502
     38 H3         11.1319   55.7663   71.6211 H         1 LLB         0.0232
     39 H4         11.1331   57.3782   70.8285 H         1 LLB         0.0232
     40 H5         12.0791   57.1163   72.3329 H         1 LLB         0.0232
     41 H6         15.5189   56.5779   62.8983 H         1 LLB         0.0557
     42 H7         14.9524   55.8985   60.5278 H         1 LLB         0.0641
     43 H8         14.7781   57.3691   65.1926 H         1 LLB         0.0670
     44 H9         16.2176   56.3221   64.9514 H         1 LLB         0.0670
     45 H10        14.4518   51.3799   60.6032 H         1 LLB         0.0618
     46 H11        16.6422   50.3153   60.0206 H         1 LLB         0.0556
     47 H12        17.9678   49.9056   57.7156 H         1 LLB         0.2502
     48 H13        15.2040   49.5168   56.0176 H         1 LLB         0.0556
     49 H14        13.0106   50.5868   56.6261 H         1 LLB         0.0618
     50 H15         7.7698   51.6827   59.1871 H         1 LLB         0.0485
     51 H16         6.3962   54.7653   60.3716 H         1 LLB         0.2474
     52 H17        12.8152   53.5812   64.4445 H         1 LLB         0.0557
     53 H18        12.2307   52.8872   62.1238 H         1 LLB         0.0641
     54 H19        16.2511   57.0089   67.2267 H         1 LLB         0.0841
     55 H20        15.7492   55.2847   67.1809 H         1 LLB         0.0841
     56 H21        13.7455   57.2873   67.4835 H         1 LLB         0.2034
     57 H22        14.2336   54.5619   68.4598 H         1 LLB         0.0814
     58 H23        13.0369   55.0928   67.2298 H         1 LLB         0.0814
     59 H24        12.1451   54.4852   69.5568 H         1 LLB         0.0319
     60 H25        11.6142   56.0507   68.8539 H         1 LLB         0.0319
     61 H26        13.5893   55.5468   71.1327 H         1 LLB         0.0302
     62 H27        14.2660   57.8336   71.1846 H         1 LLB         0.0319
     63 H28        13.1027   58.2853   69.8926 H         1 LLB         0.0319
     64 H29        15.3424   58.1556   68.9544 H         1 LLB         0.0814
     65 H30        15.5728   56.5092   69.6350 H         1 LLB         0.0814
@<TRIPOS>BOND
     1    1    2 ar 
     2   11    1 1  
     3    1   21 ar 
     4    2    3 ar 
     5    3   23 ar 
     6   33    4 1  
     7    5   10 2  
     8    5   11 1  
     9   25    5 1  
    10    6    7 ar 
    11    6   26 ar 
    12   28    6 1  
    13    7    8 ar 
    14    8   25 ar 
    15    9   28 1  
    16   29    9 1  
    17   11   12 2  
    18   12   13 1  
    19   12   20 1  
    20   13   14 ar 
    21   13   19 ar 
    22   14   15 ar 
    23   15   16 ar 
    24   16   17 1  
    25   18   16 ar 
    26   19   18 ar 
    27   20   21 1  
    28   21   22 ar 
    29   22   23 ar 
    30   23   24 1  
    31   27   25 ar 
    32   26   27 ar 
    33   30   29 1  
    34   31   30 1  
    35   30   35 1  
    36   32   31 1  
    37   32   33 1  
    38   33   34 1  
    39   34   35 1  
    40    2   36 1  
    41    3   37 1  
    42    4   38 1  
    43    4   39 1  
    44    4   40 1  
    45    7   41 1  
    46    8   42 1  
    47    9   43 1  
    48    9   44 1  
    49   14   45 1  
    50   15   46 1  
    51   17   47 1  
    52   18   48 1  
    53   19   49 1  
    54   22   50 1  
    55   24   51 1  
    56   26   52 1  
    57   27   53 1  
    58   29   54 1  
    59   29   55 1  
    60   30   56 1  
    61   31   57 1  
    62   31   58 1  
    63   32   59 1  
    64   32   60 1  
    65   33   61 1  
    66   34   62 1  
    67   34   63 1  
    68   35   64 1  
    69   35   65 1  
@<TRIPOS>SUBSTRUCTURE
     1 LLB         1

