### 
### Created by X-TOOL on Mon Sep 10 21:12:58 2018
### 

@<TRIPOS>MOLECULE
2r6y_ligand
   59    63     1     0     0
SMALL
GAST_HUCK


@<TRIPOS>ATOM
      1 C4         12.1520   -0.5100   28.6560 C.ar      1 LLC        -0.0573
      2 C5         13.3830   -0.0040   29.0190 C.ar      1 LLC        -0.0288
      3 C6         14.4350    0.0280   28.0800 C.ar      1 LLC         0.0923
      4 C8         14.2680   -0.4430   26.7780 C.ar      1 LLC        -0.0288
      5 C13         8.1750   -4.2560   25.9620 C.ar      1 LLC        -0.0711
      6 C15         6.0080   -3.1600   26.2430 C.ar      1 LLC         0.0805
      7 C20        11.5270   -4.1330   24.8220 C.ar      1 LLC         0.0176
      8 C21        10.9130   -3.3480   23.8520 C.ar      1 LLC        -0.0525
      9 C22        11.0730   -3.5860   22.5040 C.ar      1 LLC        -0.0269
     10 C26        13.0610   -5.9040   18.9130 C.3       1 LLC        -0.0032
     11 C28        12.2090   -6.1380   16.6850 C.3       1 LLC        -0.0316
     12 O19        12.0270   -4.2520   27.1140 O.2       1 LLC        -0.3880
     13 C18        11.3070   -3.7800   26.2460 C.2       1 LLC         0.1326
     14 C33        12.3540   -5.2150   24.4220 C.ar      1 LLC        -0.0525
     15 C32        12.4960   -5.4500   23.0670 C.ar      1 LLC        -0.0269
     16 C23        11.8710   -4.6640   22.1070 C.ar      1 LLC         0.0970
     17 O24        11.9720   -4.8700   20.7670 O.3       1 LLC        -0.3091
     18 C25        12.7740   -6.0140   20.4290 C.3       1 LLC         0.1114
     19 N27        11.8240   -6.0700   18.1060 N.4       1 LLC         0.2372
     20 C31        10.9500   -4.8990   18.2650 C.3       1 LLC        -0.0316
     21 C30        10.3840   -4.5120   16.8640 C.3       1 LLC        -0.0077
     22 C29        11.0000   -5.5610   15.8950 C.3       1 LLC        -0.0077
     23 C1         10.2560   -2.7790   26.5780 C.2       1 LLC         0.0314
     24 C12         8.8230   -3.0590   26.4270 C.ar      1 LLC        -0.0190
     25 C14         6.7840   -4.2440   25.8530 C.ar      1 LLC        -0.0408
     26 O17         4.6500   -3.1750   26.1640 O.3       1 LLC        -0.3362
     27 C16         6.6170   -1.9870   26.7010 C.ar      1 LLC        -0.0212
     28 C11         7.9810   -1.9540   26.7760 C.ar      1 LLC         0.0320
     29 S10         9.1040   -0.6720   27.3110 S.3       1 LLC        -0.0307
     30 C2         10.6250   -1.5300   27.0440 C.2       1 LLC         0.0508
     31 C3         11.9670   -0.9910   27.3430 C.ar      1 LLC        -0.0085
     32 C9         13.0290   -0.9510   26.4060 C.ar      1 LLC        -0.0573
     33 O7         15.6340    0.5200   28.5000 O.3       1 LLC        -0.3300
     34 H1         11.3374   -0.5376   29.3706 H         1 LLC         0.0618
     35 H2         13.5416    0.3685   30.0246 H         1 LLC         0.0556
     36 H3         15.0884   -0.4135   26.0701 H         1 LLC         0.0556
     37 H4          8.7488   -5.1389   25.7046 H         1 LLC         0.0549
     38 H5         10.2873   -2.5208   24.1669 H         1 LLC         0.0641
     39 H6         10.5914   -2.9522   21.7682 H         1 LLC         0.0557
     40 H7         13.7799   -6.6865   18.6285 H         1 LLC         0.0841
     41 H8         13.4936   -4.9147   18.7029 H         1 LLC         0.0841
     42 H9         12.3992   -7.1800   16.3883 H         1 LLC         0.0814
     43 H10        13.1102   -5.5343   16.5022 H         1 LLC         0.0814
     44 H11        12.8572   -5.8361   25.1542 H         1 LLC         0.0641
     45 H12        13.1171   -6.2769   22.7421 H         1 LLC         0.0557
     46 H13        13.7155   -6.0016   20.9977 H         1 LLC         0.0670
     47 H14        12.2259   -6.9424   20.6474 H         1 LLC         0.0670
     48 H15        11.3387   -6.9084   18.3845 H         1 LLC         0.2034
     49 H16        11.5270   -4.0582   18.6775 H         1 LLC         0.0814
     50 H17        10.1212   -5.1439   18.9455 H         1 LLC         0.0814
     51 H18        10.6959   -3.4946   16.5856 H         1 LLC         0.0319
     52 H19         9.2858   -4.5736   16.8572 H         1 LLC         0.0319
     53 H20        10.2723   -6.3520   15.6611 H         1 LLC         0.0319
     54 H21        11.3344   -5.0829   14.9625 H         1 LLC         0.0319
     55 H22         6.2878   -5.1179   25.4466 H         1 LLC         0.0502
     56 H23         4.3879   -3.3080   25.2606 H         1 LLC         0.2474
     57 H24         6.0228   -1.1272   26.9887 H         1 LLC         0.0485
     58 H25        12.8749   -1.3172   25.3974 H         1 LLC         0.0618
     59 H26        16.2971   -0.1558   28.4222 H         1 LLC         0.2502
@<TRIPOS>BOND
     1    1    2 ar 
     2   31    1 ar 
     3    2    3 ar 
     4    3    4 ar 
     5    3   33 1  
     6    4   32 ar 
     7   24    5 ar 
     8    5   25 ar 
     9    6   25 ar 
    10    6   26 1  
    11   27    6 ar 
    12    7    8 ar 
    13   13    7 1  
    14    7   14 ar 
    15    8    9 ar 
    16    9   16 ar 
    17   18   10 1  
    18   10   19 1  
    19   19   11 1  
    20   11   22 1  
    21   13   12 2  
    22   23   13 1  
    23   14   15 ar 
    24   15   16 ar 
    25   16   17 1  
    26   17   18 1  
    27   19   20 1  
    28   20   21 1  
    29   21   22 1  
    30   23   24 1  
    31   30   23 2  
    32   28   24 ar 
    33   28   27 ar 
    34   29   28 1  
    35   30   29 1  
    36   30   31 1  
    37   31   32 ar 
    38    1   34 1  
    39    2   35 1  
    40    4   36 1  
    41    5   37 1  
    42    8   38 1  
    43    9   39 1  
    44   10   40 1  
    45   10   41 1  
    46   11   42 1  
    47   11   43 1  
    48   14   44 1  
    49   15   45 1  
    50   18   46 1  
    51   18   47 1  
    52   19   48 1  
    53   20   49 1  
    54   20   50 1  
    55   21   51 1  
    56   21   52 1  
    57   22   53 1  
    58   22   54 1  
    59   25   55 1  
    60   26   56 1  
    61   27   57 1  
    62   32   58 1  
    63   33   59 1  
@<TRIPOS>SUBSTRUCTURE
     1 LLC         1

