### 
### Created by X-TOOL on Mon Sep 10 21:12:59 2018
### 

@<TRIPOS>MOLECULE
2r7b_ligand
   43    46     1     0     0
SMALL
GAST_HUCK


@<TRIPOS>ATOM
      1 C1         89.2630   14.0150   15.0910 C.3       1 253         0.0593
      2 O2         88.8500   15.1850   14.4000 O.3       1 253        -0.3179
      3 C3         87.4970   15.2430   14.0130 C.ar      1 253         0.1313
      4 C23        86.8760   16.5210   14.0490 C.ar      1 253         0.1312
      5 O24        87.6900   17.5970   14.4460 O.3       1 253        -0.3189
      6 C25        87.5050   18.8260   13.7300 C.3       1 253         0.0588
      7 C22        85.5190   16.6530   13.6820 C.ar      1 253        -0.0223
      8 C21        84.7230   15.5570   13.2280 C.ar      1 253        -0.0043
      9 C11        83.3200   15.5550   12.7690 C.ar      1 253         0.0052
     10 C12        82.4100   16.7270   12.7570 C.ar      1 253        -0.0114
     11 C19        81.0950   16.4920   12.1440 C.ar      1 253         0.0171
     12 N20        80.7210   15.2520   11.6430 N.ar      1 253        -0.3006
     13 C17        80.1260   17.5320   12.0520 C.ar      1 253        -0.0150
     14 C18        78.8180   17.1560   11.3820 C.3       1 253        -0.0359
     15 C15        80.4050   18.8140   12.5860 C.ar      1 253         0.0387
     16 N16        79.4900   19.8150   12.5380 N.pl3     1 253        -0.3391
     17 C14        81.6500   19.0590   13.1980 C.ar      1 253        -0.0467
     18 C13        82.6170   18.0500   13.2710 C.ar      1 253        -0.0655
     19 C8         82.7980   14.2810   12.2650 C.ar      1 253         0.0531
     20 C9         81.4970   14.1750   11.7140 C.ar      1 253         0.1187
     21 N1         80.9580   13.0530   11.2210 N.pl3     1 253        -0.3152
     22 C7         83.5560   13.0820   12.2830 C.ar      1 253         0.0162
     23 N6         84.8210   13.1080   12.7470 N.ar      1 253        -0.3073
     24 C5         85.4120   14.2620   13.1900 C.ar      1 253         0.0272
     25 C4         86.7430   14.1260   13.5840 C.ar      1 253        -0.0166
     26 H1         90.3326   14.0921   15.3358 H         1 253         0.0577
     27 H2         89.0953   13.1343   14.4537 H         1 253         0.0577
     28 H3         88.6810   13.9124   16.0188 H         1 253         0.0577
     29 H4         88.1917   19.5883   14.1266 H         1 253         0.0576
     30 H5         86.4669   19.1687   13.8519 H         1 253         0.0576
     31 H6         87.7146   18.6636   12.6625 H         1 253         0.0576
     32 H7         85.0593   17.6325   13.7479 H         1 253         0.0528
     33 H8         78.8607   16.1056   11.0581 H         1 253         0.0357
     34 H9         78.6547   17.8030   10.5075 H         1 253         0.0357
     35 H10        77.9902   17.2866   12.0945 H         1 253         0.0357
     36 H11        79.7162   20.7389   12.9332 H         1 253         0.1709
     37 H12        78.5693   19.6509   12.1064 H         1 253         0.1709
     38 H13        81.8607   20.0369   13.6157 H         1 253         0.0518
     39 H14        83.5679   18.2792   13.7383 H         1 253         0.0560
     40 H15        81.4940   12.1736   11.2379 H         1 253         0.1830
     41 H16        80.0074   13.0692   10.8248 H         1 253         0.1830
     42 H17        83.1222   12.1545   11.9272 H         1 253         0.0866
     43 H18        87.2077   13.1469   13.5610 H         1 253         0.0513
@<TRIPOS>BOND
     1    1    2 1  
     2    2    3 1  
     3    3    4 ar 
     4    3   25 ar 
     5    4    5 1  
     6    4    7 ar 
     7    5    6 1  
     8    7    8 ar 
     9    8    9 ar 
    10    8   24 ar 
    11    9   10 ar 
    12    9   19 ar 
    13   10   11 ar 
    14   10   18 ar 
    15   11   12 ar 
    16   11   13 ar 
    17   12   20 ar 
    18   13   14 1  
    19   13   15 ar 
    20   15   16 1  
    21   15   17 ar 
    22   17   18 ar 
    23   19   20 ar 
    24   19   22 ar 
    25   20   21 1  
    26   22   23 ar 
    27   23   24 ar 
    28   24   25 ar 
    29    1   26 1  
    30    1   27 1  
    31    1   28 1  
    32    6   29 1  
    33    6   30 1  
    34    6   31 1  
    35    7   32 1  
    36   14   33 1  
    37   14   34 1  
    38   14   35 1  
    39   16   36 1  
    40   16   37 1  
    41   17   38 1  
    42   18   39 1  
    43   21   40 1  
    44   21   41 1  
    45   22   42 1  
    46   25   43 1  
@<TRIPOS>SUBSTRUCTURE
     1 253         1

