### 
### Created by X-TOOL on Mon Sep 10 21:12:55 2018
### 

@<TRIPOS>MOLECULE
2r8q_ligand
   30    31     1     0     0
SMALL
GAST_HUCK


@<TRIPOS>ATOM
      1 N9         32.4900   -1.6050   12.1320 N.2       1 IBM        -0.2860
      2 C8         33.8010   -1.5470   11.7270 C.2       1 IBM         0.0953
      3 N7         34.4880   -0.5900   12.2990 N.pl3     1 IBM        -0.2657
      4 C5         33.5670    0.0220   13.1370 C.2       1 IBM         0.1602
      5 C4         32.3360   -0.5890   13.0460 C.2       1 IBM         0.1379
      6 N3         31.2070   -0.2650   13.7140 N.am      1 IBM        -0.1992
      7 C2         31.3340    0.7960   14.5650 C.2       1 IBM         0.3179
      8 N1         32.5460    1.4770   14.7220 N.am      1 IBM        -0.1740
      9 C6         33.6580    1.0920   14.0130 C.2       1 IBM         0.2295
     10 O6         34.7180    1.6830   14.1510 O.2       1 IBM        -0.4007
     11 O2         30.3570    1.1630   15.2090 O.2       1 IBM        -0.3873
     12 C10        32.6300    2.6010   15.6430 C.3       1 IBM         0.0477
     13 C11        29.9610   -0.9930   13.5420 C.3       1 IBM         0.0580
     14 C12        30.1370   -2.4230   14.0610 C.3       1 IBM        -0.0214
     15 C13        29.7710   -2.5140   15.5360 C.3       1 IBM        -0.0604
     16 C14        29.3140   -3.4020   13.2360 C.3       1 IBM        -0.0604
     17 H1         34.2295   -2.2331   10.9979 H         1 IBM         0.1261
     18 H2         35.4795   -0.3483   12.1595 H         1 IBM         0.2315
     19 H3         31.6501    2.7611   16.1164 H         1 IBM         0.0539
     20 H4         32.9228    3.5063   15.0910 H         1 IBM         0.0539
     21 H5         33.3805    2.3850   16.4177 H         1 IBM         0.0539
     22 H6         29.6945   -1.0192   12.4751 H         1 IBM         0.0587
     23 H7         29.1613   -0.4923   14.1075 H         1 IBM         0.0587
     24 H8         31.1974   -2.6959   13.9558 H         1 IBM         0.0320
     25 H9         29.9056   -3.5488   15.8840 H         1 IBM         0.0233
     26 H10        28.7213   -2.2149   15.6725 H         1 IBM         0.0233
     27 H11        30.4217   -1.8442   16.1173 H         1 IBM         0.0233
     28 H12        29.5968   -3.3167   12.1764 H         1 IBM         0.0233
     29 H13        28.2449   -3.1694   13.3500 H         1 IBM         0.0233
     30 H14        29.5055   -4.4274   13.5852 H         1 IBM         0.0233
@<TRIPOS>BOND
     1    1    2 2  
     2    1    5 1  
     3    2    3 1  
     4    3    4 1  
     5    4    5 2  
     6    4    9 1  
     7    5    6 1  
     8    6    7 am 
     9    6   13 1  
    10    7    8 am 
    11    7   11 2  
    12    8    9 am 
    13    8   12 1  
    14    9   10 2  
    15   13   14 1  
    16   14   15 1  
    17   14   16 1  
    18    2   17 1  
    19    3   18 1  
    20   12   19 1  
    21   12   20 1  
    22   12   21 1  
    23   13   22 1  
    24   13   23 1  
    25   14   24 1  
    26   15   25 1  
    27   15   26 1  
    28   15   27 1  
    29   16   28 1  
    30   16   29 1  
    31   16   30 1  
@<TRIPOS>SUBSTRUCTURE
     1 IBM         1

