### 
### Created by X-TOOL on Mon Sep 10 21:12:56 2018
### 

@<TRIPOS>MOLECULE
2r9s_ligand
   74    77     1     0     0
SMALL
GAST_HUCK


@<TRIPOS>ATOM
      1 O25        12.7730   20.6790   23.0370 O.2       1 255        -0.1511
      2 S31        14.2350   20.6540   23.8180 S.o2      1 255         0.0656
      3 O26        14.3650   21.9860   24.7930 O.2       1 255        -0.1511
      4 N24        15.5100   20.6620   22.6580 N.am      1 255        -0.2428
      5 C30        15.4590   19.4310   21.8450 C.3       1 255         0.0404
      6 C01        15.0560   19.7910   20.3990 C.3       1 255        -0.0430
      7 C02        16.8490   18.7560   21.8370 C.3       1 255        -0.0430
      8 C03        14.4150   18.4590   22.4410 C.3       1 255        -0.0430
      9 C20        14.3520   19.1500   24.8330 C.ar      1 255         0.1011
     10 C13        13.1690   18.7210   25.7090 C.ar      1 255        -0.0419
     11 C11        13.2690   17.4540   26.5620 C.ar      1 255        -0.0580
     12 C17        14.5530   16.6140   26.5410 C.ar      1 255        -0.0348
     13 C10        15.7360   17.0440   25.6650 C.ar      1 255        -0.0580
     14 C12        15.6360   18.3090   24.8120 C.ar      1 255        -0.0419
     15 C18        14.6540   15.3500   27.3940 C.3       1 255         0.0333
     16 C15        15.9820   14.9860   28.0760 C.3       1 255        -0.0209
     17 N22        16.0820   13.7330   28.9200 N.4       1 255         0.2312
     18 C28        14.8860   12.8480   29.0910 C.3       1 255        -0.0142
     19 C14        14.9890   11.5760   29.9500 C.3       1 255        -0.0091
     20 C06        13.7560   10.6620   30.1270 C.3       1 255        -0.0429
     21 C09        12.4210   11.0260   29.4440 C.3       1 255        -0.0089
     22 C27        12.3190   12.2950   28.5870 C.3       1 255        -0.0091
     23 C29        13.5560   13.2120   28.4090 C.3       1 255         0.0471
     24 C16        13.4560   14.4640   27.5650 C.3       1 255        -0.0224
     25 N23        11.0580   12.6350   27.9430 N.4       1 255         0.2651
     26 C19        10.3170   11.6160   27.2190 C.3       1 255        -0.0061
     27 N21         8.9920   11.9420   26.6230 N.4       1 255         0.2627
     28 C07         8.2230   10.8860   25.8720 C.3       1 255        -0.0284
     29 C04         8.8050    9.4750   25.7220 C.3       1 255        -0.0120
     30 C05        10.1390    9.1470   26.3210 C.3       1 255        -0.0375
     31 C08        10.9040   10.1990   27.0690 C.3       1 255         0.0354
     32 H          16.1980   21.4072   22.5494 H         1 255         0.1678
     33 H          15.7918   20.4762   19.9780 H         1 255         0.0250
     34 H          15.0171   18.8830   19.7973 H         1 255         0.0250
     35 H          14.0755   20.2672   20.4043 H         1 255         0.0250
     36 H          17.1328   18.4994   22.8577 H         1 255         0.0250
     37 H          16.8084   17.8507   21.2313 H         1 255         0.0250
     38 H          17.5829   19.4434   21.4164 H         1 255         0.0250
     39 H          14.3757   17.5538   21.8350 H         1 255         0.0250
     40 H          14.7001   18.2026   23.4613 H         1 255         0.0250
     41 H          13.4357   18.9377   22.4454 H         1 255         0.0250
     42 H          12.2572   19.3180   25.7243 H         1 255         0.0619
     43 H          12.4280   17.1484   27.1844 H         1 255         0.0557
     44 H          16.6483   16.4477   25.6505 H         1 255         0.0557
     45 H          16.4767   18.6137   24.1888 H         1 255         0.0619
     46 H          15.4298   16.0071   27.7869 H         1 255         0.0514
     47 H          16.1604   15.8014   28.7770 H         1 255         0.0840
     48 H          16.6736   14.8145   27.2511 H         1 255         0.0840
     49 H          16.2834   14.0741   29.8600 H         1 255         0.2018
     50 H          16.7626   13.1506   28.4322 H         1 255         0.2018
     51 H          14.1630   12.3482   28.4463 H         1 255         0.0855
     52 H          15.2037   11.9417   30.9541 H         1 255         0.0320
     53 H          15.7172   10.9538   29.4297 H         1 255         0.0320
     54 H          13.5366   10.7042   31.1938 H         1 255         0.0269
     55 H          14.0486    9.7179   29.6675 H         1 255         0.0269
     56 H          11.7305   11.1983   30.2696 H         1 255         0.0320
     57 H          12.2410   10.2095   28.7447 H         1 255         0.0320
     58 H          12.9158   13.0291   28.0456 H         1 255         0.0857
     59 H          13.0754   14.0864   27.9702 H         1 255         0.0413
     60 H          13.2409   14.0994   26.5606 H         1 255         0.0298
     61 H          12.7285   15.0866   28.0857 H         1 255         0.0298
     62 H          11.3106   13.3214   27.2320 H         1 255         0.2075
     63 H          10.4422   12.9020   28.7111 H         1 255         0.2075
     64 H           9.5346   11.0514   26.7118 H         1 255         0.1470
     65 H           9.1960   12.6551   25.9228 H         1 255         0.2072
     66 H           8.4009   12.1670   27.4233 H         1 255         0.2072
     67 H           8.1631   11.2660   24.8521 H         1 255         0.0815
     68 H           7.3130   10.7449   26.4552 H         1 255         0.0815
     69 H           8.9509    9.3531   24.6487 H         1 255         0.0317
     70 H           8.1025    8.8326   26.2530 H         1 255         0.0317
     71 H          10.7705    8.9071   25.4656 H         1 255         0.0271
     72 H           9.9220    8.3842   27.0687 H         1 255         0.0271
     73 H          10.9646    9.8192   28.0889 H         1 255         0.0380
     74 H          11.8143   10.3408   26.4864 H         1 255         0.0380
@<TRIPOS>BOND
     1    1    2 2  
     2    2    3 2  
     3    2    4 am 
     4    2    9 1  
     5    4    5 1  
     6    5    6 1  
     7    5    7 1  
     8    5    8 1  
     9    9   10 ar 
    10    9   14 ar 
    11   10   11 ar 
    12   11   12 ar 
    13   12   13 ar 
    14   12   15 1  
    15   13   14 ar 
    16   15   16 1  
    17   15   24 1  
    18   16   17 1  
    19   17   18 1  
    20   18   19 1  
    21   18   23 1  
    22   19   20 1  
    23   20   21 1  
    24   21   22 1  
    25   22   23 1  
    26   22   25 1  
    27   23   24 1  
    28   25   26 1  
    29   26   27 1  
    30   26   31 1  
    31   27   28 1  
    32   28   29 1  
    33   29   30 1  
    34   30   31 1  
    35    4   32 1  
    36    6   33 1  
    37    6   34 1  
    38    6   35 1  
    39    7   36 1  
    40    7   37 1  
    41    7   38 1  
    42    8   39 1  
    43    8   40 1  
    44    8   41 1  
    45   10   42 1  
    46   11   43 1  
    47   13   44 1  
    48   14   45 1  
    49   15   46 1  
    50   16   47 1  
    51   16   48 1  
    52   17   49 1  
    53   17   50 1  
    54   18   51 1  
    55   19   52 1  
    56   19   53 1  
    57   20   54 1  
    58   20   55 1  
    59   21   56 1  
    60   21   57 1  
    61   22   58 1  
    62   23   59 1  
    63   24   60 1  
    64   24   61 1  
    65   25   62 1  
    66   25   63 1  
    67   26   64 1  
    68   27   65 1  
    69   27   66 1  
    70   28   67 1  
    71   28   68 1  
    72   29   69 1  
    73   29   70 1  
    74   30   71 1  
    75   30   72 1  
    76   31   73 1  
    77   31   74 1  
@<TRIPOS>SUBSTRUCTURE
     1 255         1

