### 
### Created by X-TOOL on Mon Sep 10 21:12:57 2018
### 

@<TRIPOS>MOLECULE
2r9w_ligand
   42    45     1     0     0
SMALL
GAST_HUCK


@<TRIPOS>ATOM
      1 CD2        22.9090    9.3210   15.6750 C.ar      1 23C        -0.0120
      2 CAN        22.4060    9.2820   16.9720 C.ar      1 23C        -0.0548
      3 CAH        21.3400   10.0720   17.3400 C.ar      1 23C        -0.0625
      4 CAG        20.7510   10.9320   16.4290 C.ar      1 23C        -0.0629
      5 CAL        21.2410   10.9980   15.1300 C.ar      1 23C        -0.0569
      6 CAX        22.3160   10.1940   14.7590 C.ar      1 23C        -0.0243
      7 CAM        22.7950   10.2750   13.4610 C.ar      1 23C        -0.0631
      8 CAI        23.8630    9.4750   13.0910 C.ar      1 23C        -0.0707
      9 CD1        24.4450    8.6080   13.9970 C.ar      1 23C        -0.0606
     10 CG         23.9950    8.5220   15.3010 C.ar      1 23C        -0.0282
     11 CB         24.7120    7.5120   16.2130 C.3       1 23C         0.0224
     12 CA         23.7960    6.2670   16.3550 C.3       1 23C         0.1291
     13 C          24.3490    5.1940   17.3360 C.2       1 23C         0.0668
     14 OXT        24.0970    5.3900   18.5510 O.co2     1 23C        -0.5661
     15 O          24.9630    4.2210   16.8750 O.co2     1 23C        -0.5661
     16 N          23.3960    5.7440   15.0260 N.am      1 23C        -0.1654
     17 CAW        22.1140    5.6400   14.6600 C.2       1 23C         0.2426
     18 OAD        21.1580    5.9120   15.3850 O.2       1 23C        -0.3669
     19 CBA        22.0290    5.1580   13.3540 C.ar      1 23C         0.0767
     20 CAP        20.9590    4.8580   12.5070 C.ar      1 23C        -0.0231
     21 CAT        21.2080    4.3710   11.2250 C.ar      1 23C         0.0195
     22 CAR        20.0820    4.0090   10.2690 C.2       1 23C         0.0663
     23 OAE        19.0120    3.5780   10.7470 O.co2     1 23C        -0.5596
     24 OAA        20.3180    4.1100    9.0460 O.co2     1 23C        -0.5596
     25 CAK        22.5210    4.1870   10.8070 C.ar      1 23C        -0.0384
     26 CAO        23.5720    4.4900   11.6530 C.ar      1 23C        -0.0339
     27 CAZ        23.3420    4.9770   12.9340 C.ar      1 23C         0.0757
     28 CAV        24.1670    5.3610   13.9950 C.2       1 23C         0.2436
     29 OAC        25.4050    5.3390   13.9930 O.2       1 23C        -0.3659
     30 H1         22.8593    8.6211   17.7020 H         1 23C         0.0628
     31 H2         20.9582   10.0200   18.3532 H         1 23C         0.0601
     32 H3         19.9122   11.5506   16.7271 H         1 23C         0.0616
     33 H4         20.7893   11.6710   14.4102 H         1 23C         0.0609
     34 H5         22.3412   10.9532   12.7474 H         1 23C         0.0542
     35 H6         24.2473    9.5292   12.0789 H         1 23C         0.0595
     36 H7         25.2712    7.9828   13.6782 H         1 23C         0.0530
     37 H8         24.8893    7.9607   17.2015 H         1 23C         0.0483
     38 H9         25.6733    7.2201   15.7650 H         1 23C         0.0483
     39 H10        22.8681    6.6299   16.8211 H         1 23C         0.0802
     40 H11        19.9395    5.0034   12.8455 H         1 23C         0.0715
     41 H12        22.7219    3.8041    9.8130 H         1 23C         0.0694
     42 H13        24.5907    4.3455   11.3118 H         1 23C         0.0687
@<TRIPOS>BOND
     1    1    2 ar 
     2    1    6 ar 
     3    1   10 ar 
     4    2    3 ar 
     5    3    4 ar 
     6    4    5 ar 
     7    5    6 ar 
     8    6    7 ar 
     9    7    8 ar 
    10    8    9 ar 
    11    9   10 ar 
    12   10   11 1  
    13   11   12 1  
    14   12   13 1  
    15   12   16 1  
    16   13   14 ar 
    17   13   15 ar 
    18   16   17 am 
    19   16   28 am 
    20   17   18 2  
    21   17   19 1  
    22   19   20 ar 
    23   19   27 ar 
    24   20   21 ar 
    25   21   22 1  
    26   21   25 ar 
    27   22   23 ar 
    28   22   24 ar 
    29   25   26 ar 
    30   26   27 ar 
    31   27   28 1  
    32   28   29 2  
    33    2   30 1  
    34    3   31 1  
    35    4   32 1  
    36    5   33 1  
    37    7   34 1  
    38    8   35 1  
    39    9   36 1  
    40   11   37 1  
    41   11   38 1  
    42   12   39 1  
    43   20   40 1  
    44   25   41 1  
    45   26   42 1  
@<TRIPOS>SUBSTRUCTURE
     1 23C         1

