### 
### Created by X-TOOL on Mon Sep 10 21:12:57 2018
### 

@<TRIPOS>MOLECULE
2r9x_ligand
   45    48     1     0     0
SMALL
GAST_HUCK


@<TRIPOS>ATOM
      1 CAZ        21.9590    9.9130   15.1240 C.ar      1 WH6        -0.0121
      2 CAN        21.8530   10.0300   16.5100 C.ar      1 WH6        -0.0548
      3 CAH        20.7710   10.6810   17.0840 C.ar      1 WH6        -0.0625
      4 CAG        19.7800   11.2260   16.2690 C.ar      1 WH6        -0.0629
      5 CAL        19.8690   11.1200   14.8830 C.ar      1 WH6        -0.0569
      6 CAY        20.9590   10.4600   14.3090 C.ar      1 WH6        -0.0243
      7 CAM        21.0470   10.3510   12.9240 C.ar      1 WH6        -0.0631
      8 CAI        22.1380    9.6910   12.3530 C.ar      1 WH6        -0.0707
      9 CAJ        23.1350    9.1570   13.1590 C.ar      1 WH6        -0.0607
     10 CAV        23.0560    9.2640   14.5530 C.ar      1 WH6        -0.0297
     11 CAR        24.1660    8.6250   15.3810 C.3       1 WH6         0.0120
     12 CBC        23.6920    7.2370   15.9160 C.3       1 WH6         0.0888
     13 CAQ        24.8770    6.6180   16.6400 C.3       1 WH6         0.0294
     14 CAS        24.4570    5.4100   17.4510 C.2       1 WH6         0.0375
     15 OAE        24.9510    4.3190   17.1050 O.co2     1 WH6        -0.5689
     16 OAA        23.6440    5.6090   18.3790 O.co2     1 WH6        -0.5689
     17 N1         23.2260    6.5050   14.7210 N.am      1 WH6        -0.1771
     18 CAX        21.9340    6.2910   14.3930 C.2       1 WH6         0.2411
     19 OAD        20.9600    6.6080   15.0840 O.2       1 WH6        -0.3670
     20 CBB        21.8700    5.6490   13.1470 C.ar      1 WH6         0.0766
     21 CAP        20.8270    5.1780   12.3400 C.ar      1 WH6        -0.0231
     22 CAU        21.1210    4.5500   11.1240 C.ar      1 WH6         0.0195
     23 CAT        20.0180    4.0090   10.1990 C.2       1 WH6         0.0663
     24 OAF        20.1740    4.1220    8.9600 O.co2     1 WH6        -0.5596
     25 OAB        19.0400    3.4550   10.7250 O.co2     1 WH6        -0.5596
     26 CAK        22.4390    4.3950   10.7200 C.ar      1 WH6        -0.0384
     27 CAO        23.4770    4.8550   11.5240 C.ar      1 WH6        -0.0339
     28 CBA        23.1990    5.4840   12.7340 C.ar      1 WH6         0.0756
     29 CAW        24.0050    6.0480   13.7300 C.2       1 WH6         0.2421
     30 OAC        25.2410    6.0900   13.7190 O.2       1 WH6        -0.3660
     31 H1         22.6238    9.6080   17.1447 H         1 WH6         0.0628
     32 H2         20.6963   10.7656   18.1621 H         1 WH6         0.0601
     33 H3         18.9346   11.7356   16.7168 H         1 WH6         0.0616
     34 H4         19.0971   11.5471   14.2531 H         1 WH6         0.0609
     35 H5         20.2744   10.7752   12.2929 H         1 WH6         0.0542
     36 H6         22.2067    9.5952   11.2754 H         1 WH6         0.0595
     37 H7         23.9810    8.6534   12.7054 H         1 WH6         0.0530
     38 H8         24.4115    9.2796   16.2303 H         1 WH6         0.0466
     39 H9         25.0586    8.4891   14.7527 H         1 WH6         0.0466
     40 H10        22.8575    7.3483   16.6239 H         1 WH6         0.0650
     41 H11        25.3159    7.3676   17.3149 H         1 WH6         0.0458
     42 H12        25.6279    6.3080   15.8983 H         1 WH6         0.0458
     43 H13        19.7970    5.2991   12.6554 H         1 WH6         0.0715
     44 H14        22.6609    3.9137    9.7744 H         1 WH6         0.0694
     45 H15        24.5052    4.7231   11.2071 H         1 WH6         0.0687
@<TRIPOS>BOND
     1    1    2 ar 
     2    1    6 ar 
     3    1   10 ar 
     4    2    3 ar 
     5    3    4 ar 
     6    4    5 ar 
     7    5    6 ar 
     8    6    7 ar 
     9    7    8 ar 
    10    8    9 ar 
    11    9   10 ar 
    12   10   11 1  
    13   11   12 1  
    14   12   13 1  
    15   12   17 1  
    16   13   14 1  
    17   14   15 ar 
    18   14   16 ar 
    19   17   18 am 
    20   17   29 am 
    21   18   19 2  
    22   18   20 1  
    23   20   21 ar 
    24   20   28 ar 
    25   21   22 ar 
    26   22   23 1  
    27   22   26 ar 
    28   23   24 ar 
    29   23   25 ar 
    30   26   27 ar 
    31   27   28 ar 
    32   28   29 1  
    33   29   30 2  
    34    2   31 1  
    35    3   32 1  
    36    4   33 1  
    37    5   34 1  
    38    7   35 1  
    39    8   36 1  
    40    9   37 1  
    41   11   38 1  
    42   11   39 1  
    43   12   40 1  
    44   13   41 1  
    45   13   42 1  
    46   21   43 1  
    47   26   44 1  
    48   27   45 1  
@<TRIPOS>SUBSTRUCTURE
     1 WH6         1

