### 
### Created by X-TOOL on Mon Sep 10 21:12:59 2018
### 

@<TRIPOS>MOLECULE
2ra0_ligand
   62    67     1     0     0
SMALL
GAST_HUCK


@<TRIPOS>ATOM
      1 C1         43.9070   51.2840   24.4330 C.2       1 JNJ         0.1340
      2 C2         43.3570   50.5290   23.3490 C.ar      1 JNJ         0.0278
      3 C3         42.3530   50.7490   22.3340 C.ar      1 JNJ        -0.0671
      4 N6         44.2490   53.1180   25.9430 N.am      1 JNJ        -0.3001
      5 C7         44.0370   49.2880   23.3870 C.ar      1 JNJ         0.1449
      6 C8         41.7550   45.1730   18.7260 C.ar      1 JNJ         0.0958
      7 C9         42.9750   45.8850   18.5390 C.ar      1 JNJ         0.0065
      8 C10        43.3080   46.9630   19.4140 C.ar      1 JNJ         0.1360
      9 C11        42.4380   47.3580   20.4880 C.ar      1 JNJ         0.0064
     10 C12        41.2190   46.6270   20.6500 C.ar      1 JNJ        -0.0608
     11 C13        40.8840   45.5590   19.7890 C.ar      1 JNJ        -0.0309
     12 C14        40.4510   44.0180   16.8200 C.2       1 JNJ         0.1754
     13 C15        41.2780   42.0460   17.0630 C.2       1 JNJ        -0.0330
     14 C16        41.8790   42.8110   18.0180 C.2       1 JNJ         0.0430
     15 C19        40.8700   46.3960   14.5900 C.3       1 JNJ        -0.0415
     16 C20        43.5490   52.6610   24.8590 C.2       1 JNJ         0.2114
     17 C21        46.0410   46.3770   26.5150 C.ar      1 JNJ         0.0427
     18 C22        45.2260   47.4270   25.9960 C.ar      1 JNJ        -0.0264
     19 C24        47.1000   48.1230   24.5260 C.ar      1 JNJ        -0.0324
     20 C27        45.9170   45.3320   27.4680 C.2       1 JNJ         0.1224
     21 N1         44.8600   50.5690   25.0910 N.2       1 JNJ        -0.1635
     22 N2         44.9260   49.3580   24.4540 N.pl3     1 JNJ        -0.1504
     23 C4         42.0540   49.7140   21.3900 C.ar      1 JNJ        -0.0681
     24 C5         42.7410   48.4580   21.4350 C.ar      1 JNJ         0.0046
     25 C6         43.7350   48.2620   22.4420 C.ar      1 JNJ         0.1689
     26 F1         44.3790   47.0830   22.4890 F         1 JNJ        -0.1864
     27 F2         44.4740   47.6020   19.2050 F         1 JNJ        -0.1840
     28 N3         41.3700   44.0850   17.8910 N.pl3     1 JNJ        -0.2041
     29 N4         40.4060   42.7850   16.3310 N.2       1 JNJ        -0.3308
     30 C17        39.6250   45.1900   16.2980 C.3       1 JNJ         0.0462
     31 N5         40.4150   46.4210   15.9920 N.4       1 JNJ         0.2479
     32 C18        39.6070   47.6300   16.2050 C.3       1 JNJ        -0.0415
     33 O1         42.6960   53.3650   24.3130 O.2       1 JNJ        -0.3863
     34 C23        45.7530   48.3080   24.9970 C.ar      1 JNJ         0.0998
     35 C25        47.9310   47.0740   25.0380 C.ar      1 JNJ        -0.0272
     36 C26        47.3480   46.2340   26.0270 C.ar      1 JNJ         0.1438
     37 O2         47.9370   45.1790   26.6530 O.3       1 JNJ        -0.1940
     38 N7         47.0430   44.6110   27.5580 N.2       1 JNJ        -0.1495
     39 N8         44.8120   45.1060   28.1820 N.pl3     1 JNJ        -0.3311
     40 H1         41.8268   51.6956   22.2868 H         1 JNJ         0.0551
     41 H2         44.0744   54.0355   26.3004 H         1 JNJ         0.1807
     42 H3         44.9350   52.5344   26.3775 H         1 JNJ         0.1807
     43 H4         43.6480   45.6092   17.7352 H         1 JNJ         0.0567
     44 H5         40.5390   46.8983   21.4495 H         1 JNJ         0.0589
     45 H6         39.9525   45.0249   19.9374 H         1 JNJ         0.0551
     46 H7         41.4714   40.9855   16.9083 H         1 JNJ         0.0420
     47 H8         42.6203   42.4785   18.7432 H         1 JNJ         0.0809
     48 H9         41.4498   47.3061   14.3764 H         1 JNJ         0.0778
     49 H10        39.9972   46.3521   13.9220 H         1 JNJ         0.0778
     50 H11        41.5026   45.5112   14.4255 H         1 JNJ         0.0778
     51 H12        44.2120   47.5575   26.3563 H         1 JNJ         0.0544
     52 H13        47.4941   48.7908   23.7685 H         1 JNJ         0.0563
     53 H14        41.2981   49.8835   20.6318 H         1 JNJ         0.0522
     54 H15        38.8729   45.4455   17.0590 H         1 JNJ         0.1056
     55 H16        39.1190   44.8691   15.3755 H         1 JNJ         0.1056
     56 H17        41.2179   46.4507   16.6007 H         1 JNJ         0.2047
     57 H18        40.2106   48.5199   15.9732 H         1 JNJ         0.0778
     58 H19        39.2797   47.6721   17.2543 H         1 JNJ         0.0778
     59 H20        38.7261   47.6030   15.5468 H         1 JNJ         0.0778
     60 H21        48.9476   46.9286   24.6909 H         1 JNJ         0.0561
     61 H22        44.7858   44.3299   28.8587 H         1 JNJ         0.1698
     62 H23        43.9855   45.7077   28.0562 H         1 JNJ         0.1698
@<TRIPOS>BOND
     1    2    1 1  
     2    1   16 1  
     3   21    1 2  
     4    3    2 ar 
     5    5    2 ar 
     6   23    3 ar 
     7   16    4 am 
     8    5   22 1  
     9   25    5 ar 
    10    6    7 ar 
    11    6   11 ar 
    12   28    6 1  
    13    7    8 ar 
    14    8    9 ar 
    15    8   27 1  
    16   10    9 ar 
    17    9   24 1  
    18   11   10 ar 
    19   12   28 1  
    20   12   29 2  
    21   30   12 1  
    22   13   14 2  
    23   29   13 1  
    24   28   14 1  
    25   31   15 1  
    26   16   33 2  
    27   18   17 ar 
    28   17   20 1  
    29   17   36 ar 
    30   34   18 ar 
    31   34   19 ar 
    32   19   35 ar 
    33   20   38 2  
    34   20   39 1  
    35   22   21 1  
    36   22   34 1  
    37   24   23 ar 
    38   24   25 ar 
    39   25   26 1  
    40   30   31 1  
    41   31   32 1  
    42   35   36 ar 
    43   36   37 1  
    44   37   38 1  
    45    3   40 1  
    46    4   41 1  
    47    4   42 1  
    48    7   43 1  
    49   10   44 1  
    50   11   45 1  
    51   13   46 1  
    52   14   47 1  
    53   15   48 1  
    54   15   49 1  
    55   15   50 1  
    56   18   51 1  
    57   19   52 1  
    58   23   53 1  
    59   30   54 1  
    60   30   55 1  
    61   31   56 1  
    62   32   57 1  
    63   32   58 1  
    64   32   59 1  
    65   35   60 1  
    66   39   61 1  
    67   39   62 1  
@<TRIPOS>SUBSTRUCTURE
     1 JNJ         1

