### 
### Created by X-TOOL on Mon Sep 10 21:12:56 2018
### 

@<TRIPOS>MOLECULE
2ra6_ligand
   19    19     1     0     0
SMALL
GAST_HUCK


@<TRIPOS>ATOM
      1 C8         27.3940   37.4130   43.5080 C.3       1 ETY        -0.0569
      2 C7         26.7960   38.5060   42.6160 C.3       1 ETY        -0.0271
      3 CG         25.3010   38.4270   42.4990 C.ar      1 ETY        -0.0540
      4 C3         24.4630   38.9120   43.5350 C.ar      1 ETY        -0.0688
      5 C2         23.0570   38.8380   43.4260 C.ar      1 ETY        -0.0398
      6 C5         24.6930   37.8600   41.3430 C.ar      1 ETY        -0.0688
      7 C6         23.2890   37.7820   41.2250 C.ar      1 ETY        -0.0398
      8 C1         22.4780   38.2730   42.2720 C.ar      1 ETY         0.0805
      9 O1         21.1150   38.2010   42.1630 O.3       1 ETY        -0.3376
     10 H1         28.4870   37.5303   43.5488 H         1 ETY         0.0249
     11 H2         27.1466   36.4248   43.0930 H         1 ETY         0.0249
     12 H3         26.9779   37.4993   44.5226 H         1 ETY         0.0249
     13 H4         27.2301   38.4115   41.6097 H         1 ETY         0.0402
     14 H5         27.0615   39.4859   43.0394 H         1 ETY         0.0402
     15 H6         24.9080   39.3457   44.4232 H         1 ETY         0.0530
     16 H7         22.4273   39.2133   44.2246 H         1 ETY         0.0525
     17 H8         25.3180   37.4827   40.5417 H         1 ETY         0.0530
     18 H9         22.8373   37.3495   40.3396 H         1 ETY         0.0525
     19 H10        20.8331   38.6913   41.3997 H         1 ETY         0.2458
@<TRIPOS>BOND
     1    1    2 1  
     2    2    3 1  
     3    3    4 ar 
     4    3    6 ar 
     5    4    5 ar 
     6    5    8 ar 
     7    6    7 ar 
     8    7    8 ar 
     9    8    9 1  
    10    1   10 1  
    11    1   11 1  
    12    1   12 1  
    13    2   13 1  
    14    2   14 1  
    15    4   15 1  
    16    5   16 1  
    17    6   17 1  
    18    7   18 1  
    19    9   19 1  
@<TRIPOS>SUBSTRUCTURE
     1 ETY         1

