### 
### Created by X-TOOL on Mon Sep 10 21:12:57 2018
### 

@<TRIPOS>MOLECULE
2rc8_ligand
   14    13     1     0     0
SMALL
GAST_HUCK


@<TRIPOS>ATOM
      1 N          13.5670   46.9020    7.0420 N.4       1 DSN         0.2343
      2 CA         12.8800   48.2410    7.0130 C.3       1 DSN         0.0519
      3 C          11.8860   48.3370    8.1270 C.2       1 DSN         0.0867
      4 O          11.6010   49.4390    8.6370 O.co2     1 DSN        -0.5642
      5 OXT        11.3400   47.2860    8.5120 O.co2     1 DSN        -0.5642
      6 CB         13.8970   49.3900    7.0220 C.3       1 DSN         0.0987
      7 OG         14.6620   49.3520    8.2250 O.3       1 DSN        -0.3876
      8 H1         14.2334   46.8499    6.2875 H         1 DSN         0.2011
      9 H2         12.8817   46.1704    6.9362 H         1 DSN         0.2011
     10 H3         14.0460   46.7891    7.9217 H         1 DSN         0.2011
     11 H4         12.3215   48.3094    6.0678 H         1 DSN         0.1047
     12 H5         13.3634   50.3499    6.9594 H         1 DSN         0.0633
     13 H6         14.5704   49.2878    6.1583 H         1 DSN         0.0633
     14 H7         15.1239   48.5237    8.2792 H         1 DSN         0.2098
@<TRIPOS>BOND
     1    1    2 1  
     2    2    3 1  
     3    2    6 1  
     4    3    4 ar 
     5    3    5 ar 
     6    6    7 1  
     7    1    8 1  
     8    1    9 1  
     9    1   10 1  
    10    2   11 1  
    11    6   12 1  
    12    6   13 1  
    13    7   14 1  
@<TRIPOS>SUBSTRUCTURE
     1 DSN         1

