### 
### Created by X-TOOL on Mon Sep 10 21:12:57 2018
### 

@<TRIPOS>MOLECULE
2rc9_ligand
   14    14     1     0     0
SMALL
GAST_HUCK


@<TRIPOS>ATOM
      1 CB         13.2580    2.0980    6.6300 C.3       1 1AC         0.0032
      2 CG         14.0680    1.8950    7.9250 C.3       1 1AC         0.0032
      3 CA         13.0070    0.8750    7.5030 C.3       1 1AC         0.0326
      4 C          11.7680    0.8770    8.3610 C.2       1 1AC         0.0960
      5 OXT        11.4420    1.9370    8.9310 O.co2     1 1AC        -0.5422
      6 O          11.1150   -0.1990    8.4780 O.co2     1 1AC        -0.5422
      7 N          13.5270   -0.3910    6.9960 N.4       1 1AC         0.2229
      8 H1         13.7474    1.9843    5.6515 H         1 1AC         0.0317
      9 H2         12.5039    2.8968    6.5723 H         1 1AC         0.0317
     10 H3         13.8919    2.5466    8.7935 H         1 1AC         0.0317
     11 H4         15.1353    1.6342    7.8727 H         1 1AC         0.0317
     12 H5         12.7587   -0.9935    6.7454 H         1 1AC         0.1999
     13 H6         14.0837   -0.8354    7.7092 H         1 1AC         0.1999
     14 H7         14.0976   -0.2185    6.1832 H         1 1AC         0.1999
@<TRIPOS>BOND
     1    1    2 1  
     2    1    3 1  
     3    2    3 1  
     4    3    4 1  
     5    3    7 1  
     6    4    5 ar 
     7    4    6 ar 
     8    1    8 1  
     9    1    9 1  
    10    2   10 1  
    11    2   11 1  
    12    7   12 1  
    13    7   13 1  
    14    7   14 1  
@<TRIPOS>SUBSTRUCTURE
     1 1AC         1

