### 
### Created by X-TOOL on Mon Sep 10 21:12:57 2018
### 

@<TRIPOS>MOLECULE
2rcb_ligand
   14    13     1     0     0
SMALL
GAST_HUCK


@<TRIPOS>ATOM
      1 N          56.8520   23.9010   24.5850 N.4       1 DSN         0.2343
      2 CA         57.2810   23.1760   23.3220 C.3       1 DSN         0.0519
      3 C          58.0390   24.0780   22.3760 C.2       1 DSN         0.0867
      4 O          58.8790   23.5230   21.5900 O.co2     1 DSN        -0.5642
      5 OXT        57.7780   25.2770   22.4230 O.co2     1 DSN        -0.5642
      6 CB         58.0300   21.9010   23.6440 C.3       1 DSN         0.0987
      7 OG         59.2890   22.1130   24.3470 O.3       1 DSN        -0.3876
      8 H1         56.3517   23.2637   25.1847 H         1 DSN         0.2011
      9 H2         56.2526   24.6740   24.3416 H         1 DSN         0.2011
     10 H3         57.6669   24.2466   25.0673 H         1 DSN         0.2011
     11 H4         56.3606   22.8774   22.7990 H         1 DSN         0.1047
     12 H5         58.2449   21.3786   22.7001 H         1 DSN         0.0633
     13 H6         57.3847   21.2706   24.2733 H         1 DSN         0.0633
     14 H7         59.1199   22.5547   25.1709 H         1 DSN         0.2098
@<TRIPOS>BOND
     1    1    2 1  
     2    2    3 1  
     3    2    6 1  
     4    3    4 ar 
     5    3    5 ar 
     6    6    7 1  
     7    1    8 1  
     8    1    9 1  
     9    1   10 1  
    10    2   11 1  
    11    6   12 1  
    12    6   13 1  
    13    7   14 1  
@<TRIPOS>SUBSTRUCTURE
     1 DSN         1

