### 
### Created by X-TOOL on Sun Sep  9 21:50:34 2018
### 

@<TRIPOS>MOLECULE
2rcu_ligand
   74    73     1     0     0
SMALL
GAST_HUCK


@<TRIPOS>ATOM
      1 O14        37.7010  -21.6430   15.0640 O.co2     1 NON        -0.5689
      2 C7         37.7080  -21.5990   16.3230 C.2       1 NON         0.0372
      3 O13        36.8920  -22.2210   17.0390 O.co2     1 NON        -0.5689
      4 C4         38.7660  -20.7450   16.9860 C.3       1 NON         0.0282
      5 C1         38.6390  -20.7370   18.5120 C.3       1 NON         0.0930
      6 C3         37.7210  -19.5580   18.8510 C.3       1 NON        -0.0057
      7 N6         37.1560  -19.4980   20.2260 N.4       1 NON         0.2386
      8 C12        36.3540  -20.6820   20.5640 C.3       1 NON        -0.0417
      9 C11        36.2530  -18.3150   20.1950 C.3       1 NON        -0.0417
     10 C10        38.2340  -19.3780   21.2450 C.3       1 NON        -0.0417
     11 N2         40.0080  -20.4280   18.9110 N.am      1 NON        -0.2771
     12 C5         40.7270  -21.1410   19.7890 C.2       1 NON         0.1765
     13 O9         40.2890  -22.1280   20.3860 O.2       1 NON        -0.3971
     14 C8         42.1580  -20.6460   19.9860 C.3       1 NON         0.0372
     15 C15        42.7780  -21.0910   21.3060 C.3       1 NON        -0.0361
     16 C16        42.4280  -20.1140   22.4460 C.3       1 NON        -0.0510
     17 C17        43.2260  -20.3510   23.7220 C.3       1 NON        -0.0529
     18 C18        42.6150  -21.4300   24.5950 C.3       1 NON        -0.0531
     19 C19        43.4710  -21.6410   25.8450 C.3       1 NON        -0.0531
     20 C20        43.1080  -22.9470   26.5360 C.3       1 NON        -0.0531
     21 C21        44.0860  -23.3050   27.6540 C.3       1 NON        -0.0531
     22 C22        43.6040  -22.6990   28.9520 C.3       1 NON        -0.0531
     23 C23        44.0900  -23.4670   30.1670 C.3       1 NON        -0.0531
     24 C24        43.3150  -22.9560   31.3690 C.3       1 NON        -0.0531
     25 C25        44.0890  -23.2080   32.6490 C.3       1 NON        -0.0531
     26 C26        43.4880  -22.3940   33.7800 C.3       1 NON        -0.0533
     27 C27        43.8630  -22.9710   35.1370 C.3       1 NON        -0.0559
     28 C28        43.6020  -21.9400   36.2110 C.3       1 NON        -0.0653
     29 H1         38.6683  -19.7129   16.6182 H         1 NON         0.0455
     30 H2         39.7573  -21.1382   16.7163 H         1 NON         0.0455
     31 H3         38.2706  -21.6839   18.9335 H         1 NON         0.0628
     32 H4         36.8750  -19.5871   18.1486 H         1 NON         0.0839
     33 H5         38.2981  -18.6352   18.6919 H         1 NON         0.0839
     34 H6         35.9645  -20.5809   21.5878 H         1 NON         0.0778
     35 H7         36.9830  -21.5820   20.4982 H         1 NON         0.0778
     36 H8         35.5140  -20.7694   19.8591 H         1 NON         0.0778
     37 H9         36.8349  -17.4161   19.9432 H         1 NON         0.0778
     38 H10        35.7855  -18.1846   21.1821 H         1 NON         0.0778
     39 H11        35.4714  -18.4701   19.4367 H         1 NON         0.0778
     40 H12        38.8649  -20.2787   21.2191 H         1 NON         0.0778
     41 H13        37.7847  -19.2737   22.2436 H         1 NON         0.0778
     42 H14        38.8493  -18.4930   21.0255 H         1 NON         0.0778
     43 H15        40.4412  -19.6261   18.4995 H         1 NON         0.1857
     44 H16        42.1535  -19.5464   19.9565 H         1 NON         0.0502
     45 H17        42.7768  -21.0324   19.1627 H         1 NON         0.0502
     46 H18        43.8713  -21.1325   21.1926 H         1 NON         0.0290
     47 H19        42.3977  -22.0910   21.5616 H         1 NON         0.0290
     48 H20        41.3586  -20.2221   22.6800 H         1 NON         0.0267
     49 H21        42.6255  -19.0893   22.0982 H         1 NON         0.0267
     50 H22        43.2632  -19.4126   24.2947 H         1 NON         0.0265
     51 H23        44.2473  -20.6544   23.4485 H         1 NON         0.0265
     52 H24        42.5618  -22.3707   24.0273 H         1 NON         0.0265
     53 H25        41.6017  -21.1249   24.8951 H         1 NON         0.0265
     54 H26        43.3037  -20.8062   26.5415 H         1 NON         0.0265
     55 H27        44.5317  -21.6695   25.5549 H         1 NON         0.0265
     56 H28        43.1133  -23.7551   25.7897 H         1 NON         0.0265
     57 H29        42.0999  -22.8512   26.9656 H         1 NON         0.0265
     58 H30        45.0829  -22.9085   27.4112 H         1 NON         0.0265
     59 H31        44.1416  -24.3987   27.7574 H         1 NON         0.0265
     60 H32        42.5040  -22.6962   28.9531 H         1 NON         0.0265
     61 H33        43.9734  -21.6649   29.0173 H         1 NON         0.0265
     62 H34        45.1666  -23.2959   30.3138 H         1 NON         0.0265
     63 H35        43.9050  -24.5427   30.0303 H         1 NON         0.0265
     64 H36        42.3473  -23.4763   31.4232 H         1 NON         0.0265
     65 H37        43.1444  -21.8752   31.2565 H         1 NON         0.0265
     66 H38        45.1391  -22.9139   32.5050 H         1 NON         0.0265
     67 H39        44.0390  -24.2774   32.9018 H         1 NON         0.0265
     68 H40        42.3926  -22.3962   33.6802 H         1 NON         0.0265
     69 H41        43.8601  -21.3609   33.7149 H         1 NON         0.0265
     70 H42        44.9294  -23.2409   35.1390 H         1 NON         0.0263
     71 H43        43.2574  -23.8678   35.3344 H         1 NON         0.0263
     72 H44        43.8729  -22.3563   37.1925 H         1 NON         0.0230
     73 H45        42.5356  -21.6701   36.2089 H         1 NON         0.0230
     74 H46        44.2076  -21.0432   36.0134 H         1 NON         0.0230
@<TRIPOS>BOND
     1    1    2 ar 
     2    2    3 ar 
     3    2    4 1  
     4    4    5 1  
     5    5    6 1  
     6    5   11 1  
     7    6    7 1  
     8    7    8 1  
     9    7    9 1  
    10    7   10 1  
    11   11   12 am 
    12   12   13 2  
    13   12   14 1  
    14   14   15 1  
    15   15   16 1  
    16   16   17 1  
    17   17   18 1  
    18   18   19 1  
    19   19   20 1  
    20   20   21 1  
    21   21   22 1  
    22   22   23 1  
    23   23   24 1  
    24   24   25 1  
    25   25   26 1  
    26   26   27 1  
    27   27   28 1  
    28    4   29 1  
    29    4   30 1  
    30    5   31 1  
    31    6   32 1  
    32    6   33 1  
    33    8   34 1  
    34    8   35 1  
    35    8   36 1  
    36    9   37 1  
    37    9   38 1  
    38    9   39 1  
    39   10   40 1  
    40   10   41 1  
    41   10   42 1  
    42   11   43 1  
    43   14   44 1  
    44   14   45 1  
    45   15   46 1  
    46   15   47 1  
    47   16   48 1  
    48   16   49 1  
    49   17   50 1  
    50   17   51 1  
    51   18   52 1  
    52   18   53 1  
    53   19   54 1  
    54   19   55 1  
    55   20   56 1  
    56   20   57 1  
    57   21   58 1  
    58   21   59 1  
    59   22   60 1  
    60   22   61 1  
    61   23   62 1  
    62   23   63 1  
    63   24   64 1  
    64   24   65 1  
    65   25   66 1  
    66   25   67 1  
    67   26   68 1  
    68   26   69 1  
    69   27   70 1  
    70   27   71 1  
    71   28   72 1  
    72   28   73 1  
    73   28   74 1  
@<TRIPOS>SUBSTRUCTURE
     1 NON         1

