### 
### Created by X-TOOL on Mon Sep 10 21:12:59 2018
### 

@<TRIPOS>MOLECULE
2rcw_ligand
   44    46     1     0     0
SMALL
GAST_HUCK


@<TRIPOS>ATOM
      1 C1        -24.8700   64.2680   26.2490 C.2       1 AAI         0.1260
      2 N2        -24.8790   65.1870   25.2770 N.2       1 AAI        -0.3133
      3 C3        -26.1880   65.2880   24.8200 C.ar      1 AAI         0.0401
      4 C4        -26.9610   64.3500   25.6060 C.ar      1 AAI         0.0840
      5 N5        -26.0850   63.7380   26.4860 N.pl3     1 AAI        -0.2445
      6 C6        -26.8180   66.0740   23.8240 C.ar      1 AAI         0.0448
      7 C7        -28.2260   65.9160   23.6140 C.ar      1 AAI        -0.0583
      8 C8        -28.9780   64.9920   24.3890 C.ar      1 AAI        -0.0701
      9 C9        -28.3310   64.2120   25.3860 C.ar      1 AAI        -0.0372
     10 C10       -26.0900   67.0640   22.9750 C.2       1 AAI         0.1945
     11 N11       -24.7680   67.1630   23.1620 N.am      1 AAI        -0.3016
     12 O12       -26.6380   67.7780   22.1380 O.2       1 AAI        -0.3894
     13 C13       -23.6070   63.8700   27.0030 C.3       1 AAI         0.0516
     14 C14       -23.1630   65.0110   27.9420 C.3       1 AAI         0.0086
     15 C15       -21.9360   64.5860   28.7820 C.3       1 AAI        -0.0290
     16 N16       -22.1970   63.3540   29.5870 N.4       1 AAI         0.2355
     17 C17       -22.6400   62.2200   28.7170 C.3       1 AAI        -0.0290
     18 C18       -23.8530   62.5720   27.8200 C.3       1 AAI         0.0086
     19 C19       -21.0040   62.9840   30.4080 C.3       1 AAI        -0.0321
     20 C20       -19.7140   62.6330   29.6230 C.3       1 AAI        -0.0153
     21 C21       -18.5410   62.2900   30.5470 C.3       1 AAI        -0.0605
     22 H1        -26.3171   63.0182   27.1852 H         1 AAI         0.2327
     23 H2        -28.7240   66.5083   22.8549 H         1 AAI         0.0575
     24 H3        -30.0431   64.8822   24.2202 H         1 AAI         0.0542
     25 H4        -28.9047   63.5075   25.9773 H         1 AAI         0.0583
     26 H5        -24.2334   67.8107   22.6192 H         1 AAI         0.1805
     27 H6        -24.3152   66.5892   23.8445 H         1 AAI         0.1805
     28 H7        -22.8058   63.6812   26.2733 H         1 AAI         0.0575
     29 H8        -23.9925   65.2646   28.6184 H         1 AAI         0.0351
     30 H9        -22.8991   65.8922   27.3388 H         1 AAI         0.0351
     31 H10       -21.6748   65.4066   29.4664 H         1 AAI         0.0816
     32 H11       -21.0926   64.3923   28.1029 H         1 AAI         0.0816
     33 H12       -22.9511   63.5601   30.2233 H         1 AAI         0.2033
     34 H13       -22.9171   61.3730   29.3619 H         1 AAI         0.0816
     35 H14       -21.8001   61.9283   28.0693 H         1 AAI         0.0816
     36 H15       -24.0335   61.7408   27.1225 H         1 AAI         0.0351
     37 H16       -24.7380   62.7145   28.4575 H         1 AAI         0.0351
     38 H17       -21.2744   62.1090   31.0173 H         1 AAI         0.0814
     39 H18       -20.7743   63.8336   31.0679 H         1 AAI         0.0814
     40 H19       -19.4331   63.4961   29.0017 H         1 AAI         0.0314
     41 H20       -19.9189   61.7670   28.9765 H         1 AAI         0.0314
     42 H21       -17.6550   62.0499   29.9410 H         1 AAI         0.0232
     43 H22       -18.8058   61.4223   31.1691 H         1 AAI         0.0232
     44 H23       -18.3200   63.1515   31.1943 H         1 AAI         0.0232
@<TRIPOS>BOND
     1    1    2 2  
     2    1    5 1  
     3    1   13 1  
     4    2    3 1  
     5    3    4 ar 
     6    3    6 ar 
     7    4    5 1  
     8    4    9 ar 
     9    6    7 ar 
    10    6   10 1  
    11    7    8 ar 
    12    8    9 ar 
    13   10   11 am 
    14   10   12 2  
    15   13   14 1  
    16   13   18 1  
    17   14   15 1  
    18   15   16 1  
    19   16   17 1  
    20   16   19 1  
    21   17   18 1  
    22   19   20 1  
    23   20   21 1  
    24    5   22 1  
    25    7   23 1  
    26    8   24 1  
    27    9   25 1  
    28   11   26 1  
    29   11   27 1  
    30   13   28 1  
    31   14   29 1  
    32   14   30 1  
    33   15   31 1  
    34   15   32 1  
    35   16   33 1  
    36   17   34 1  
    37   17   35 1  
    38   18   36 1  
    39   18   37 1  
    40   19   38 1  
    41   19   39 1  
    42   20   40 1  
    43   20   41 1  
    44   21   42 1  
    45   21   43 1  
    46   21   44 1  
@<TRIPOS>SUBSTRUCTURE
     1 AAI         1

