### 
### Created by X-TOOL on Mon Sep 10 21:12:59 2018
### 

@<TRIPOS>MOLECULE
2rd6_ligand
   35    37     1     0     0
SMALL
GAST_HUCK


@<TRIPOS>ATOM
      1 C4         26.5400   65.6230    9.3920 C.ar      1 78P         0.1080
      2 C5         26.9380   66.4290   10.4920 C.ar      1 78P         0.0734
      3 C6         28.2920   66.3560   10.9360 C.ar      1 78P        -0.0399
      4 C8         25.5670   64.5520    7.7490 C.2       1 78P         0.1615
      5 C10        26.0130   67.3690   11.2180 C.2       1 78P         0.2052
      6 C13        24.4690   64.0880    6.7730 C.3       1 78P         0.0223
      7 C15        22.3940   63.6700    7.8910 C.3       1 78P        -0.0383
      8 C17        24.2720   62.5770    6.8630 C.3       1 78P        -0.0211
      9 C1         29.2270   65.4930   10.2900 C.ar      1 78P        -0.0531
     10 C2         28.8190   64.6970    9.1930 C.ar      1 78P        -0.0167
     11 C3         27.4990   64.7530    8.7410 C.ar      1 78P         0.1148
     12 N7         26.8370   64.1060    7.7180 N.pl3     1 78P        -0.2403
     13 N9         25.3440   65.4470    8.7180 N.2       1 78P        -0.2398
     14 N11        24.7080   67.3040   10.9130 N.am      1 78P        -0.2999
     15 O12        26.3940   68.1870   12.0460 O.2       1 78P        -0.3837
     16 N14        23.1570   64.6780    7.1410 N.4       1 78P         0.1873
     17 C16        23.2480   62.4100    7.9760 C.3       1 78P        -0.0148
     18 C18        24.8840   64.5500    5.3750 C.3       1 78P        -0.0376
     19 H1         28.6143   66.9634   11.7741 H         1 78P         0.0640
     20 H2         21.4513   63.4490    7.3690 H         1 78P         0.0814
     21 H3         22.1745   64.0425    8.9024 H         1 78P         0.0814
     22 H4         25.2156   62.0734    7.1199 H         1 78P         0.0225
     23 H5         23.8882   62.1746    5.9139 H         1 78P         0.0225
     24 H6         30.2519   65.4469   10.6401 H         1 78P         0.0674
     25 H7         29.5318   64.0434    8.7034 H         1 78P         0.0631
     26 H8         27.2348   63.4190    7.0617 H         1 78P         0.2356
     27 H9         24.0568   67.9096   11.3704 H         1 78P         0.1807
     28 H10        24.3865   66.6500   10.2282 H         1 78P         0.1807
     29 H11        22.6531   64.9364    6.3071 H         1 78P         0.1976
     30 H12        23.2990   65.4947    7.7145 H         1 78P         0.1976
     31 H13        22.6353   61.5116    7.8107 H         1 78P         0.0311
     32 H14        23.7442   62.3404    8.9553 H         1 78P         0.0311
     33 H15        25.8564   64.1059    5.1157 H         1 78P         0.0187
     34 H16        24.9664   65.6468    5.3607 H         1 78P         0.0187
     35 H17        24.1278   64.2294    4.6433 H         1 78P         0.0187
@<TRIPOS>BOND
     1    1    2 ar 
     2    1   11 ar 
     3   13    1 1  
     4    2    3 ar 
     5    2    5 1  
     6    3    9 ar 
     7    4    6 1  
     8    4   12 1  
     9    4   13 2  
    10    5   14 am 
    11    5   15 2  
    12    6    8 1  
    13    6   16 1  
    14    6   18 1  
    15   16    7 1  
    16    7   17 1  
    17    8   17 1  
    18    9   10 ar 
    19   10   11 ar 
    20   11   12 1  
    21    3   19 1  
    22    7   20 1  
    23    7   21 1  
    24    8   22 1  
    25    8   23 1  
    26    9   24 1  
    27   10   25 1  
    28   12   26 1  
    29   14   27 1  
    30   14   28 1  
    31   16   29 1  
    32   16   30 1  
    33   17   31 1  
    34   17   32 1  
    35   18   33 1  
    36   18   34 1  
    37   18   35 1  
@<TRIPOS>SUBSTRUCTURE
     1 78P         1

