### 
### Created by X-TOOL on Mon Sep 10 21:12:57 2018
### 

@<TRIPOS>MOLECULE
2rf2_ligand
   35    37     1     0     0
SMALL
GAST_HUCK


@<TRIPOS>ATOM
      1 BR          6.6800   10.2160   18.0890 Br        1 MRX        -0.0599
      2 C6          7.4420   11.5910   16.9300 C.ar      1 MRX        -0.0018
      3 C1          8.7500   12.1020   17.0540 C.ar      1 MRX        -0.0589
      4 C5          6.6520   12.0880   15.8560 C.ar      1 MRX        -0.0649
      5 C4          7.1630   13.0090   14.9290 C.ar      1 MRX        -0.0383
      6 C3          8.4540   13.5170   15.1070 C.ar      1 MRX         0.0721
      7 N9          9.1950   14.4610   14.3710 N.pl3     1 MRX        -0.2642
      8 C8         10.4590   14.6970   14.8560 C.2       1 MRX         0.1592
      9 C18        11.2090   15.6740   14.1570 C.2       1 MRX         0.2264
     10 N20        12.5280   16.1410   14.4480 N.am      1 MRX        -0.2988
     11 O19        10.6330   16.2420   13.1600 O.2       1 MRX        -0.3842
     12 C7         10.5760   13.8330   15.9840 C.2       1 MRX         0.1316
     13 C2          9.2890   13.0740   16.1480 C.ar      1 MRX         0.0122
     14 S10        11.9600   13.6750   17.0640 S.o2      1 MRX         0.0609
     15 O16        13.0900   14.4320   16.4800 O.2       1 MRX        -0.1537
     16 O17        11.8340   12.3280   17.5590 O.2       1 MRX        -0.1537
     17 N11        11.6390   14.5860   18.5490 N.am      1 MRX        -0.2370
     18 C15        11.5470   16.0860   18.5370 C.3       1 MRX         0.0294
     19 C14        10.9450   16.5560   19.8330 C.3       1 MRX        -0.0344
     20 C13        10.6930   15.2130   20.5450 C.3       1 MRX        -0.0344
     21 C12        10.4640   14.2360   19.3940 C.3       1 MRX         0.0294
     22 H1          9.3730   11.7460   17.8665 H         1 MRX         0.0592
     23 H2          5.6287   11.7462   15.7512 H         1 MRX         0.0570
     24 H3          6.5630   13.3239   14.0829 H         1 MRX         0.0554
     25 H4          8.8205   14.9359   13.5373 H         1 MRX         0.2268
     26 H5         12.9491   16.8411   13.8714 H         1 MRX         0.1805
     27 H6         13.0298   15.7676   15.2282 H         1 MRX         0.1805
     28 H7         10.9125   16.4088   17.6984 H         1 MRX         0.0478
     29 H8         12.5532   16.5152   18.4220 H         1 MRX         0.0478
     30 H9         10.0076   17.1069   19.6666 H         1 MRX         0.0281
     31 H10        11.6461   17.1875   20.3984 H         1 MRX         0.0281
     32 H11         9.8060   15.2719   21.1929 H         1 MRX         0.0281
     33 H12        11.5660   14.9161   21.1447 H         1 MRX         0.0281
     34 H13        10.4956   13.1891   19.7301 H         1 MRX         0.0478
     35 H14         9.5126   14.4261   18.8756 H         1 MRX         0.0478
@<TRIPOS>BOND
     1    1    2 1  
     2    2    3 ar 
     3    2    4 ar 
     4    3   13 ar 
     5    4    5 ar 
     6    5    6 ar 
     7    6    7 1  
     8    6   13 ar 
     9    7    8 1  
    10    8    9 1  
    11    8   12 2  
    12    9   10 am 
    13    9   11 2  
    14   12   13 1  
    15   12   14 1  
    16   14   15 2  
    17   14   16 2  
    18   14   17 am 
    19   17   18 1  
    20   17   21 1  
    21   18   19 1  
    22   19   20 1  
    23   20   21 1  
    24    3   22 1  
    25    4   23 1  
    26    5   24 1  
    27    7   25 1  
    28   10   26 1  
    29   10   27 1  
    30   18   28 1  
    31   18   29 1  
    32   19   30 1  
    33   19   31 1  
    34   20   32 1  
    35   20   33 1  
    36   21   34 1  
    37   21   35 1  
@<TRIPOS>SUBSTRUCTURE
     1 MRX         1

