### 
### Created by X-TOOL on Mon Sep 10 21:12:57 2018
### 

@<TRIPOS>MOLECULE
2rfh_ligand
   25    25     1     0     0
SMALL
GAST_HUCK


@<TRIPOS>ATOM
      1 CAH         9.4810  -10.0730   20.3230 C.ar      1 23N        -0.0602
      2 CAF         8.3250   -9.3720   19.9800 C.ar      1 23N        -0.0686
      3 CAE         7.3870   -9.0520   20.9680 C.ar      1 23N        -0.0687
      4 CAG         7.6260   -9.4380   22.2870 C.ar      1 23N        -0.0686
      5 CAI         8.7860  -10.1290   22.6290 C.ar      1 23N        -0.0602
      6 CAM         9.7120  -10.4540   21.6420 C.ar      1 23N        -0.0411
      7 CAJ        10.9970  -11.1850   22.0180 C.3       1 23N        -0.0024
      8 CAN        11.9930  -10.0560   22.3860 C.3       1 23N         0.0537
      9 CAL        12.3720  -10.0180   23.8860 C.2       1 23N         0.0422
     10 OAD        12.2490   -8.9020   24.4010 O.co2     1 23N        -0.5685
     11 OAA        12.7620  -11.0540   24.4830 O.co2     1 23N        -0.5685
     12 CAK        13.2130   -9.9330   21.4600 C.3       1 23N         0.1823
     13 NAO        13.7850   -8.5830   21.6850 N.2       1 23N         0.2930
     14 OAC        14.8050   -8.6270   22.6940 O.2       1 23N         0.1862
     15 OAB        14.3580   -7.9680   20.5070 O.2       1 23N         0.1862
     16 H1         10.2054  -10.3232   19.5564 H         1 23N         0.0557
     17 H2          8.1537   -9.0760   18.9514 H         1 23N         0.0599
     18 H3          6.4842   -8.5099   20.7110 H         1 23N         0.0559
     19 H4          6.9001   -9.1972   23.0552 H         1 23N         0.0599
     20 H5          8.9668  -10.4125   23.6595 H         1 23N         0.0557
     21 H6         11.3728  -11.7729   21.1677 H         1 23N         0.0447
     22 H7         10.8285  -11.8501   22.8778 H         1 23N         0.0447
     23 H8         11.4257   -9.1288   22.2176 H         1 23N         0.0513
     24 H9         12.9046  -10.0437   20.4100 H         1 23N         0.0675
     25 H10        13.9560  -10.7055   21.7074 H         1 23N         0.0675
@<TRIPOS>BOND
     1    1    2 ar 
     2    1    6 ar 
     3    2    3 ar 
     4    3    4 ar 
     5    4    5 ar 
     6    5    6 ar 
     7    6    7 1  
     8    7    8 1  
     9    8    9 1  
    10    8   12 1  
    11    9   10 ar 
    12    9   11 ar 
    13   12   13 1  
    14   13   14 2  
    15   13   15 2  
    16    1   16 1  
    17    2   17 1  
    18    3   18 1  
    19    4   19 1  
    20    5   20 1  
    21    7   21 1  
    22    7   22 1  
    23    8   23 1  
    24   12   24 1  
    25   12   25 1  
@<TRIPOS>SUBSTRUCTURE
     1 23N         1

