### 
### Created by X-TOOL on Mon Sep 10 21:12:56 2018
### 

@<TRIPOS>MOLECULE
2rfn_ligand
   81    86     1     0     0
SMALL
GAST_HUCK


@<TRIPOS>ATOM
      1 N1         58.2790    9.6300  127.1800 N.4       1 AM7         0.2385
      2 N3         63.4650   17.0740  111.4590 N.2       1 AM7        -0.2922
      3 C4         58.1170   10.3360  128.4840 C.3       1 AM7        -0.0078
      4 C5         64.5900   16.7850  108.2710 C.ar      1 AM7        -0.0196
      5 C6         65.7610   16.4710  108.9570 C.ar      1 AM7        -0.0568
      6 C7         66.8520   15.9530  108.2540 C.ar      1 AM7        -0.0677
      7 C8         66.7710   15.7430  106.8770 C.ar      1 AM7        -0.0681
      8 C10        64.5070   16.5800  106.8940 C.ar      1 AM7        -0.0568
      9 C13        63.0110   16.6030  110.2800 C.2       1 AM7         0.1680
     10 C15        61.5140   13.6160  116.4240 C.ar      1 AM7         0.1521
     11 C17        62.1090   13.3590  114.0730 C.ar      1 AM7        -0.0344
     12 C20        61.4940   15.0060  116.2800 C.ar      1 AM7        -0.0322
     13 C21        61.5920   12.4350  119.9120 C.ar      1 AM7         0.0273
     14 C22        60.2570   12.0540  120.0540 C.ar      1 AM7        -0.0223
     15 C24        60.6680   11.4880  122.3660 C.ar      1 AM7         0.1289
     16 C26        62.4510   12.3510  121.0100 C.ar      1 AM7         0.0171
     17 C28        63.4000   13.2980  118.6280 C.ar      1 AM7        -0.0090
     18 C1         57.0650    9.0140  126.5510 C.3       1 AM7        -0.0078
     19 C2         55.8300    8.8870  127.4800 C.3       1 AM7         0.0878
     20 O1         55.7990    9.8720  128.5420 O.3       1 AM7        -0.3693
     21 C3         56.9890    9.7360  129.3300 C.3       1 AM7         0.0878
     22 C33        58.8590   10.5960  126.2170 C.3       1 AM7        -0.0292
     23 C32        60.2400   10.1090  125.7810 C.3       1 AM7         0.0153
     24 C31        60.9210   11.0250  124.7470 C.3       1 AM7         0.0752
     25 O3         60.1620   10.9950  123.5270 O.3       1 AM7        -0.3149
     26 C25        61.9950   11.8690  122.2290 C.ar      1 AM7        -0.0215
     27 C23        59.7910   11.5700  121.2800 C.ar      1 AM7         0.1283
     28 O2         58.4770   11.1870  121.4690 O.3       1 AM7        -0.3208
     29 C35        57.8200   10.4470  120.4250 C.3       1 AM7         0.0581
     30 N4         63.7260   12.7300  120.9110 N.ar      1 AM7        -0.3285
     31 C27        64.2120   13.1850  119.7650 C.ar      1 AM7        -0.0137
     32 C29        62.0620   12.9230  118.6880 C.ar      1 AM7         0.1369
     33 O4         61.2080   13.0110  117.6100 O.3       1 AM7        -0.2467
     34 C16        61.8050   12.8160  115.3160 C.ar      1 AM7         0.1619
     35 F1         61.8190   11.4840  115.4580 F         1 AM7        -0.1894
     36 C19        61.7980   15.5540  115.0240 C.ar      1 AM7        -0.0718
     37 C18        62.1110   14.7460  113.9190 C.ar      1 AM7        -0.0377
     38 C11        62.3950   15.3320  112.6720 C.2       1 AM7         0.0440
     39 C12        61.8880   14.7980  111.4680 C.2       1 AM7         0.2208
     40 O5         61.1870   13.7770  111.4530 O.2       1 AM7        -0.4045
     41 N2         62.1940   15.4410  110.2450 N.am      1 AM7        -0.1808
     42 C34        61.6680   14.8790  108.9570 C.3       1 AM7         0.0623
     43 C14        63.1810   16.4820  112.6130 C.2       1 AM7        -0.0130
     44 C30        63.3790   17.3660  109.0060 C.3       1 AM7         0.0745
     45 C9         65.5900   16.0540  106.2030 C.ar      1 AM7        -0.0677
     46 H1         58.9389    8.8832  127.3314 H         1 AM7         0.2035
     47 H2         57.8887   11.3941  128.2882 H         1 AM7         0.0837
     48 H3         59.0594   10.2622  129.0464 H         1 AM7         0.0837
     49 H4         65.8254   16.6272  110.0277 H         1 AM7         0.0565
     50 H5         67.7676   15.7127  108.7822 H         1 AM7         0.0601
     51 H6         67.6195   15.3412  106.3350 H         1 AM7         0.0564
     52 H7         63.5961   16.8316  106.3629 H         1 AM7         0.0565
     53 H8         62.3416   12.7133  113.2340 H         1 AM7         0.0533
     54 H9         61.2492   15.6466  117.1195 H         1 AM7         0.0540
     55 H10        59.5796   12.1335  119.2115 H         1 AM7         0.0520
     56 H11        63.8151   13.6779  117.7015 H         1 AM7         0.0547
     57 H12        57.3358    8.0053  126.2058 H         1 AM7         0.0837
     58 H13        56.7786    9.6325  125.6876 H         1 AM7         0.0837
     59 H14        55.8386    7.8855  127.9349 H         1 AM7         0.0613
     60 H15        54.9223    9.0049  126.8699 H         1 AM7         0.0613
     61 H16        56.8864   10.2852  130.2775 H         1 AM7         0.0613
     62 H17        57.1902    8.6753  129.5409 H         1 AM7         0.0613
     63 H18        58.9517   11.5817  126.6964 H         1 AM7         0.0815
     64 H19        58.2034   10.6762  125.3374 H         1 AM7         0.0815
     65 H20        60.1317    9.1073  125.3396 H         1 AM7         0.0343
     66 H21        60.8844   10.0501  126.6705 H         1 AM7         0.0343
     67 H22        61.9436   10.6683  124.5545 H         1 AM7         0.0616
     68 H23        60.9583   12.0542  125.1334 H         1 AM7         0.0616
     69 H24        62.6732   11.7905  123.0710 H         1 AM7         0.0484
     70 H25        56.7874   10.2213  120.7297 H         1 AM7         0.0575
     71 H26        58.3627    9.5074  120.2442 H         1 AM7         0.0575
     72 H27        57.8074   11.0464  119.5028 H         1 AM7         0.0575
     73 H28        65.2549   13.4746  119.7060 H         1 AM7         0.0771
     74 H29        61.7909   16.6313  114.9037 H         1 AM7         0.0519
     75 H30        62.0053   15.5061  108.1185 H         1 AM7         0.0602
     76 H31        60.5685   14.8648  108.9850 H         1 AM7         0.0602
     77 H32        62.0447   13.8542  108.8231 H         1 AM7         0.0602
     78 H33        63.5720   16.9055  113.5370 H         1 AM7         0.0818
     79 H34        62.5152   17.3430  108.3253 H         1 AM7         0.0728
     80 H35        63.6042   18.4079  109.2776 H         1 AM7         0.0728
     81 H36        65.5176   15.8842  105.1348 H         1 AM7         0.0601
@<TRIPOS>BOND
     1    1    3 1  
     2    1   18 1  
     3   22    1 1  
     4    2    9 2  
     5   43    2 1  
     6    3   21 1  
     7    4    5 ar 
     8    4    8 ar 
     9   44    4 1  
    10    5    6 ar 
    11    6    7 ar 
    12   45    7 ar 
    13    8   45 ar 
    14    9   41 1  
    15    9   44 1  
    16   12   10 ar 
    17   10   33 1  
    18   34   10 ar 
    19   11   34 ar 
    20   37   11 ar 
    21   36   12 ar 
    22   13   14 ar 
    23   13   16 ar 
    24   32   13 ar 
    25   14   27 ar 
    26   15   25 1  
    27   26   15 ar 
    28   27   15 ar 
    29   16   26 ar 
    30   16   30 ar 
    31   17   31 ar 
    32   32   17 ar 
    33   18   19 1  
    34   19   20 1  
    35   21   20 1  
    36   23   22 1  
    37   24   23 1  
    38   25   24 1  
    39   27   28 1  
    40   28   29 1  
    41   31   30 ar 
    42   33   32 1  
    43   34   35 1  
    44   37   36 ar 
    45   38   37 1  
    46   38   39 1  
    47   38   43 2  
    48   39   40 2  
    49   39   41 am 
    50   41   42 1  
    51    1   46 1  
    52    3   47 1  
    53    3   48 1  
    54    5   49 1  
    55    6   50 1  
    56    7   51 1  
    57    8   52 1  
    58   11   53 1  
    59   12   54 1  
    60   14   55 1  
    61   17   56 1  
    62   18   57 1  
    63   18   58 1  
    64   19   59 1  
    65   19   60 1  
    66   21   61 1  
    67   21   62 1  
    68   22   63 1  
    69   22   64 1  
    70   23   65 1  
    71   23   66 1  
    72   24   67 1  
    73   24   68 1  
    74   26   69 1  
    75   29   70 1  
    76   29   71 1  
    77   29   72 1  
    78   31   73 1  
    79   36   74 1  
    80   42   75 1  
    81   42   76 1  
    82   42   77 1  
    83   43   78 1  
    84   44   79 1  
    85   44   80 1  
    86   45   81 1  
@<TRIPOS>SUBSTRUCTURE
     1 AM7         1

