### 
### Created by X-TOOL on Sun Sep  9 21:50:45 2018
### 

@<TRIPOS>MOLECULE
2rfy_ligand
   45    46     1     0     0
SMALL
GAST_HUCK


@<TRIPOS>ATOM
      1 C1         -0.2090   -5.2640   75.8990 C.3       1 NON         0.1884
      2 C2          0.8220   -4.2910   75.3180 C.3       1 NON         0.1341
      3 C3          0.8520   -4.3480   73.7900 C.3       1 NON         0.1141
      4 C4          0.8400   -5.7940   73.2910 C.3       1 NON         0.1119
      5 C5         -0.2460   -6.6040   74.0040 C.3       1 NON         0.1130
      6 C6         -0.1760   -8.0640   73.5450 C.3       1 NON         0.0730
      7 O2          0.4730   -2.9840   75.7780 O.3       1 NON        -0.3841
      8 O3          2.0350   -3.7060   73.2970 O.3       1 NON        -0.3864
      9 O4          0.6350   -5.8390   71.8820 O.3       1 NON        -0.3865
     10 O5          0.0730   -6.5790   75.4090 O.3       1 NON        -0.3405
     11 O6         -1.2630   -8.7740   74.1510 O.3       1 NON        -0.3924
     12 C1'        -1.6000   -7.2850   80.3020 C.3       1 NON         0.1854
     13 C2'        -1.5520   -8.2030   79.0760 C.3       1 NON         0.1339
     14 C3'        -0.9050   -7.4370   77.9260 C.3       1 NON         0.1144
     15 C4'        -1.2290   -5.9660   77.8750 C.3       1 NON         0.1184
     16 C5'        -1.7380   -5.2870   79.1170 C.3       1 NON         0.1134
     17 C6'        -2.7170   -4.1740   78.6980 C.3       1 NON         0.0730
     18 O1'        -1.9960   -7.9400   81.4930 O.3       1 NON        -0.3649
     19 O2'        -0.7600   -9.3560   79.3920 O.3       1 NON        -0.3841
     20 O3'        -1.1560   -8.0500   76.6570 O.3       1 NON        -0.3864
     21 O4'        -0.1240   -5.2470   77.3300 O.3       1 NON        -0.3401
     22 O5'        -2.4590   -6.1850   79.9770 O.3       1 NON        -0.3407
     23 O6'        -3.1570   -4.4220   77.3630 O.3       1 NON        -0.3924
     24 H1         -1.2202   -4.9630   75.5879 H         1 NON         0.0938
     25 H2          1.8211   -4.5545   75.6953 H         1 NON         0.0671
     26 H3         -0.0339   -3.8260   73.3993 H         1 NON         0.0648
     27 H4          1.8171   -6.2463   73.5161 H         1 NON         0.0647
     28 H5         -1.2429   -6.1807   73.8116 H         1 NON         0.0647
     29 H6          0.7802   -8.5080   73.8587 H         1 NON         0.0584
     30 H7         -0.2621   -8.1150   72.4496 H         1 NON         0.0584
     31 H8          0.4617   -2.9764   76.7279 H         1 NON         0.2101
     32 H9          2.0300   -3.7216   72.3472 H         1 NON         0.2100
     33 H10         1.3129   -5.3342   71.4482 H         1 NON         0.2100
     34 H11        -1.1848   -8.7236   75.0964 H         1 NON         0.2095
     35 H12        -0.5864   -6.8930   80.4722 H         1 NON         0.0935
     36 H13        -2.5693   -8.5134   78.7954 H         1 NON         0.0671
     37 H14         0.1795   -7.5032   78.0976 H         1 NON         0.0648
     38 H15        -2.0511   -5.8803   77.1492 H         1 NON         0.0651
     39 H16        -0.8879   -4.8578   79.6676 H         1 NON         0.0647
     40 H17        -2.2092   -3.1993   78.7441 H         1 NON         0.0584
     41 H18        -3.5825   -4.1690   79.3768 H         1 NON         0.0584
     42 H19        -1.4016   -8.6597   81.6700 H         1 NON         0.2126
     43 H20         0.1121   -9.0794   79.6475 H         1 NON         0.2101
     44 H21        -0.6147   -7.6370   75.9945 H         1 NON         0.2100
     45 H22        -2.4073   -4.4269   76.7794 H         1 NON         0.2095
@<TRIPOS>BOND
     1    1    2 1  
     2    1   10 1  
     3   21    1 1  
     4    2    3 1  
     5    2    7 1  
     6    3    4 1  
     7    3    8 1  
     8    5    4 1  
     9    4    9 1  
    10    5    6 1  
    11   10    5 1  
    12    6   11 1  
    13   13   12 1  
    14   12   18 1  
    15   12   22 1  
    16   14   13 1  
    17   13   19 1  
    18   15   14 1  
    19   14   20 1  
    20   15   16 1  
    21   15   21 1  
    22   16   17 1  
    23   16   22 1  
    24   17   23 1  
    25    1   24 1  
    26    2   25 1  
    27    3   26 1  
    28    4   27 1  
    29    5   28 1  
    30    6   29 1  
    31    6   30 1  
    32    7   31 1  
    33    8   32 1  
    34    9   33 1  
    35   11   34 1  
    36   12   35 1  
    37   13   36 1  
    38   14   37 1  
    39   15   38 1  
    40   16   39 1  
    41   17   40 1  
    42   17   41 1  
    43   18   42 1  
    44   19   43 1  
    45   20   44 1  
    46   23   45 1  
@<TRIPOS>SUBSTRUCTURE
     1 NON         1

