### 
### Created by X-TOOL on Mon Sep 10 21:12:59 2018
### 

@<TRIPOS>MOLECULE
2rg5_ligand
   50    52     1     0     0
SMALL
GAST_HUCK


@<TRIPOS>ATOM
      1 C1         -3.8850   -0.0190   14.0800 C.ar      1 279        -0.0596
      2 C2         -4.9140   -0.4950   14.9190 C.ar      1 279        -0.0633
      3 C3         -2.2600   -1.1680   15.4190 C.ar      1 279        -0.0240
      4 C4         -1.4860   -3.3000   21.6710 C.2       1 279         0.0714
      5 C5         -2.5430   -0.3520   14.3350 C.ar      1 279         0.0353
      6 C6         -1.6320   -4.5170   21.0300 C.2       1 279         0.0428
      7 C7         -4.6090   -1.3150   16.0190 C.ar      1 279        -0.0158
      8 C8         -2.0560   -4.2370   19.6850 C.2       1 279        -0.0207
      9 C9         -3.2700   -1.6460   16.2550 C.ar      1 279         0.0752
     10 C10        -2.1590   -2.8570   19.5990 C.2       1 279         0.1543
     11 C11        -2.1300   -0.2140   20.0540 C.2       1 279         0.0753
     12 C12        -2.5320   -1.9590   18.5480 C.2       1 279         0.1674
     13 C13        -1.3570    0.0700   13.5290 C.2       1 279         0.2203
     14 C14        -1.3530   -5.8080   21.6400 C.2       1 279         0.1805
     15 C15        -5.6800   -1.8450   16.9270 C.3       1 279        -0.0309
     16 C16        -2.3500   -5.2380   18.6190 C.3       1 279        -0.0434
     17 C17         1.1250   -7.4270   22.9230 C.3       1 279        -0.0450
     18 C18         0.2780    1.3670   11.0850 C.3       1 279         0.0682
     19 C19        -0.1570   -6.8670   23.5180 C.3       1 279         0.0270
     20 N20        -1.7940   -0.9580   21.0640 N.2       1 279        -0.1689
     21 N21        -2.4920   -0.6700   18.8050 N.2       1 279        -0.2776
     22 N22        -1.8180   -2.3020   20.8000 N.pl3     1 279        -0.1649
     23 N23        -2.9030   -2.4660   17.3270 N.pl3     1 279        -0.2480
     24 N24        -0.5610   -5.7080   22.7640 N.am      1 279        -0.2911
     25 N25        -1.5080    1.0530   12.5640 N.am      1 279        -0.1618
     26 O26        -0.2850   -0.4870   13.7610 O.2       1 279        -0.3880
     27 O27        -1.7670   -6.8690   21.1840 O.2       1 279        -0.3989
     28 O28        -0.2810    1.7590   12.3370 O.3       1 279        -0.2602
     29 H1         -4.1309    0.6089   13.2313 H         1 279         0.0558
     30 H2         -5.9443   -0.2273   14.7146 H         1 279         0.0539
     31 H3         -1.2308   -1.4411   15.6220 H         1 279         0.0568
     32 H4         -1.1600   -3.1607   22.7007 H         1 279         0.0911
     33 H5         -2.1253    0.8641   20.2075 H         1 279         0.1036
     34 H6         -6.6613   -1.4818   16.5876 H         1 279         0.0379
     35 H7         -5.4954   -1.4969   17.9540 H         1 279         0.0379
     36 H8         -5.6684   -2.9447   16.9049 H         1 279         0.0379
     37 H9         -2.1682   -6.2511   19.0071 H         1 279         0.0341
     38 H10        -1.6967   -5.0544   17.7533 H         1 279         0.0341
     39 H11        -3.4019   -5.1469   18.3105 H         1 279         0.0341
     40 H12         1.4384   -8.3127   23.4951 H         1 279         0.0249
     41 H13         1.9148   -6.6628   22.9686 H         1 279         0.0249
     42 H14         0.9494   -7.7108   21.8749 H         1 279         0.0249
     43 H15         1.2187    1.9119   10.9168 H         1 279         0.0553
     44 H16        -0.4310    1.6015   10.2773 H         1 279         0.0553
     45 H17         0.4776    0.2853   11.0951 H         1 279         0.0553
     46 H18         0.0174   -6.5819   24.5660 H         1 279         0.0516
     47 H19        -0.9481   -7.6300   23.4723 H         1 279         0.0516
     48 H20        -2.9113   -3.4876   17.1958 H         1 279         0.2186
     49 H21        -0.2579   -4.8038   23.0649 H         1 279         0.1836
     50 H22        -2.3650    1.2457   12.0861 H         1 279         0.2213
@<TRIPOS>BOND
     1    1    2 ar 
     2    5    1 ar 
     3    2    7 ar 
     4    5    3 ar 
     5    3    9 ar 
     6    4    6 2  
     7   22    4 1  
     8   13    5 1  
     9    8    6 1  
    10    6   14 1  
    11    9    7 ar 
    12    7   15 1  
    13   10    8 2  
    14    8   16 1  
    15    9   23 1  
    16   12   10 1  
    17   10   22 1  
    18   11   20 2  
    19   21   11 1  
    20   12   21 2  
    21   23   12 1  
    22   25   13 am 
    23   13   26 2  
    24   14   24 am 
    25   14   27 2  
    26   19   17 1  
    27   28   18 1  
    28   24   19 1  
    29   22   20 1  
    30   25   28 1  
    31    1   29 1  
    32    2   30 1  
    33    3   31 1  
    34    4   32 1  
    35   11   33 1  
    36   15   34 1  
    37   15   35 1  
    38   15   36 1  
    39   16   37 1  
    40   16   38 1  
    41   16   39 1  
    42   17   40 1  
    43   17   41 1  
    44   17   42 1  
    45   18   43 1  
    46   18   44 1  
    47   18   45 1  
    48   19   46 1  
    49   19   47 1  
    50   23   48 1  
    51   24   49 1  
    52   25   50 1  
@<TRIPOS>SUBSTRUCTURE
     1 279         1

