### 
### Created by X-TOOL on Mon Sep 10 21:12:58 2018
### 

@<TRIPOS>MOLECULE
2rg6_ligand
   60    63     1     0     0
SMALL
GAST_HUCK


@<TRIPOS>ATOM
      1 C1         -4.1490   -4.9920   28.0210 C.ar      1 287        -0.0687
      2 C2         -3.6380   -6.1710   27.4910 C.ar      1 287        -0.0685
      3 C3         -3.6950   -3.7650   27.5510 C.ar      1 287        -0.0685
      4 C4         -3.5900    1.0930   14.4390 C.ar      1 287        -0.0596
      5 C5         -2.6720   -6.1310   26.4850 C.ar      1 287        -0.0582
      6 C6         -2.7260   -3.7200   26.5460 C.ar      1 287        -0.0582
      7 C7         -4.6910    0.6260   15.1780 C.ar      1 287        -0.0633
      8 C8         -2.0950    0.0630   16.0180 C.ar      1 287        -0.0240
      9 C9         -1.9470   -1.4280   22.4870 C.2       1 287         0.0714
     10 C10        -2.2910    0.8050   14.8620 C.ar      1 287         0.0353
     11 C11        -1.9730   -2.7090   21.9890 C.2       1 287         0.0430
     12 C12        -2.1980   -4.9020   26.0020 C.ar      1 287        -0.0184
     13 C13        -4.4940   -0.1120   16.3520 C.ar      1 287        -0.0158
     14 C14        -2.2510   -2.6200   20.5870 C.2       1 287        -0.0207
     15 C15        -3.1750   -0.4030   16.7560 C.ar      1 287         0.0752
     16 C16        -2.3760   -1.2650   20.3060 C.2       1 287         0.1543
     17 C17        -2.4830    1.3880   20.4350 C.2       1 287         0.0753
     18 C18        -2.6650   -0.5100   19.1040 C.2       1 287         0.1674
     19 C19        -1.0740    1.2360   14.1270 C.2       1 287         0.2203
     20 C20        -1.7760   -3.9320   22.7500 C.2       1 287         0.1825
     21 C21        -5.6870   -0.5940   17.1420 C.3       1 287        -0.0309
     22 C22        -2.3710   -3.7830   19.6720 C.3       1 287        -0.0434
     23 C23         0.2820   -4.9080   25.4190 C.3       1 287        -0.0320
     24 C24         0.2640    2.3180   11.4950 C.3       1 287         0.0682
     25 C25        -1.1530   -4.8910   24.9120 C.3       1 287         0.0717
     26 N26        -2.2350    0.7860   21.5600 N.2       1 287        -0.1689
     27 N27        -2.6850    0.7920   19.2080 N.2       1 287        -0.2776
     28 N28        -2.1950   -0.5660   21.4620 N.pl3     1 287        -0.1649
     29 N29        -2.9010   -1.1470   17.9130 N.pl3     1 287        -0.2480
     30 N30        -1.3410   -3.7480   24.0350 N.am      1 287        -0.2768
     31 N31        -1.2510    2.2630   13.2350 N.am      1 287        -0.1618
     32 O32        -0.0240    0.6130   14.2640 O.2       1 287        -0.3880
     33 O33        -1.9690   -5.0280   22.2500 O.2       1 287        -0.3987
     34 O34        -0.0020    2.7890   12.8200 O.3       1 287        -0.2602
     35 H1         -4.9013   -5.0293   28.8006 H         1 287         0.0559
     36 H2         -3.9918   -7.1264   27.8611 H         1 287         0.0599
     37 H3         -4.0923   -2.8447   27.9637 H         1 287         0.0599
     38 H4         -3.7498    1.6772   13.5400 H         1 287         0.0558
     39 H5         -2.2849   -7.0562   26.0736 H         1 287         0.0557
     40 H6         -2.3772   -2.7606   26.1814 H         1 287         0.0557
     41 H7         -5.6980    0.8383   14.8373 H         1 287         0.0539
     42 H8         -1.0862   -0.1556   16.3491 H         1 287         0.0568
     43 H9         -1.7602   -1.1501   23.5232 H         1 287         0.0911
     44 H10        -2.5368    2.4753   20.4645 H         1 287         0.1036
     45 H11        -6.6120   -0.2565   16.6517 H         1 287         0.0379
     46 H12        -5.6417   -0.1837   18.1616 H         1 287         0.0379
     47 H13        -5.6765   -1.6930   17.1882 H         1 287         0.0379
     48 H14        -2.2119   -4.7127   20.2380 H         1 287         0.0341
     49 H15        -1.6148   -3.7037   18.8771 H         1 287         0.0341
     50 H16        -3.3752   -3.7943   19.2231 H         1 287         0.0341
     51 H17         0.9733   -4.8986   24.5634 H         1 287         0.0274
     52 H18         0.4494   -5.8169   26.0156 H         1 287         0.0274
     53 H19         0.4605   -4.0208   26.0443 H         1 287         0.0274
     54 H20         1.2309    2.7149   11.1520 H         1 287         0.0553
     55 H21        -0.5332    2.6585   10.8178 H         1 287         0.0553
     56 H22         0.2989    1.2186   11.4967 H         1 287         0.0553
     57 H23        -1.2994   -5.8041   24.3164 H         1 287         0.0715
     58 H24        -2.8770   -2.1757   17.8678 H         1 287         0.2186
     59 H25        -1.1523   -2.8251   24.3706 H         1 287         0.1866
     60 H26        -2.1402    2.5953   12.9204 H         1 287         0.2213
@<TRIPOS>BOND
     1    2    1 ar 
     2    3    1 ar 
     3    5    2 ar 
     4    6    3 ar 
     5    4    7 ar 
     6   10    4 ar 
     7   12    5 ar 
     8   12    6 ar 
     9    7   13 ar 
    10   10    8 ar 
    11    8   15 ar 
    12    9   11 2  
    13   28    9 1  
    14   19   10 1  
    15   14   11 1  
    16   11   20 1  
    17   25   12 1  
    18   15   13 ar 
    19   13   21 1  
    20   16   14 2  
    21   14   22 1  
    22   15   29 1  
    23   18   16 1  
    24   16   28 1  
    25   17   26 2  
    26   27   17 1  
    27   18   27 2  
    28   29   18 1  
    29   31   19 am 
    30   19   32 2  
    31   20   30 am 
    32   20   33 2  
    33   25   23 1  
    34   34   24 1  
    35   30   25 1  
    36   28   26 1  
    37   31   34 1  
    38    1   35 1  
    39    2   36 1  
    40    3   37 1  
    41    4   38 1  
    42    5   39 1  
    43    6   40 1  
    44    7   41 1  
    45    8   42 1  
    46    9   43 1  
    47   17   44 1  
    48   21   45 1  
    49   21   46 1  
    50   21   47 1  
    51   22   48 1  
    52   22   49 1  
    53   22   50 1  
    54   23   51 1  
    55   23   52 1  
    56   23   53 1  
    57   24   54 1  
    58   24   55 1  
    59   24   56 1  
    60   25   57 1  
    61   29   58 1  
    62   30   59 1  
    63   31   60 1  
@<TRIPOS>SUBSTRUCTURE
     1 287         1

