### 
### Created by X-TOOL on Mon Sep 10 21:12:59 2018
### 

@<TRIPOS>MOLECULE
2rgp_ligand
   58    62     1     0     0
SMALL
GAST_HUCK


@<TRIPOS>ATOM
      1 C1         14.7180   40.1160   97.0990 C.ar      1 HYZ        -0.0352
      2 C2         16.0310   40.2220   97.6320 C.ar      1 HYZ        -0.0703
      3 C3         16.8780   39.0760   97.6860 C.ar      1 HYZ        -0.0618
      4 N6         13.9670   33.2580   86.9490 N.pl3     1 HYZ        -0.3164
      5 C7         17.3230   36.5580   97.2600 C.3       1 HYZ         0.0977
      6 C8         15.5850   33.7600   95.9940 C.2       1 HYZ         0.0178
      7 C9         16.0750   34.2210   94.7560 C.ar      1 HYZ        -0.0007
      8 C10        16.8400   35.3580   95.0700 C.ar      1 HYZ         0.0840
      9 C11        17.5140   36.1290   94.0760 C.ar      1 HYZ        -0.0402
     10 C12        17.3900   35.7120   92.7350 C.ar      1 HYZ        -0.0436
     11 C13        16.6250   34.5740   92.3820 C.ar      1 HYZ         0.0537
     12 C14        15.9650   33.8170   93.4030 C.ar      1 HYZ        -0.0429
     13 C15        14.1240   33.6450   88.2640 C.ar      1 HYZ         0.1230
     14 C16        15.3910   33.7190   88.8960 C.ar      1 HYZ         0.0785
     15 C19        16.6440   33.3950   88.1860 C.2       1 HYZ         0.0295
     16 C20        19.5090   31.9970   84.8580 C.3       1 HYZ        -0.0317
     17 C21        18.1270   31.9340   85.5370 C.3       1 HYZ         0.0399
     18 C22        19.1670   31.5240   87.7400 C.3       1 HYZ         0.0399
     19 C24        20.5540   31.1900   85.6350 C.3       1 HYZ        -0.0493
     20 C4         16.4190   37.8080   97.2090 C.ar      1 HYZ        -0.0150
     21 C5         15.0830   37.7300   96.6750 C.ar      1 HYZ        -0.0244
     22 C6         14.2560   38.8690   96.6250 C.ar      1 HYZ         0.1259
     23 F1         13.0110   38.7560   96.1180 F         1 HYZ        -0.1853
     24 N1         16.7310   35.4930   96.4340 N.pl3     1 HYZ        -0.1928
     25 N2         15.9710   34.5190   97.0190 N.2       1 HYZ        -0.2038
     26 N3         16.5250   34.2480   91.0370 N.pl3     1 HYZ        -0.2611
     27 N4         12.9540   33.9630   88.9110 N.ar      1 HYZ        -0.2688
     28 C17        15.3910   34.1200   90.2310 C.ar      1 HYZ         0.1424
     29 N5         14.2120   34.4440   90.8920 N.ar      1 HYZ        -0.2664
     30 C18        13.0410   34.3520   90.2010 C.ar      1 HYZ         0.0564
     31 N7         16.9000   32.2900   87.5590 N.2       1 HYZ        -0.2255
     32 N8         18.1460   32.3440   86.9840 N.pl3     1 HYZ        -0.2577
     33 C23        20.5730   31.5960   87.1120 C.3       1 HYZ        -0.0317
     34 H1         14.0749   40.9876   97.0566 H         1 HYZ         0.0546
     35 H2         16.3899   41.1769   97.9987 H         1 HYZ         0.0589
     36 H3         17.8789   39.1666   98.0923 H         1 HYZ         0.0523
     37 H4         13.0258   33.2192   86.5324 H         1 HYZ         0.1817
     38 H5         14.7910   33.0079   86.3839 H         1 HYZ         0.1817
     39 H6         17.4103   36.2103   98.2999 H         1 HYZ         0.0776
     40 H7         18.3211   36.8107   96.8729 H         1 HYZ         0.0776
     41 H8         14.9572   32.8767   96.1018 H         1 HYZ         0.0703
     42 H9         18.0990   37.0020   94.3420 H         1 HYZ         0.0544
     43 H10        17.8917   36.2753   91.9565 H         1 HYZ         0.0529
     44 H11        15.3845   32.9396   93.1417 H         1 HYZ         0.0480
     45 H12        17.4249   34.1541   88.1894 H         1 HYZ         0.0749
     46 H13        19.8342   33.0465   84.8061 H         1 HYZ         0.0285
     47 H14        19.4261   31.5881   83.8402 H         1 HYZ         0.0285
     48 H15        17.7555   30.9006   85.4736 H         1 HYZ         0.0531
     49 H16        17.4428   32.6035   84.9952 H         1 HYZ         0.0531
     50 H17        18.8388   30.4741   87.7479 H         1 HYZ         0.0531
     51 H18        19.2237   31.8983   88.7728 H         1 HYZ         0.0531
     52 H19        21.5471   31.3728   85.1988 H         1 HYZ         0.0267
     53 H20        20.3115   30.1198   85.5591 H         1 HYZ         0.0267
     54 H21        14.7092   36.7815   96.3066 H         1 HYZ         0.0543
     55 H22        17.4218   34.0742   90.5611 H         1 HYZ         0.2142
     56 H23        12.1233   34.6067   90.7187 H         1 HYZ         0.1028
     57 H24        21.2435   30.9175   87.6598 H         1 HYZ         0.0285
     58 H25        20.9478   32.6269   87.1937 H         1 HYZ         0.0285
@<TRIPOS>BOND
     1    2    1 ar 
     2   22    1 ar 
     3    3    2 ar 
     4   20    3 ar 
     5   13    4 1  
     6    5   20 1  
     7   24    5 1  
     8    7    6 1  
     9    6   25 2  
    10    7    8 ar 
    11   12    7 ar 
    12    9    8 ar 
    13    8   24 1  
    14   10    9 ar 
    15   11   10 ar 
    16   11   12 ar 
    17   26   11 1  
    18   14   13 ar 
    19   13   27 ar 
    20   15   14 1  
    21   14   28 ar 
    22   31   15 2  
    23   17   16 1  
    24   16   19 1  
    25   32   17 1  
    26   32   18 1  
    27   18   33 1  
    28   33   19 1  
    29   20   21 ar 
    30   21   22 ar 
    31   22   23 1  
    32   24   25 1  
    33   28   26 1  
    34   27   30 ar 
    35   28   29 ar 
    36   29   30 ar 
    37   31   32 1  
    38    1   34 1  
    39    2   35 1  
    40    3   36 1  
    41    4   37 1  
    42    4   38 1  
    43    5   39 1  
    44    5   40 1  
    45    6   41 1  
    46    9   42 1  
    47   10   43 1  
    48   12   44 1  
    49   15   45 1  
    50   16   46 1  
    51   16   47 1  
    52   17   48 1  
    53   17   49 1  
    54   18   50 1  
    55   18   51 1  
    56   19   52 1  
    57   19   53 1  
    58   21   54 1  
    59   26   55 1  
    60   30   56 1  
    61   33   57 1  
    62   33   58 1  
@<TRIPOS>SUBSTRUCTURE
     1 HYZ         1

