### 
### Created by X-TOOL on Sun Sep  9 21:50:39 2018
### 

@<TRIPOS>MOLECULE
2rgu_ligand
   64    68     1     0     0
SMALL
GAST_HUCK


@<TRIPOS>ATOM
      1 C1         69.0230   69.5870   69.8910 C.2       1 NON         0.1472
      2 N2         68.5930   70.8800   69.4780 N.pl3     1 NON        -0.2233
      3 C3         68.6460   69.4700   71.2410 C.2       1 NON         0.1164
      4 C4         69.6890   68.4790   69.3030 C.2       1 NON         0.2212
      5 C5         67.9320   71.3720   70.6010 C.2       1 NON         0.2121
      6 C6         68.7950   71.5900   68.1420 C.3       1 NON         0.1131
      7 N7         68.0080   70.5350   71.5700 N.2       1 NON        -0.2876
      8 N8         68.9620   68.3370   71.9770 N.am      1 NON        -0.2062
      9 N9         69.9520   67.3480   70.0640 N.am      1 NON        -0.1551
     10 O10        70.0100   68.5270   68.1350 O.2       1 NON        -0.4074
     11 N11        67.2480   72.5290   70.7930 N.pl3     1 NON        -0.2603
     12 C12        68.0580   71.1430   66.9590 C.1       1 NON        -0.0710
     13 C13        69.5960   67.2990   71.3980 C.2       1 NON         0.3203
     14 C14        68.5970   68.2960   73.4070 C.3       1 NON         0.0445
     15 C15        70.6310   66.1760   69.4380 C.3       1 NON         0.1229
     16 C16        66.3910   73.0560   69.7640 C.3       1 NON         0.0774
     17 C17        67.5170   73.3980   71.8960 C.3       1 NON         0.0352
     18 C18        67.5090   70.8750   65.9620 C.1       1 NON        -0.1030
     19 O19        69.8520   66.3150   72.0710 O.2       1 NON        -0.3872
     20 C20        69.7000   64.9760   69.5580 C.ar      1 NON         0.1129
     21 C21        65.0140   72.7450   70.3660 C.3       1 NON        -0.0033
     22 C22        66.1730   73.3450   72.7010 C.3       1 NON        -0.0272
     23 C23        66.8410   70.5880   64.6840 C.3       1 NON        -0.0025
     24 N24        68.4020   65.1560   69.3030 N.ar      1 NON        -0.2851
     25 N25        70.2020   63.7850   69.9320 N.ar      1 NON        -0.2609
     26 C26        64.8790   73.4740   71.7640 C.3       1 NON        -0.0060
     27 N27        63.9670   73.1820   69.4360 N.4       1 NON         0.2222
     28 C28        67.5260   64.1350   69.4110 C.ar      1 NON         0.0411
     29 C29        69.4330   62.6890   70.0740 C.ar      1 NON         0.0506
     30 C30        68.0230   62.8080   69.8190 C.ar      1 NON         0.0309
     31 C31        66.1440   64.3100   69.1420 C.ar      1 NON        -0.0408
     32 C32        70.0490   61.3740   70.4930 C.3       1 NON        -0.0041
     33 C33        67.1010   61.7110   69.9400 C.ar      1 NON        -0.0424
     34 C34        65.2750   63.2230   69.2680 C.ar      1 NON        -0.0559
     35 C35        65.7520   61.9260   69.6670 C.ar      1 NON        -0.0549
     36 H1         69.8648   71.5112   67.8986 H         1 NON         0.0735
     37 H2         68.5317   72.6462   68.3002 H         1 NON         0.0735
     38 H3         68.0909   69.2328   73.6832 H         1 NON         0.0549
     39 H4         69.5065   68.1777   74.0143 H         1 NON         0.0549
     40 H5         67.9216   67.4470   73.5889 H         1 NON         0.0549
     41 H6         71.5766   65.9690   69.9604 H         1 NON         0.0817
     42 H7         70.8360   66.3853   68.3777 H         1 NON         0.0817
     43 H8         66.5417   72.5390   68.8048 H         1 NON         0.0581
     44 H9         66.5394   74.1371   69.6252 H         1 NON         0.0581
     45 H10        67.7357   74.4201   71.5534 H         1 NON         0.0525
     46 H11        68.3577   73.0260   72.5000 H         1 NON         0.0525
     47 H12        64.9222   71.6597   70.5202 H         1 NON         0.0870
     48 H13        66.1652   74.1723   73.4259 H         1 NON         0.0287
     49 H14        66.1232   72.3863   73.2381 H         1 NON         0.0287
     50 H15        66.2780   69.6467   64.7679 H         1 NON         0.0362
     51 H16        67.5953   70.4944   63.8889 H         1 NON         0.0362
     52 H17        66.1499   71.4080   64.4392 H         1 NON         0.0362
     53 H18        64.0216   73.0389   72.2984 H         1 NON         0.0321
     54 H19        64.6922   74.5422   71.5793 H         1 NON         0.0321
     55 H20        64.0775   72.7025   68.5563 H         1 NON         0.1997
     56 H21        64.0422   74.1763   69.2885 H         1 NON         0.1997
     57 H22        63.0618   72.9674   69.8242 H         1 NON         0.1997
     58 H23        65.7650   65.2799   68.8409 H         1 NON         0.0622
     59 H24        69.2651   60.6046   70.5533 H         1 NON         0.0478
     60 H25        70.5257   61.4896   71.4776 H         1 NON         0.0478
     61 H26        70.8044   61.0707   69.7532 H         1 NON         0.0478
     62 H27        67.4511   60.7298   70.2397 H         1 NON         0.0684
     63 H28        64.2198   63.3600   69.0608 H         1 NON         0.0675
     64 H29        65.0514   61.1037   69.7566 H         1 NON         0.0624
@<TRIPOS>BOND
     1    1    2 1  
     2    1    3 2  
     3    1    4 1  
     4    2    5 1  
     5    2    6 1  
     6    3    7 1  
     7    3    8 1  
     8    4    9 am 
     9    4   10 2  
    10    5    7 2  
    11    5   11 1  
    12    6   12 1  
    13    8   13 am 
    14    8   14 1  
    15    9   13 am 
    16    9   15 1  
    17   11   16 1  
    18   11   17 1  
    19   12   18 3  
    20   13   19 2  
    21   15   20 1  
    22   16   21 1  
    23   17   22 1  
    24   18   23 1  
    25   20   24 ar 
    26   20   25 ar 
    27   21   26 1  
    28   21   27 1  
    29   22   26 1  
    30   24   28 ar 
    31   25   29 ar 
    32   28   30 ar 
    33   28   31 ar 
    34   29   30 ar 
    35   29   32 1  
    36   30   33 ar 
    37   31   34 ar 
    38   33   35 ar 
    39   34   35 ar 
    40    6   36 1  
    41    6   37 1  
    42   14   38 1  
    43   14   39 1  
    44   14   40 1  
    45   15   41 1  
    46   15   42 1  
    47   16   43 1  
    48   16   44 1  
    49   17   45 1  
    50   17   46 1  
    51   21   47 1  
    52   22   48 1  
    53   22   49 1  
    54   23   50 1  
    55   23   51 1  
    56   23   52 1  
    57   26   53 1  
    58   26   54 1  
    59   27   55 1  
    60   27   56 1  
    61   27   57 1  
    62   31   58 1  
    63   32   59 1  
    64   32   60 1  
    65   32   61 1  
    66   33   62 1  
    67   34   63 1  
    68   35   64 1  
@<TRIPOS>SUBSTRUCTURE
     1 NON         1

