### 
### Created by X-TOOL on Mon Sep 10 21:12:58 2018
### 

@<TRIPOS>MOLECULE
2ri9_ligand
   19    19     1     0     0
SMALL
GAST_HUCK


@<TRIPOS>ATOM
      1 C5         35.3470   25.9220  -41.9130 C.3       1 LDY         0.0762
      2 O5         34.3750   26.9450  -41.5990 O.3       1 LDY        -0.3745
      3 C1         34.3100   28.0180  -42.5730 C.3       1 LDY         0.0762
      4 C2         34.1570   27.4770  -44.0240 C.3       1 LDY         0.1067
      5 O2         34.5000   28.5090  -44.9430 O.3       1 LDY        -0.3869
      6 C3         35.0190   26.2330  -44.3330 C.3       1 LDY         0.1111
      7 O3         36.3720   26.6090  -44.5430 O.3       1 LDY        -0.3865
      8 C4         34.9530   25.2220  -43.1960 C.3       1 LDY         0.1067
      9 O4         33.6300   24.7050  -43.0840 O.3       1 LDY        -0.3869
     10 H1         35.3849   25.1894  -41.0934 H         1 LDY         0.0586
     11 H2         36.3373   26.3842  -42.0377 H         1 LDY         0.0586
     12 H3         35.2341   28.6114  -42.5105 H         1 LDY         0.0586
     13 H4         33.4466   28.6583  -42.3395 H         1 LDY         0.0586
     14 H5         33.1021   27.2027  -44.1719 H         1 LDY         0.0643
     15 H6         33.9208   29.2511  -44.8148 H         1 LDY         0.2100
     16 H7         34.6342   25.7605  -45.2488 H         1 LDY         0.0647
     17 H8         36.8891   25.8346  -44.7317 H         1 LDY         0.2100
     18 H9         35.6509   24.3954  -43.3950 H         1 LDY         0.0643
     19 H10        33.0269   25.4172  -42.9065 H         1 LDY         0.2100
@<TRIPOS>BOND
     1    1    2 1  
     2    1    8 1  
     3    2    3 1  
     4    3    4 1  
     5    4    5 1  
     6    4    6 1  
     7    6    7 1  
     8    6    8 1  
     9    8    9 1  
    10    1   10 1  
    11    1   11 1  
    12    3   12 1  
    13    3   13 1  
    14    4   14 1  
    15    5   15 1  
    16    6   16 1  
    17    7   17 1  
    18    8   18 1  
    19    9   19 1  
@<TRIPOS>SUBSTRUCTURE
     1 LDY         1

