### 
### Created by X-TOOL on Mon Sep 10 21:12:58 2018
### 

@<TRIPOS>MOLECULE
2ria_ligand
   28    28     1     0     0
SMALL
GAST_HUCK


@<TRIPOS>ATOM
      1 O7         32.9210  -12.6820   11.3820 O.3       1 289        -0.3924
      2 C7         31.7340  -13.0710   10.6660 C.3       1 289         0.0727
      3 C6         30.9270  -11.8220   10.2750 C.3       1 289         0.1069
      4 O6         31.5040  -11.2820    9.0890 O.3       1 289        -0.3869
      5 C5         29.4090  -12.1520   10.0290 C.3       1 289         0.1180
      6 O5         29.2840  -12.9210    8.7490 O.3       1 289        -0.3403
      7 C1         27.8620  -13.2600    8.4010 C.3       1 289         0.1854
      8 O1         27.1280  -12.0150    8.2470 O.3       1 289        -0.3649
      9 C2         27.2230  -14.1380    9.5420 C.3       1 289         0.1339
     10 O2         27.9540  -15.3810    9.6630 O.3       1 289        -0.3841
     11 C3         27.3050  -13.3510   10.8870 C.3       1 289         0.1141
     12 O3         26.7290  -14.1400   11.9200 O.3       1 289        -0.3864
     13 C4         28.7980  -13.0180   11.2060 C.3       1 289         0.1122
     14 O4         28.8790  -12.2830   12.4490 O.3       1 289        -0.3865
     15 H1         32.6745  -12.2084   12.1678 H         1 289         0.2095
     16 H2         31.1170  -13.7182   11.3066 H         1 289         0.0584
     17 H3         32.0198  -13.6202    9.7568 H         1 289         0.0584
     18 H4         30.9978  -11.0821   11.0858 H         1 289         0.0643
     19 H5         31.4647  -11.9302    8.3956 H         1 289         0.2100
     20 H6         28.8467  -11.2100    9.9492 H         1 289         0.0650
     21 H7         27.8364  -13.8220    7.4557 H         1 289         0.0935
     22 H8         27.5223  -11.5001    7.5529 H         1 289         0.2126
     23 H9         26.1712  -14.3514    9.3008 H         1 289         0.0671
     24 H10        27.5670  -15.9089   10.3516 H         1 289         0.2101
     25 H11        26.7406  -12.4113   10.7950 H         1 289         0.0648
     26 H12        25.8207  -14.3217   11.7091 H         1 289         0.2100
     27 H13        29.3671  -13.9545   11.3011 H         1 289         0.0647
     28 H14        29.7881  -12.0829   12.6386 H         1 289         0.2100
@<TRIPOS>BOND
     1    1    2 1  
     2    2    3 1  
     3    3    4 1  
     4    3    5 1  
     5    5    6 1  
     6    5   13 1  
     7    6    7 1  
     8    7    8 1  
     9    7    9 1  
    10    9   10 1  
    11    9   11 1  
    12   11   12 1  
    13   11   13 1  
    14   13   14 1  
    15    1   15 1  
    16    2   16 1  
    17    2   17 1  
    18    3   18 1  
    19    4   19 1  
    20    5   20 1  
    21    7   21 1  
    22    8   22 1  
    23    9   23 1  
    24   10   24 1  
    25   11   25 1  
    26   12   26 1  
    27   13   27 1  
    28   14   28 1  
@<TRIPOS>SUBSTRUCTURE
     1 289         1

