### 
### Created by X-TOOL on Mon Sep 10 21:12:57 2018
### 

@<TRIPOS>MOLECULE
2rib_ligand
   28    28     1     0     0
SMALL
GAST_HUCK


@<TRIPOS>ATOM
      1 C1         27.7570  -17.1490   10.5150 C.3       1 GMH         0.1854
      2 C2         26.3760  -17.3870    9.8010 C.3       1 GMH         0.1339
      3 C3         26.0510  -16.1850    8.8380 C.3       1 GMH         0.1141
      4 C4         25.9990  -14.8700    9.6640 C.3       1 GMH         0.1122
      5 C5         27.4110  -14.6680   10.3120 C.3       1 GMH         0.1180
      6 C6         27.4180  -13.4150   11.1650 C.3       1 GMH         0.1069
      7 C7         28.7930  -13.1780   11.7970 C.3       1 GMH         0.0727
      8 O1         28.7320  -17.2780    9.7900 O.3       1 GMH        -0.3649
      9 O2         25.3620  -17.5050   10.8080 O.3       1 GMH        -0.3841
     10 O3         24.7530  -16.3970    8.1900 O.3       1 GMH        -0.3864
     11 O4         25.7110  -13.7600    8.8250 O.3       1 GMH        -0.3865
     12 O5         27.7210  -15.8300   11.1710 O.3       1 GMH        -0.3403
     13 O6         26.4480  -13.6160   12.1780 O.3       1 GMH        -0.3869
     14 O7         28.7550  -12.0020   12.5980 O.3       1 GMH        -0.3924
     15 H1         27.8513  -17.9109   11.3027 H         1 GMH         0.0935
     16 H2         26.4207  -18.3167    9.2148 H         1 GMH         0.0671
     17 H3         26.8352  -16.1084    8.0705 H         1 GMH         0.0648
     18 H4         25.2296  -14.9497   10.4461 H         1 GMH         0.0647
     19 H5         28.1690  -14.5786    9.5199 H         1 GMH         0.0650
     20 H6         27.1485  -12.5434   10.5505 H         1 GMH         0.0643
     21 H7         29.5445  -13.0558   11.0031 H         1 GMH         0.0584
     22 H8         29.0604  -14.0403   12.4255 H         1 GMH         0.0584
     23 H9         29.5239  -17.1831   10.3062 H         1 GMH         0.2126
     24 H10        24.5213  -17.6577   10.3929 H         1 GMH         0.2101
     25 H11        24.5643  -15.6651    7.6146 H         1 GMH         0.2100
     26 H12        25.7151  -12.9636    9.3428 H         1 GMH         0.2100
     27 H13        25.5991  -13.7621   11.7775 H         1 GMH         0.2100
     28 H14        29.6092  -11.8582   12.9882 H         1 GMH         0.2095
@<TRIPOS>BOND
     1    1    2 1  
     2    1    8 1  
     3    1   12 1  
     4    2    3 1  
     5    2    9 1  
     6    3    4 1  
     7    3   10 1  
     8    4    5 1  
     9    4   11 1  
    10    5    6 1  
    11    5   12 1  
    12    6    7 1  
    13    6   13 1  
    14    7   14 1  
    15    1   15 1  
    16    2   16 1  
    17    3   17 1  
    18    4   18 1  
    19    5   19 1  
    20    6   20 1  
    21    7   21 1  
    22    7   22 1  
    23    8   23 1  
    24    9   24 1  
    25   10   25 1  
    26   11   26 1  
    27   13   27 1  
    28   14   28 1  
@<TRIPOS>SUBSTRUCTURE
     1 GMH         1

