### 
### Created by X-TOOL on Mon Sep 10 21:12:58 2018
### 

@<TRIPOS>MOLECULE
2rip_ligand
   47    50     1     0     0
SMALL
GAST_HUCK


@<TRIPOS>ATOM
      1 N1         63.3610   52.9320   84.3060 N.am      1 34Q        -0.2607
      2 N3         62.2430   54.5500   86.7820 N.4       1 34Q         0.2241
      3 C4         64.8080   53.2900   87.7100 C.2       1 34Q         0.1890
      4 C5         65.2980   53.1670   90.0900 C.3       1 34Q         0.0339
      5 C6         64.9820   52.1840   91.2450 C.3       1 34Q        -0.0307
      6 C7         63.9680   51.4280   89.1370 C.3       1 34Q         0.0339
      7 C8         63.9520   51.2120   90.6520 C.3       1 34Q        -0.0307
      8 C10        63.5370   52.7540   82.9750 C.2       1 34Q         0.2369
      9 C13        60.1050   52.0260   80.3990 C.ar      1 34Q         0.0778
     10 C15        59.1210   54.1340   81.2730 C.ar      1 34Q        -0.0283
     11 C17        62.2850   52.4200   82.0030 C.ar      1 34Q         0.1546
     12 O2         64.6870   52.9160   82.4890 O.2       1 34Q        -0.3745
     13 C18        62.1870   51.1990   81.1080 C.ar      1 34Q         0.0616
     14 N5         61.1390   51.0430   80.3510 N.ar      1 34Q        -0.2658
     15 C14        60.1900   53.1070   81.2080 C.ar      1 34Q         0.0810
     16 N4         61.3140   53.2990   82.0180 N.ar      1 34Q        -0.2477
     17 C16        57.9770   54.0120   80.4890 C.ar      1 34Q        -0.0490
     18 C12        58.8950   51.8830   79.5580 C.ar      1 34Q        -0.0289
     19 C11        57.8570   52.8330   79.6130 C.ar      1 34Q        -0.0492
     20 C1         64.4090   53.4380   85.1660 C.3       1 34Q         0.0589
     21 C2         64.0050   52.8100   86.4990 C.3       1 34Q         0.1133
     22 C3         62.5060   53.1240   86.5200 C.3       1 34Q         0.0181
     23 C9         62.1570   52.6870   85.0930 C.3       1 34Q         0.0791
     24 O1         65.5450   54.2690   87.5540 O.2       1 34Q        -0.3963
     25 N2         64.6930   52.6590   88.8790 N.am      1 34Q        -0.2728
     26 H1         61.2482   54.7127   86.7873 H         1 34Q         0.1999
     27 H2         62.6710   55.1087   86.0604 H         1 34Q         0.1999
     28 H3         62.6298   54.8040   87.6775 H         1 34Q         0.1999
     29 H4         66.3870   53.2453   89.9564 H         1 34Q         0.0522
     30 H5         64.8849   54.1594   90.3234 H         1 34Q         0.0522
     31 H6         64.5589   52.7203   92.1072 H         1 34Q         0.0285
     32 H7         65.8894   51.6461   91.5570 H         1 34Q         0.0285
     33 H8         62.9385   51.5123   88.7588 H         1 34Q         0.0522
     34 H9         64.4723   50.5846   88.6427 H         1 34Q         0.0522
     35 H10        62.9514   51.4268   91.0553 H         1 34Q         0.0285
     36 H11        64.2284   50.1743   90.8902 H         1 34Q         0.0285
     37 H12        59.2315   54.9850   81.9354 H         1 34Q         0.0685
     38 H13        62.9825   50.4627   81.0987 H         1 34Q         0.0985
     39 H14        57.1963   54.7633   80.5220 H         1 34Q         0.0681
     40 H15        58.8067   51.0341   78.8897 H         1 34Q         0.0678
     41 H16        56.9671   52.6967   79.0092 H         1 34Q         0.0687
     42 H17        64.3984   54.5368   85.2153 H         1 34Q         0.0552
     43 H18        65.4022   53.0951   84.8404 H         1 34Q         0.0552
     44 H19        64.1444   51.7202   86.4456 H         1 34Q         0.0616
     45 H20        61.9721   52.5198   87.2682 H         1 34Q         0.0900
     46 H21        61.8940   51.6191   85.0713 H         1 34Q         0.0580
     47 H22        61.3160   53.2798   84.7041 H         1 34Q         0.0580
@<TRIPOS>BOND
     1    1    8 am 
     2   20    1 1  
     3    1   23 1  
     4   22    2 1  
     5   21    3 1  
     6    3   24 2  
     7    3   25 am 
     8    4    5 1  
     9   25    4 1  
    10    7    5 1  
    11    6    7 1  
    12   25    6 1  
    13    8   11 1  
    14    8   12 2  
    15   14    9 ar 
    16   15    9 ar 
    17    9   18 ar 
    18   15   10 ar 
    19   10   17 ar 
    20   11   13 ar 
    21   11   16 ar 
    22   13   14 ar 
    23   16   15 ar 
    24   17   19 ar 
    25   18   19 ar 
    26   21   20 1  
    27   21   22 1  
    28   22   23 1  
    29    2   26 1  
    30    2   27 1  
    31    2   28 1  
    32    4   29 1  
    33    4   30 1  
    34    5   31 1  
    35    5   32 1  
    36    6   33 1  
    37    6   34 1  
    38    7   35 1  
    39    7   36 1  
    40   10   37 1  
    41   13   38 1  
    42   17   39 1  
    43   18   40 1  
    44   19   41 1  
    45   20   42 1  
    46   20   43 1  
    47   21   44 1  
    48   22   45 1  
    49   23   46 1  
    50   23   47 1  
@<TRIPOS>SUBSTRUCTURE
     1 34Q         1

