### 
### Created by X-TOOL on Mon Sep 10 21:12:56 2018
### 

@<TRIPOS>MOLECULE
2rjp_ligand
   66    68     1     0     0
SMALL
GAST_HUCK


@<TRIPOS>ATOM
      1 C1         66.4200  -11.2980   14.6310 C.3       1 886        -0.0594
      2 C2         66.1680  -10.3930   13.4140 C.3       1 886        -0.0152
      3 C3         65.1200  -11.0660   12.5200 C.3       1 886        -0.0594
      4 C4         65.7550   -8.9780   13.8790 C.3       1 886         0.0921
      5 C5         65.5120   -7.9580   12.7100 C.2       1 886         0.0566
      6 O1         66.5440   -7.7160   12.0220 O.co2     1 886        -0.5670
      7 O2         64.3590   -7.4870   12.5810 O.co2     1 886        -0.5670
      8 N1         66.9480   -8.4060   14.6220 N.am      1 886        -0.2313
      9 S1         66.7020   -7.7840   16.1600 S.o2      1 886         0.0695
     10 O3         67.9460   -7.9800   16.8880 O.2       1 886        -0.1503
     11 O4         65.4600   -8.3000   16.6980 O.2       1 886        -0.1503
     12 C6         66.4610   -6.0420   15.9050 C.ar      1 886         0.1073
     13 C7         67.5710   -5.2310   15.6630 C.ar      1 886        -0.0356
     14 C8         67.3800   -3.8590   15.4610 C.ar      1 886        -0.0538
     15 C9         66.0930   -3.2720   15.4950 C.ar      1 886        -0.0220
     16 C10        64.9930   -4.1200   15.7450 C.ar      1 886        -0.0538
     17 C11        65.1700   -5.4940   15.9480 C.ar      1 886        -0.0356
     18 C12        65.9170   -1.8140   15.3010 C.ar      1 886        -0.0242
     19 C13        64.8100   -1.1300   15.8510 C.ar      1 886        -0.0600
     20 C14        64.6430    0.2560   15.6840 C.ar      1 886        -0.0563
     21 C15        65.5930    1.0090   14.9690 C.ar      1 886        -0.0116
     22 C16        66.7080    0.3410   14.4300 C.ar      1 886        -0.0563
     23 C17        66.8680   -1.0440   14.5970 C.ar      1 886        -0.0600
     24 C18        65.4430    2.5000   14.7540 C.3       1 886         0.1061
     25 O5         64.5020    3.0750   15.6590 O.3       1 886        -0.3015
     26 C19        63.6020    4.0610   15.3180 C.ar      1 886         0.0998
     27 C20        62.5340    4.0030   14.4100 C.ar      1 886        -0.0263
     28 C21        61.6890    5.1220   14.2230 C.ar      1 886        -0.0515
     29 C22        61.8820    6.3240   14.9330 C.ar      1 886         0.0215
     30 C23        62.9420    6.3630   15.8540 C.ar      1 886        -0.0515
     31 C24        63.7790    5.2500   16.0380 C.ar      1 886        -0.0263
     32 C25        60.9820    7.5290   14.7710 C.2       1 886         0.1272
     33 O6         59.7900    7.3310   15.0140 O.2       1 886        -0.3837
     34 C26        61.4580    8.9910   14.7180 C.3       1 886         0.0266
     35 C27        62.6290    9.2100   13.7680 C.3       1 886        -0.0474
     36 C28        61.7090    9.5830   16.1090 C.3       1 886        -0.0474
     37 H1         66.7129  -12.3011   14.2876 H         1 886         0.0234
     38 H2         65.5010  -11.3698   15.2312 H         1 886         0.0234
     39 H3         67.2265  -10.8707   15.2450 H         1 886         0.0234
     40 H4         67.1019  -10.3008   12.8401 H         1 886         0.0332
     41 H5         64.9257  -10.4324   11.6420 H         1 886         0.0234
     42 H6         64.1874  -11.2025   13.0871 H         1 886         0.0234
     43 H7         65.4949  -12.0458   12.1893 H         1 886         0.0234
     44 H8         64.8637   -9.0419   14.5205 H         1 886         0.0682
     45 H9         67.8571   -8.4001   14.2055 H         1 886         0.1697
     46 H10        68.5670   -5.6576   15.6319 H         1 886         0.0635
     47 H11        68.2419   -3.2289   15.2734 H         1 886         0.0615
     48 H12        63.9941   -3.7005   15.7805 H         1 886         0.0615
     49 H13        64.3138   -6.1313   16.1375 H         1 886         0.0635
     50 H14        64.0713   -1.6874   16.4156 H         1 886         0.0609
     51 H15        63.7759    0.7484   16.1092 H         1 886         0.0561
     52 H16        67.4532    0.9029   13.8786 H         1 886         0.0561
     53 H17        67.7399   -1.5321   14.1766 H         1 886         0.0609
     54 H18        65.1007    2.6783   13.7240 H         1 886         0.0785
     55 H19        66.4207    2.9813   14.9040 H         1 886         0.0785
     56 H20        62.3550    3.0938   13.8475 H         1 886         0.0558
     57 H21        60.8713    5.0531   13.5147 H         1 886         0.0645
     58 H22        63.1164    7.2642   16.4305 H         1 886         0.0645
     59 H23        64.5862    5.3128   16.7588 H         1 886         0.0558
     60 H24        60.6190    9.5627   14.2947 H         1 886         0.0513
     61 H25        62.9166   10.2717   13.7792 H         1 886         0.0256
     62 H26        62.3332    8.9210   12.7487 H         1 886         0.0256
     63 H27        63.4825    8.5955   14.0903 H         1 886         0.0256
     64 H28        60.8349    9.3963   16.7501 H         1 886         0.0256
     65 H29        61.8748   10.6669   16.0218 H         1 886         0.0256
     66 H30        62.5974    9.1107   16.5537 H         1 886         0.0256
@<TRIPOS>BOND
     1    1    2 1  
     2    2    3 1  
     3    2    4 1  
     4    4    5 1  
     5    4    8 1  
     6    5    6 ar 
     7    5    7 ar 
     8    8    9 am 
     9    9   10 2  
    10    9   11 2  
    11    9   12 1  
    12   12   13 ar 
    13   12   17 ar 
    14   13   14 ar 
    15   14   15 ar 
    16   15   16 ar 
    17   15   18 1  
    18   16   17 ar 
    19   18   19 ar 
    20   18   23 ar 
    21   19   20 ar 
    22   20   21 ar 
    23   21   22 ar 
    24   21   24 1  
    25   22   23 ar 
    26   24   25 1  
    27   25   26 1  
    28   26   27 ar 
    29   26   31 ar 
    30   27   28 ar 
    31   28   29 ar 
    32   29   30 ar 
    33   29   32 1  
    34   30   31 ar 
    35   32   33 2  
    36   32   34 1  
    37   34   35 1  
    38   34   36 1  
    39    1   37 1  
    40    1   38 1  
    41    1   39 1  
    42    2   40 1  
    43    3   41 1  
    44    3   42 1  
    45    3   43 1  
    46    4   44 1  
    47    8   45 1  
    48   13   46 1  
    49   14   47 1  
    50   16   48 1  
    51   17   49 1  
    52   19   50 1  
    53   20   51 1  
    54   22   52 1  
    55   23   53 1  
    56   24   54 1  
    57   24   55 1  
    58   27   56 1  
    59   28   57 1  
    60   30   58 1  
    61   31   59 1  
    62   34   60 1  
    63   35   61 1  
    64   35   62 1  
    65   35   63 1  
    66   36   64 1  
    67   36   65 1  
    68   36   66 1  
@<TRIPOS>SUBSTRUCTURE
     1 886         1

