### 
### Created by X-TOOL on Mon Sep 10 21:12:57 2018
### 

@<TRIPOS>MOLECULE
2rjr_ligand
   22    22     1     0     0
SMALL
GAST_HUCK


@<TRIPOS>ATOM
      1 C1        -25.0540    9.4500   30.5580 C.ar      1 295        -0.0594
      2 C         -25.4470    8.1520   30.8890 C.ar      1 295        -0.0348
      3 C5        -25.5370    7.7590   32.2240 C.ar      1 295         0.1248
      4 C4        -25.2290    8.6790   33.2270 C.ar      1 295        -0.0348
      5 C3        -24.8360    9.9740   32.8860 C.ar      1 295        -0.0594
      6 C2        -24.7370   10.3850   31.5500 C.ar      1 295        -0.0144
      7 C6        -24.3040   11.8010   31.2220 C.3       1 295         0.1248
      8 O4        -25.1350   12.7740   32.0580 O.3       1 295        -0.3756
      9 C7        -24.5370   12.0740   29.7460 C.3       1 295         0.1420
     10 C8        -25.1920   13.4270   29.5790 C.2       1 295         0.0679
     11 O1        -25.8310   13.6660   28.2550 O.co2     1 295        -0.5661
     12 O         -25.2130   14.3130   30.4520 O.co2     1 295        -0.5661
     13 O3        -23.2880   12.1010   29.0680 O.3       1 295        -0.3731
     14 F1        -25.9040    6.5500   32.5300 F         1 295        -0.1893
     15 H1        -24.9933    9.7386   29.5149 H         1 295         0.0548
     16 H2        -25.6839    7.4445   30.1026 H         1 295         0.0587
     17 H3        -25.2949    8.3883   34.2692 H         1 295         0.0587
     18 H4        -24.6014   10.6798   33.6746 H         1 295         0.0548
     19 H5        -23.2367   11.9271   31.4564 H         1 295         0.0795
     20 H6        -24.8714   13.6649   31.8600 H         1 295         0.2131
     21 H7        -25.1799   11.2897   29.3200 H         1 295         0.0812
     22 H8        -23.4328   12.2836   28.1470 H         1 295         0.2127
@<TRIPOS>BOND
     1    1    2 ar 
     2    1    6 ar 
     3    2    3 ar 
     4    3    4 ar 
     5    3   14 1  
     6    4    5 ar 
     7    5    6 ar 
     8    6    7 1  
     9    7    8 1  
    10    7    9 1  
    11    9   10 1  
    12    9   13 1  
    13   10   11 ar 
    14   10   12 ar 
    15    1   15 1  
    16    2   16 1  
    17    4   17 1  
    18    5   18 1  
    19    7   19 1  
    20    8   20 1  
    21    9   21 1  
    22   13   22 1  
@<TRIPOS>SUBSTRUCTURE
     1 295         1

