### 
### Created by X-TOOL on Sun Sep  9 21:50:44 2018
### 

@<TRIPOS>MOLECULE
2rjs_ligand
   27    27     1     0     0
SMALL
GAST_HUCK


@<TRIPOS>ATOM
      1 C1         26.1110    8.5940    6.2560 C.3       1 NON         0.0579
      2 O2         24.6900    8.7640    6.2790 O.3       1 NON        -0.3257
      3 C3         24.3910   10.0440    6.6220 C.ar      1 NON         0.0837
      4 C4         24.2060   10.3900    7.9570 C.ar      1 NON        -0.0394
      5 C5         23.9230   11.7070    8.3050 C.ar      1 NON        -0.0634
      6 C6         24.2890   11.0190    5.6360 C.ar      1 NON        -0.0394
      7 C7         24.0050   12.3350    5.9820 C.ar      1 NON        -0.0634
      8 C8         23.8260   12.6790    7.3170 C.ar      1 NON        -0.0012
      9 C9         23.5640   14.1410    7.6840 C.3       1 NON         0.0745
     10 N10        22.1260   14.4240    7.5720 N.4       1 NON         0.2354
     11 C11        24.0250   14.3980    9.1200 C.3       1 NON         0.3393
     12 C12        24.1650   15.9060    9.3500 C.2       1 NON         0.1212
     13 O13        24.1160   16.7430    8.4230 O.co2     1 NON        -0.5420
     14 O14        24.3580   16.2850   10.5260 O.co2     1 NON        -0.5420
     15 F1         25.2180   13.8000    9.3240 F         1 NON        -0.1935
     16 F2         23.1150   13.8940    9.9800 F         1 NON        -0.1935
     17 H1         26.3518    7.5573    5.9782 H         1 NON         0.0575
     18 H2         26.5225    8.8115    7.2527 H         1 NON         0.0575
     19 H3         26.5508    9.2825    5.5195 H         1 NON         0.0575
     20 H4         24.2826    9.6316    8.7277 H         1 NON         0.0525
     21 H5         23.7784   11.9744    9.3455 H         1 NON         0.0532
     22 H6         24.4313   10.7523    4.5950 H         1 NON         0.0525
     23 H7         23.9231   13.0927    5.2111 H         1 NON         0.0532
     24 H8         24.1208   14.7963    6.9980 H         1 NON         0.1045
     25 H9         21.8229   14.2545    6.6257 H         1 NON         0.2010
     26 H10        21.9534   15.3875    7.8125 H         1 NON         0.2010
     27 H11        21.6155   13.8240    8.2008 H         1 NON         0.2010
@<TRIPOS>BOND
     1    1    2 1  
     2    2    3 1  
     3    3    4 ar 
     4    3    6 ar 
     5    4    5 ar 
     6    5    8 ar 
     7    6    7 ar 
     8    7    8 ar 
     9    8    9 1  
    10    9   10 1  
    11    9   11 1  
    12   11   12 1  
    13   11   15 1  
    14   11   16 1  
    15   12   13 ar 
    16   12   14 ar 
    17    1   17 1  
    18    1   18 1  
    19    1   19 1  
    20    4   20 1  
    21    5   21 1  
    22    6   22 1  
    23    7   23 1  
    24    9   24 1  
    25   10   25 1  
    26   10   26 1  
    27   10   27 1  
@<TRIPOS>SUBSTRUCTURE
     1 NON         1

