### 
### Created by X-TOOL on Sun Sep  9 21:50:48 2018
### 

@<TRIPOS>MOLECULE
2rk7_ligand
    6     5     1     0     0
SMALL
GAST_HUCK


@<TRIPOS>ATOM
      1 C1         22.4900    2.1060    3.6980 C.2       1 NON         0.0999
      2 C2         23.2220    3.0960    4.4840 C.2       1 NON         0.0999
      3 O1         21.9090    2.4730    2.6560 O.co2     1 NON        -0.5500
      4 O2         23.3410    4.2640    4.0490 O.co2     1 NON        -0.5500
      5 O3         22.4810    0.9120    4.0830 O.co2     1 NON        -0.5500
      6 O4         23.7360    2.7370    5.5700 O.co2     1 NON        -0.5500
@<TRIPOS>BOND
     1    1    2 1  
     2    1    3 ar 
     3    1    5 ar 
     4    2    4 ar 
     5    2    6 ar 
@<TRIPOS>SUBSTRUCTURE
     1 NON         1

