### 
### Created by X-TOOL on Mon Sep 10 21:12:58 2018
### 

@<TRIPOS>MOLECULE
2rke_ligand
   10     9     1     0     0
SMALL
GAST_HUCK


@<TRIPOS>ATOM
      1 O5          2.2430   -3.8190    9.0810 O.co2     1 SAT        -0.4829
      2 S1          1.6540   -4.8960    8.2630 S.o2      1 SAT        -0.1795
      3 O3          0.1850   -4.7390    8.2280 O.co2     1 SAT        -0.4829
      4 O4          2.1770   -4.7980    6.8970 O.co2     1 SAT        -0.4829
      5 C2          2.0400   -6.3970    8.8970 C.3       1 SAT         0.0830
      6 C1          3.4970   -6.7820    8.7220 C.2       1 SAT         0.0528
      7 O1          3.8520   -7.3340    7.6600 O.co2     1 SAT        -0.5674
      8 O2          4.2950   -6.5760    9.6590 O.co2     1 SAT        -0.5674
      9 H1          1.4191   -7.1545    8.3964 H         1 SAT         0.0637
     10 H2          1.8111   -6.3879    9.9729 H         1 SAT         0.0637
@<TRIPOS>BOND
     1    1    2 ar 
     2    2    3 ar 
     3    2    4 ar 
     4    2    5 1  
     5    5    6 1  
     6    6    7 ar 
     7    6    8 ar 
     8    5    9 1  
     9    5   10 1  
@<TRIPOS>SUBSTRUCTURE
     1 SAT         1

