### 
### Created by X-TOOL on Mon Sep 10 21:12:57 2018
### 

@<TRIPOS>MOLECULE
2rkf_ligand
   94    97     1     0     0
SMALL
GAST_HUCK


@<TRIPOS>ATOM
      1 C1        -17.1830    4.8640   -7.3260 C.3       1 AB1         0.0330
      2 C2        -16.5540    2.6760   -6.1360 C.3       1 AB1         0.0388
      3 N1        -17.9450    2.7180   -5.6600 N.am      1 AB1        -0.2377
      4 C3        -18.8120    3.6970   -5.9170 C.2       1 AB1         0.2622
      5 N2        -18.3440    4.8060   -6.4570 N.am      1 AB1        -0.2728
      6 C4        -18.5930   -3.3210   -0.0580 C.ar      1 AB1        -0.0408
      7 C5        -19.2050   -4.4150    0.5570 C.ar      1 AB1        -0.0603
      8 C6        -18.4470   -5.4820    1.0440 C.ar      1 AB1        -0.0686
      9 C7        -17.0560   -5.4630    0.9210 C.ar      1 AB1        -0.0687
     10 C8        -16.4400   -4.3710    0.2990 C.ar      1 AB1        -0.0686
     11 C9        -17.2030   -3.3080   -0.1870 C.ar      1 AB1        -0.0603
     12 O1        -19.9970    3.5830   -5.7040 O.2       1 AB1        -0.4005
     13 C10       -18.3980    1.5650   -4.8670 C.3       1 AB1         0.1362
     14 C11       -17.9180    1.6610   -3.4350 C.2       1 AB1         0.2023
     15 N3        -18.8130    2.1500   -2.5770 N.am      1 AB1        -0.2800
     16 C12       -18.5100    2.3450   -1.1570 C.3       1 AB1         0.0540
     17 C13       -18.0390    0.2530   -5.5990 C.3       1 AB1        -0.0063
     18 C14       -18.4320   -0.9790   -4.7940 C.3       1 AB1        -0.0584
     19 C15       -18.6980    0.1640   -6.9740 C.3       1 AB1        -0.0584
     20 O2        -16.7890    1.3300   -3.0980 O.2       1 AB1        -0.3945
     21 C16       -15.5250    5.5050   -2.4300 C.ar      1 AB1        -0.0686
     22 C17       -16.0990    6.3700   -3.3590 C.ar      1 AB1        -0.0687
     23 C18       -17.4830    6.4180   -3.4780 C.ar      1 AB1        -0.0686
     24 C19       -18.2820    5.6040   -2.6710 C.ar      1 AB1        -0.0603
     25 C20       -17.7020    4.7240   -1.7480 C.ar      1 AB1        -0.0408
     26 C21       -16.3150    4.6840   -1.6270 C.ar      1 AB1        -0.0603
     27 C22       -18.5840    3.8520   -0.8770 C.3       1 AB1         0.0040
     28 C23       -19.6500    1.7170   -0.3580 C.3       1 AB1         0.0004
     29 C24       -19.9500    0.2660   -0.7280 C.3       1 AB1         0.0821
     30 C25       -18.9120   -0.7750   -0.2910 C.3       1 AB1         0.0774
     31 N4        -18.8090   -0.6950    1.1650 N.am      1 AB1        -0.2772
     32 C26       -17.6820   -0.2900    1.7620 C.2       1 AB1         0.2068
     33 C27       -17.6530   -0.2420    3.2640 C.3       1 AB1         0.1556
     34 O3        -18.7670   -0.9080    3.8690 O.3       1 AB1        -0.3054
     35 C28       -18.5830   -1.5070    5.0930 C.ar      1 AB1         0.0966
     36 O4        -21.1780   -0.0690   -0.0950 O.3       1 AB1        -0.3893
     37 C29       -19.4580   -2.1780   -0.5800 C.3       1 AB1         0.0064
     38 O5        -16.6800    0.0410    1.1530 O.2       1 AB1        -0.3941
     39 C30       -18.4590   -0.7380    6.2550 C.ar      1 AB1        -0.0230
     40 C31       -18.2590   -1.3580    7.4900 C.ar      1 AB1        -0.0759
     41 C32       -18.1820   -2.7440    7.5680 C.ar      1 AB1        -0.0862
     42 C33       -18.2980   -3.5140    6.4140 C.ar      1 AB1        -0.0759
     43 C34       -18.4940   -2.8980    5.1810 C.ar      1 AB1        -0.0230
     44 C35       -18.6140   -3.7620    3.9600 C.3       1 AB1        -0.0348
     45 C36       -18.5460    0.7650    6.2180 C.3       1 AB1        -0.0348
     46 C37       -16.1210    4.0900   -6.5550 C.3       1 AB1        -0.0125
     47 H1        -16.8678    5.9047   -7.4918 H         1 AB1         0.0517
     48 H2        -17.3925    4.3856   -8.2941 H         1 AB1         0.0517
     49 H3        -16.4806    1.9978   -6.9989 H         1 AB1         0.0522
     50 H4        -15.8996    2.3147   -5.3290 H         1 AB1         0.0522
     51 H5        -18.8199    5.6619   -6.2545 H         1 AB1         0.1845
     52 H6        -20.2841   -4.4364    0.6579 H         1 AB1         0.0557
     53 H7        -18.9381   -6.3246    1.5173 H         1 AB1         0.0599
     54 H8        -16.4604   -6.2843    1.3028 H         1 AB1         0.0559
     55 H9        -15.3613   -4.3506    0.1938 H         1 AB1         0.0599
     56 H10       -16.7138   -2.4682   -0.6670 H         1 AB1         0.0557
     57 H11       -19.4964    1.6082   -4.8256 H         1 AB1         0.0802
     58 H12       -19.7228    2.3922   -2.9142 H         1 AB1         0.1856
     59 H13       -17.5319    1.9210   -0.8860 H         1 AB1         0.0579
     60 H14       -16.9480    0.2393   -5.7386 H         1 AB1         0.0342
     61 H15       -18.1576   -1.8854   -5.3535 H         1 AB1         0.0234
     62 H16       -19.5178   -0.9712   -4.6183 H         1 AB1         0.0234
     63 H17       -17.9043   -0.9701   -3.8289 H         1 AB1         0.0234
     64 H18       -18.4243    1.0474   -7.5696 H         1 AB1         0.0234
     65 H19       -19.7909    0.1262   -6.8551 H         1 AB1         0.0234
     66 H20       -18.3534   -0.7456   -7.4876 H         1 AB1         0.0234
     67 H21       -14.4462    5.4698   -2.3300 H         1 AB1         0.0599
     68 H22       -15.4732    6.9986   -3.9821 H         1 AB1         0.0559
     69 H23       -17.9424    7.0868   -4.1968 H         1 AB1         0.0599
     70 H24       -19.3612    5.6539   -2.7599 H         1 AB1         0.0557
     71 H25       -15.8511    4.0161   -0.9102 H         1 AB1         0.0557
     72 H26       -18.2929    4.0162    0.1710 H         1 AB1         0.0448
     73 H27       -19.6261    4.1725   -1.0226 H         1 AB1         0.0448
     74 H28       -20.5595    2.3115   -0.5293 H         1 AB1         0.0315
     75 H29       -19.3840    1.7528    0.7087 H         1 AB1         0.0315
     76 H30       -20.0585    0.2038   -1.8209 H         1 AB1         0.0619
     77 H31       -17.9435   -0.6059   -0.7844 H         1 AB1         0.0604
     78 H32       -19.5969   -0.9481    1.7264 H         1 AB1         0.1857
     79 H33       -17.6608    0.8113    3.5808 H         1 AB1         0.0853
     80 H34       -16.7268   -0.7227    3.6118 H         1 AB1         0.0853
     81 H35       -21.8444    0.5597   -0.3464 H         1 AB1         0.2099
     82 H36       -20.4516   -2.2609   -0.1153 H         1 AB1         0.0449
     83 H37       -19.5525   -2.2906   -1.6701 H         1 AB1         0.0449
     84 H38       -18.1637   -0.7586    8.3882 H         1 AB1         0.0471
     85 H39       -18.0316   -3.2252    8.5276 H         1 AB1         0.0489
     86 H40       -18.2356   -4.5945    6.4756 H         1 AB1         0.0471
     87 H41       -18.7644   -3.1267    3.0747 H         1 AB1         0.0366
     88 H42       -19.4719   -4.4410    4.0741 H         1 AB1         0.0366
     89 H43       -17.6937   -4.3516    3.8361 H         1 AB1         0.0366
     90 H44       -18.7036    1.0977    5.1814 H         1 AB1         0.0366
     91 H45       -17.6101    1.1961    6.6031 H         1 AB1         0.0366
     92 H46       -19.3878    1.0991    6.8423 H         1 AB1         0.0366
     93 H47       -15.8712    4.6579   -5.6467 H         1 AB1         0.0304
     94 H48       -15.2274    4.0033   -7.1906 H         1 AB1         0.0304
@<TRIPOS>BOND
     1    5    1 1  
     2   46    1 1  
     3    3    2 1  
     4    2   46 1  
     5    3    4 am 
     6   13    3 1  
     7    4    5 am 
     8    4   12 2  
     9    6    7 ar 
    10    6   11 ar 
    11   37    6 1  
    12    7    8 ar 
    13    8    9 ar 
    14   10    9 ar 
    15   11   10 ar 
    16   14   13 1  
    17   13   17 1  
    18   15   14 am 
    19   14   20 2  
    20   16   15 1  
    21   16   27 1  
    22   28   16 1  
    23   17   18 1  
    24   17   19 1  
    25   21   22 ar 
    26   26   21 ar 
    27   23   22 ar 
    28   24   23 ar 
    29   25   24 ar 
    30   25   26 ar 
    31   27   25 1  
    32   29   28 1  
    33   30   29 1  
    34   29   36 1  
    35   30   31 1  
    36   30   37 1  
    37   31   32 am 
    38   32   33 1  
    39   32   38 2  
    40   33   34 1  
    41   34   35 1  
    42   35   39 ar 
    43   35   43 ar 
    44   39   40 ar 
    45   39   45 1  
    46   40   41 ar 
    47   41   42 ar 
    48   42   43 ar 
    49   43   44 1  
    50    1   47 1  
    51    1   48 1  
    52    2   49 1  
    53    2   50 1  
    54    5   51 1  
    55    7   52 1  
    56    8   53 1  
    57    9   54 1  
    58   10   55 1  
    59   11   56 1  
    60   13   57 1  
    61   15   58 1  
    62   16   59 1  
    63   17   60 1  
    64   18   61 1  
    65   18   62 1  
    66   18   63 1  
    67   19   64 1  
    68   19   65 1  
    69   19   66 1  
    70   21   67 1  
    71   22   68 1  
    72   23   69 1  
    73   24   70 1  
    74   26   71 1  
    75   27   72 1  
    76   27   73 1  
    77   28   74 1  
    78   28   75 1  
    79   29   76 1  
    80   30   77 1  
    81   31   78 1  
    82   33   79 1  
    83   33   80 1  
    84   36   81 1  
    85   37   82 1  
    86   37   83 1  
    87   40   84 1  
    88   41   85 1  
    89   42   86 1  
    90   44   87 1  
    91   44   88 1  
    92   44   89 1  
    93   45   90 1  
    94   45   91 1  
    95   45   92 1  
    96   46   93 1  
    97   46   94 1  
@<TRIPOS>SUBSTRUCTURE
     1 AB1         1

