### 
### Created by X-TOOL on Mon Sep 10 21:12:57 2018
### 

@<TRIPOS>MOLECULE
2rkg_ligand
   94    97     1     0     0
SMALL
GAST_HUCK


@<TRIPOS>ATOM
      1 C1        -12.5830   12.3050    6.9680 C.3       1 AB1         0.0330
      2 C2        -10.4740   13.0480    5.7760 C.3       1 AB1         0.0388
      3 N1        -11.2370   14.2330    5.3870 N.am      1 AB1        -0.2377
      4 C3        -12.5030   14.4660    5.7490 C.2       1 AB1         0.2622
      5 N2        -13.1700   13.4740    6.3330 N.am      1 AB1        -0.2728
      6 C4         -6.4060   17.5750   -0.2120 C.ar      1 AB1        -0.0408
      7 C5         -5.7590   18.6000   -0.9040 C.ar      1 AB1        -0.0603
      8 C6         -4.4720   18.4050   -1.4090 C.ar      1 AB1        -0.0686
      9 C7         -3.8230   17.1840   -1.2160 C.ar      1 AB1        -0.0687
     10 C8         -4.4690   16.1610   -0.5140 C.ar      1 AB1        -0.0686
     11 C9         -5.7590   16.3530   -0.0170 C.ar      1 AB1        -0.0603
     12 O1        -13.0410   15.5350    5.5690 O.2       1 AB1        -0.4005
     13 C10       -10.4930   15.1880    4.5370 C.3       1 AB1         0.1362
     14 C11       -10.3650   14.6780    3.1150 C.2       1 AB1         0.2023
     15 N3        -11.2610   15.2040    2.2700 N.am      1 AB1        -0.2800
     16 C12       -11.3180   14.8460    0.8530 C.3       1 AB1         0.0540
     17 C13        -9.1480   15.5640    5.1980 C.3       1 AB1        -0.0063
     18 C14        -8.3050   16.4700    4.3100 C.3       1 AB1        -0.0584
     19 C15        -9.3270   16.2580    6.5470 C.3       1 AB1        -0.0584
     20 O2         -9.5120   13.8520    2.7810 O.2       1 AB1        -0.3945
     21 C16       -12.4550   10.6580    1.9210 C.ar      1 AB1        -0.0686
     22 C17       -13.4870   10.6420    2.8580 C.ar      1 AB1        -0.0687
     23 C18       -14.2560   11.7860    3.0630 C.ar      1 AB1        -0.0686
     24 C19       -13.9910   12.9400    2.3270 C.ar      1 AB1        -0.0603
     25 C20       -12.9520   12.9620    1.3980 C.ar      1 AB1        -0.0408
     26 C21       -12.1910   11.8140    1.1890 C.ar      1 AB1        -0.0603
     27 C22       -12.6950   14.2280    0.6130 C.3       1 AB1         0.0040
     28 C23       -11.3160   16.1540    0.0660 C.3       1 AB1         0.0004
     29 C24       -10.2000   17.1290    0.4250 C.3       1 AB1         0.0821
     30 C25        -8.7910   16.6940    0.0160 C.3       1 AB1         0.0774
     31 N4         -8.7390   16.5540   -1.4340 N.am      1 AB1        -0.2772
     32 C26        -8.5640   15.3460   -1.9710 C.2       1 AB1         0.2068
     33 C27        -8.4930   15.2230   -3.4750 C.3       1 AB1         0.1556
     34 O3         -8.6070   16.4800   -4.1480 O.3       1 AB1        -0.3054
     35 C28        -8.0950   16.6300   -5.4150 C.ar      1 AB1         0.0966
     36 O4        -10.4980   18.3790   -0.1920 O.3       1 AB1        -0.3893
     37 C29        -7.8040   17.8190    0.3280 C.3       1 AB1         0.0064
     38 O5         -8.4640   14.3320   -1.2980 O.2       1 AB1        -0.3941
     39 C30        -8.7070   16.0230   -6.5230 C.ar      1 AB1        -0.0230
     40 C31        -8.1660   16.1920   -7.7940 C.ar      1 AB1        -0.0759
     41 C32        -7.0230   16.9640   -7.9790 C.ar      1 AB1        -0.0862
     42 C33        -6.4120   17.5670   -6.8840 C.ar      1 AB1        -0.0759
     43 C34        -6.9410   17.4030   -5.6060 C.ar      1 AB1        -0.0230
     44 C35        -6.2400   18.0820   -4.4580 C.3       1 AB1        -0.0348
     45 C36        -9.9530   15.1820   -6.4010 C.3       1 AB1        -0.0348
     46 C37       -11.4580   11.9060    6.0230 C.3       1 AB1        -0.0125
     47 H1        -13.3227   11.4961    7.0604 H         1 AB1         0.0517
     48 H2        -12.1881   12.5563    7.9634 H         1 AB1         0.0517
     49 H3         -9.9065   13.2557    6.6951 H         1 AB1         0.0522
     50 H4         -9.7782   12.7720    4.9700 H         1 AB1         0.0522
     51 H5        -14.1679   13.5383    6.3355 H         1 AB1         0.1845
     52 H6         -6.2577   19.5513   -1.0500 H         1 AB1         0.0557
     53 H7         -3.9764   19.2021   -1.9513 H         1 AB1         0.0599
     54 H8         -2.8242   17.0297   -1.6079 H         1 AB1         0.0559
     55 H9         -3.9652   15.2144   -0.3552 H         1 AB1         0.0599
     56 H10        -6.2581   15.5544    0.5198 H         1 AB1         0.0557
     57 H11       -11.0886   16.1114    4.4855 H         1 AB1         0.0802
     58 H12       -11.9188   15.8696    2.6227 H         1 AB1         0.1856
     59 H13       -10.4971   14.1756    0.5585 H         1 AB1         0.0579
     60 H14        -8.5918   14.6297    5.3644 H         1 AB1         0.0342
     61 H15        -7.3610   16.7094    4.8215 H         1 AB1         0.0234
     62 H16        -8.8569   17.3992    4.1051 H         1 AB1         0.0234
     63 H17        -8.0882   15.9557    3.3621 H         1 AB1         0.0234
     64 H18        -9.9340   15.6225    7.2086 H         1 AB1         0.0234
     65 H19        -9.8343   17.2227    6.3986 H         1 AB1         0.0234
     66 H20        -8.3417   16.4285    7.0053 H         1 AB1         0.0234
     67 H21       -11.8561    9.7686    1.7613 H         1 AB1         0.0599
     68 H22       -13.6909    9.7415    3.4260 H         1 AB1         0.0559
     69 H23       -15.0578   11.7786    3.7925 H         1 AB1         0.0599
     70 H24       -14.5969   13.8260    2.4782 H         1 AB1         0.0557
     71 H25       -11.3924   11.8200    0.4560 H         1 AB1         0.0557
     72 H26       -12.7861   13.9941   -0.4580 H         1 AB1         0.0448
     73 H27       -13.4588   14.9684    0.8930 H         1 AB1         0.0448
     74 H28       -12.2775   16.6583    0.2425 H         1 AB1         0.0315
     75 H29       -11.2216   15.9079   -1.0019 H         1 AB1         0.0315
     76 H30       -10.2039   17.2571    1.5175 H         1 AB1         0.0619
     77 H31        -8.5112   15.7590    0.5234 H         1 AB1         0.0604
     78 H32        -8.8338   17.3576   -2.0215 H         1 AB1         0.1857
     79 H33        -9.3120   14.5704   -3.8117 H         1 AB1         0.0853
     80 H34        -7.5280   14.7686   -3.7437 H         1 AB1         0.0853
     81 H35       -11.3721   18.6541    0.0585 H         1 AB1         0.2099
     82 H36        -8.1887   18.7502   -0.1135 H         1 AB1         0.0449
     83 H37        -7.7393   17.9305    1.4204 H         1 AB1         0.0449
     84 H38        -8.6388   15.7185   -8.6468 H         1 AB1         0.0471
     85 H39        -6.6101   17.0951   -8.9727 H         1 AB1         0.0489
     86 H40        -5.5204   18.1670   -7.0261 H         1 AB1         0.0471
     87 H41        -6.7719   17.8605   -3.5210 H         1 AB1         0.0366
     88 H42        -6.2300   19.1691   -4.6258 H         1 AB1         0.0366
     89 H43        -5.2064   17.7121   -4.3891 H         1 AB1         0.0366
     90 H44       -10.2634   15.1374   -5.3467 H         1 AB1         0.0366
     91 H45        -9.7462   14.1650   -6.7656 H         1 AB1         0.0366
     92 H46       -10.7582   15.6302   -7.0016 H         1 AB1         0.0366
     93 H47       -11.8957   11.6023    5.0606 H         1 AB1         0.0304
     94 H48       -10.9121   11.0577    6.4616 H         1 AB1         0.0304
@<TRIPOS>BOND
     1    5    1 1  
     2   46    1 1  
     3    3    2 1  
     4    2   46 1  
     5    3    4 am 
     6   13    3 1  
     7    4    5 am 
     8    4   12 2  
     9    6    7 ar 
    10    6   11 ar 
    11   37    6 1  
    12    7    8 ar 
    13    8    9 ar 
    14   10    9 ar 
    15   11   10 ar 
    16   14   13 1  
    17   13   17 1  
    18   15   14 am 
    19   14   20 2  
    20   16   15 1  
    21   16   27 1  
    22   28   16 1  
    23   17   18 1  
    24   17   19 1  
    25   21   22 ar 
    26   26   21 ar 
    27   23   22 ar 
    28   24   23 ar 
    29   25   24 ar 
    30   25   26 ar 
    31   27   25 1  
    32   29   28 1  
    33   30   29 1  
    34   29   36 1  
    35   30   31 1  
    36   30   37 1  
    37   31   32 am 
    38   32   33 1  
    39   32   38 2  
    40   33   34 1  
    41   34   35 1  
    42   35   39 ar 
    43   35   43 ar 
    44   39   40 ar 
    45   39   45 1  
    46   40   41 ar 
    47   41   42 ar 
    48   42   43 ar 
    49   43   44 1  
    50    1   47 1  
    51    1   48 1  
    52    2   49 1  
    53    2   50 1  
    54    5   51 1  
    55    7   52 1  
    56    8   53 1  
    57    9   54 1  
    58   10   55 1  
    59   11   56 1  
    60   13   57 1  
    61   15   58 1  
    62   16   59 1  
    63   17   60 1  
    64   18   61 1  
    65   18   62 1  
    66   18   63 1  
    67   19   64 1  
    68   19   65 1  
    69   19   66 1  
    70   21   67 1  
    71   22   68 1  
    72   23   69 1  
    73   24   70 1  
    74   26   71 1  
    75   27   72 1  
    76   27   73 1  
    77   28   74 1  
    78   28   75 1  
    79   29   76 1  
    80   30   77 1  
    81   31   78 1  
    82   33   79 1  
    83   33   80 1  
    84   36   81 1  
    85   37   82 1  
    86   37   83 1  
    87   40   84 1  
    88   41   85 1  
    89   42   86 1  
    90   44   87 1  
    91   44   88 1  
    92   44   89 1  
    93   45   90 1  
    94   45   91 1  
    95   45   92 1  
    96   46   93 1  
    97   46   94 1  
@<TRIPOS>SUBSTRUCTURE
     1 AB1         1

