### 
### Created by X-TOOL on Mon Sep 10 21:12:45 2018
### 

@<TRIPOS>MOLECULE
2rkm_ligand
   47    46     1     0     0
SMALL
GAST_HUCK


@<TRIPOS>ATOM
      1 N           6.8580   17.0300   15.4260 N.4       1 LYS         0.2379
      2 CA          6.3580   18.3180   14.8710 C.3       1 LYS         0.0650
      3 C           5.2260   18.8750   15.7370 C.2       1 LYS         0.2262
      4 O           4.4490   18.1430   16.3590 O.2       1 LYS        -0.3908
      5 CB          5.9260   18.2340   13.4140 C.3       1 LYS         0.0080
      6 CG          5.1640   16.9910   13.0030 C.3       1 LYS        -0.0410
      7 CD          5.0810   16.9400   11.4710 C.3       1 LYS        -0.0123
      8 CE          6.3810   16.3250   10.9620 C.3       1 LYS        -0.0354
      9 NZ          6.4700   14.8860   11.3450 N.4       1 LYS         0.2185
     10 N           5.2010   20.1990   15.8510 N.am      1 LYS        -0.2668
     11 CA          4.2160   20.8820   16.6810 C.3       1 LYS         0.0945
     12 C           2.8770   21.1230   16.0030 C.2       1 LYS         0.0601
     13 O           2.8140   21.0780   14.7630 O.co2     1 LYS        -0.5666
     14 CB          4.7530   22.2500   17.1500 C.3       1 LYS        -0.0177
     15 CG          5.9940   22.1200   18.0240 C.3       1 LYS        -0.0446
     16 CD          5.8980   22.9130   19.3070 C.3       1 LYS        -0.0125
     17 CE          7.1950   22.8600   20.1030 C.3       1 LYS        -0.0354
     18 NZ          7.0610   22.0360   21.3460 N.4       1 LYS         0.2185
     19 OXT         1.8840   21.3300   16.7560 O.co2     1 LYS        -0.5666
     20 H1          7.6019   16.6792   14.8432 H         1 LYS         0.2015
     21 H2          6.1055   16.3598   15.4500 H         1 LYS         0.2015
     22 H3          7.2052   17.1790   16.3605 H         1 LYS         0.2015
     23 H4          7.1934   19.0322   14.9168 H         1 LYS         0.1098
     24 H5          6.8324   18.2901   12.7934 H         1 LYS         0.0346
     25 H6          5.2844   19.1029   13.2055 H         1 LYS         0.0346
     26 H7          4.1493   17.0234   13.4265 H         1 LYS         0.0270
     27 H8          5.6878   16.0977   13.3739 H         1 LYS         0.0270
     28 H9          4.9629   17.9563   11.0671 H         1 LYS         0.0317
     29 H10         4.2261   16.3208   11.1615 H         1 LYS         0.0317
     30 H11         7.2323   16.8679   11.3985 H         1 LYS         0.0813
     31 H12         6.4153   16.4095    9.8658 H         1 LYS         0.0813
     32 H13         7.3345   14.4993   10.9998 H         1 LYS         0.1994
     33 H14         5.6935   14.3831   10.9447 H         1 LYS         0.1994
     34 H15         6.4422   14.8032   12.3492 H         1 LYS         0.1994
     35 H16         5.8771   20.7422   15.3532 H         1 LYS         0.1877
     36 H17         4.0390   20.2511   17.5646 H         1 LYS         0.0726
     37 H18         3.9668   22.7589   17.7270 H         1 LYS         0.0305
     38 H19         5.0062   22.8521   16.2649 H         1 LYS         0.0305
     39 H20         6.8635   22.4793   17.4540 H         1 LYS         0.0269
     40 H21         6.1348   21.0589   18.2774 H         1 LYS         0.0269
     41 H22         5.0857   22.4983   19.9220 H         1 LYS         0.0317
     42 H23         5.6735   23.9615   19.0616 H         1 LYS         0.0317
     43 H24         7.4796   23.8842   20.3857 H         1 LYS         0.0813
     44 H25         7.9814   22.4222   19.4706 H         1 LYS         0.0813
     45 H26         7.9395   22.0282   21.8402 H         1 LYS         0.1994
     46 H27         6.8067   21.0927   21.0980 H         1 LYS         0.1994
     47 H28         6.3468   22.4324   21.9366 H         1 LYS         0.1994
@<TRIPOS>BOND
     1    3    2 1  
     2    2    5 1  
     3    2    1 1  
     4    5    6 1  
     5    6    7 1  
     6    7    8 1  
     7    8    9 1  
     8    3    4 2  
     9   11   12 1  
    10   11   14 1  
    11   10   11 1  
    12   14   15 1  
    13   15   16 1  
    14   16   17 1  
    15   17   18 1  
    16   12   19 ar 
    17   12   13 ar 
    18    3   10 am 
    19    1   20 1  
    20    1   21 1  
    21    1   22 1  
    22    2   23 1  
    23    5   24 1  
    24    5   25 1  
    25    6   26 1  
    26    6   27 1  
    27    7   28 1  
    28    7   29 1  
    29    8   30 1  
    30    8   31 1  
    31    9   32 1  
    32    9   33 1  
    33    9   34 1  
    34   10   35 1  
    35   11   36 1  
    36   14   37 1  
    37   14   38 1  
    38   15   39 1  
    39   15   40 1  
    40   16   41 1  
    41   16   42 1  
    42   17   43 1  
    43   17   44 1  
    44   18   45 1  
    45   18   46 1  
    46   18   47 1  
@<TRIPOS>SUBSTRUCTURE
     1 LYS         1

