### 
### Created by X-TOOL on Mon Sep 10 21:12:57 2018
### 

@<TRIPOS>MOLECULE
2rku_ligand
   78    82     1     0     0
SMALL
GAST_HUCK


@<TRIPOS>ATOM
      1 N1        -42.7990   11.9460   18.0890 N.ar      1 R78        -0.2878
      2 N3        -44.0660   13.8570   14.7150 N.pl3     1 R78        -0.2687
      3 C4        -41.8640   12.4240   17.2470 C.ar      1 R78         0.0200
      4 C5        -43.0960   14.3700   13.7230 C.3       1 R78         0.1354
      5 C6        -41.6760   14.2910   14.1160 C.2       1 R78         0.2284
      6 C7        -46.3230   11.5110   18.7200 C.ar      1 R78         0.0980
      7 C8        -45.5350   13.9590   14.5600 C.3       1 R78         0.0438
      8 C10       -42.8550   11.8550   12.8690 C.3       1 R78        -0.0610
      9 C13       -47.3450   14.9390   13.3030 C.3       1 R78        -0.0509
     10 C15       -46.3390   12.7770   14.0340 C.3       1 R78        -0.0296
     11 C17       -48.2690   10.5240   19.7090 C.ar      1 R78        -0.0230
     12 C20       -47.1180   12.2960   17.8890 C.ar      1 R78        -0.0405
     13 C21       -50.5580   11.0550   19.0150 C.2       1 R78         0.1937
     14 C22       -52.7790   10.9790   18.1120 C.3       1 R78         0.0509
     15 C24       -54.9580   12.0160   17.5680 C.3       1 R78        -0.0300
     16 C28       -54.5930    9.7410   16.8070 C.3       1 R78        -0.0300
     17 O2        -50.9800   10.6510   20.0970 O.2       1 R78        -0.3904
     18 N6        -51.3460   11.2340   17.9720 N.am      1 R78        -0.2846
     19 C29       -53.0940    9.8630   17.1200 C.3       1 R78         0.0106
     20 N7        -55.2150   11.0440   16.4880 N.4       1 R78         0.2332
     21 C30       -56.6790   10.8900   16.4050 C.3       1 R78        -0.0431
     22 C23       -53.4540   12.2600   17.6620 C.3       1 R78         0.0106
     23 C18       -49.0750   11.2810   18.8710 C.ar      1 R78         0.0285
     24 C16       -46.8900   10.6250   19.6330 C.ar      1 R78         0.1199
     25 O3        -46.0520    9.8690   20.4330 O.3       1 R78        -0.3244
     26 C31       -46.4850    8.7790   21.2670 C.3       1 R78         0.0570
     27 C19       -48.5230   12.1720   17.9390 C.ar      1 R78        -0.0628
     28 N5        -44.9550   11.5360   18.7390 N.pl3     1 R78        -0.2527
     29 C1        -44.1150   12.0470   17.8240 C.ar      1 R78         0.1779
     30 N2        -44.5370   12.6780   16.7250 N.ar      1 R78        -0.2512
     31 C2        -43.6260   13.2120   15.8720 C.ar      1 R78         0.1459
     32 C14       -47.5600   13.4390   13.4150 C.3       1 R78        -0.0509
     33 C12       -45.9180   15.1950   13.7660 C.3       1 R78        -0.0296
     34 C9        -43.1500   13.3440   12.5470 C.3       1 R78        -0.0147
     35 O1        -40.8350   14.8060   13.3360 O.2       1 R78        -0.3839
     36 N4        -41.2990   13.6610   15.2350 N.am      1 R78        -0.2208
     37 C11       -39.8810   13.5230   15.6240 C.3       1 R78         0.0423
     38 C3        -42.2670   13.0880   16.1130 C.ar      1 R78         0.1273
     39 H1        -40.8099   12.2875   17.4598 H         1 R78         0.0703
     40 H2        -43.3640   15.3930   13.4202 H         1 R78         0.0806
     41 H3        -45.9052   14.1160   15.5839 H         1 R78         0.0559
     42 H4        -42.9302   11.2588   11.9477 H         1 R78         0.0232
     43 H5        -43.5857   11.4871   13.6044 H         1 R78         0.0232
     44 H6        -41.8401   11.7635   13.2831 H         1 R78         0.0232
     45 H7        -48.0575   15.4762   13.9463 H         1 R78         0.0266
     46 H8        -47.4730   15.2665   12.2607 H         1 R78         0.0266
     47 H9        -46.6285   12.1009   14.8520 H         1 R78         0.0288
     48 H10       -45.7686   12.2160   13.2790 H         1 R78         0.0288
     49 H11       -48.7213    9.8497   20.4272 H         1 R78         0.0553
     50 H12       -46.6588   13.0008   17.2052 H         1 R78         0.0514
     51 H13       -53.0630   10.7049   19.1388 H         1 R78         0.0559
     52 H14       -55.3278   11.6142   18.5229 H         1 R78         0.0815
     53 H15       -55.4728   12.9620   17.3443 H         1 R78         0.0815
     54 H16       -55.1021    9.3126   17.6829 H         1 R78         0.0815
     55 H17       -54.7194    9.0698   15.9448 H         1 R78         0.0815
     56 H18       -50.9685   11.5398   17.0979 H         1 R78         0.1844
     57 H19       -52.7460    8.9094   17.5436 H         1 R78         0.0339
     58 H20       -52.5559   10.0658   16.1823 H         1 R78         0.0339
     59 H21       -54.8483   11.3884   15.6145 H         1 R78         0.2030
     60 H22       -57.1370   11.8615   16.1676 H         1 R78         0.0777
     61 H23       -57.0650   10.5286   17.3696 H         1 R78         0.0777
     62 H24       -56.9273   10.1650   15.6159 H         1 R78         0.0777
     63 H25       -53.0652   12.5565   16.6767 H         1 R78         0.0339
     64 H26       -53.2539   13.0592   18.3908 H         1 R78         0.0339
     65 H27       -45.6181    8.3538   21.7940 H         1 R78         0.0573
     66 H28       -46.9516    8.0027   20.6429 H         1 R78         0.0573
     67 H29       -47.2161    9.1474   22.0017 H         1 R78         0.0573
     68 H30       -49.1575   12.7490   17.2760 H         1 R78         0.0548
     69 H31       -44.5111   11.1065   19.5633 H         1 R78         0.2125
     70 H32       -47.7305   13.0207   12.4120 H         1 R78         0.0266
     71 H33       -48.4385   13.2443   14.0477 H         1 R78         0.0266
     72 H34       -45.2485   15.3228   12.9026 H         1 R78         0.0288
     73 H35       -45.8727   16.0920   14.4011 H         1 R78         0.0288
     74 H36       -42.4155   13.6683   11.7952 H         1 R78         0.0310
     75 H37       -44.1611   13.3920   12.1164 H         1 R78         0.0310
     76 H38       -39.2446   14.0046   14.8670 H         1 R78         0.0544
     77 H39       -39.6225   12.4562   15.6954 H         1 R78         0.0544
     78 H40       -39.7197   14.0055   16.5993 H         1 R78         0.0544
@<TRIPOS>BOND
     1    1    3 ar 
     2   29    1 ar 
     3    2    4 1  
     4    2    7 1  
     5   31    2 1  
     6    3   38 ar 
     7    4    5 1  
     8    4   34 1  
     9    5   35 2  
    10    5   36 am 
    11    6   12 ar 
    12    6   24 ar 
    13   28    6 1  
    14    7   10 1  
    15    7   33 1  
    16   34    8 1  
    17    9   32 1  
    18   33    9 1  
    19   10   32 1  
    20   11   23 ar 
    21   24   11 ar 
    22   12   27 ar 
    23   13   17 2  
    24   13   18 am 
    25   23   13 1  
    26   18   14 1  
    27   14   19 1  
    28   14   22 1  
    29   15   20 1  
    30   22   15 1  
    31   19   16 1  
    32   16   20 1  
    33   20   21 1  
    34   27   23 ar 
    35   24   25 1  
    36   25   26 1  
    37   29   28 1  
    38   30   29 ar 
    39   30   31 ar 
    40   31   38 ar 
    41   36   37 1  
    42   36   38 1  
    43    3   39 1  
    44    4   40 1  
    45    7   41 1  
    46    8   42 1  
    47    8   43 1  
    48    8   44 1  
    49    9   45 1  
    50    9   46 1  
    51   10   47 1  
    52   10   48 1  
    53   11   49 1  
    54   12   50 1  
    55   14   51 1  
    56   15   52 1  
    57   15   53 1  
    58   16   54 1  
    59   16   55 1  
    60   18   56 1  
    61   19   57 1  
    62   19   58 1  
    63   20   59 1  
    64   21   60 1  
    65   21   61 1  
    66   21   62 1  
    67   22   63 1  
    68   22   64 1  
    69   26   65 1  
    70   26   66 1  
    71   26   67 1  
    72   27   68 1  
    73   28   69 1  
    74   32   70 1  
    75   32   71 1  
    76   33   72 1  
    77   33   73 1  
    78   34   74 1  
    79   34   75 1  
    80   37   76 1  
    81   37   77 1  
    82   37   78 1  
@<TRIPOS>SUBSTRUCTURE
     1 R78         1

