### 
### Created by X-TOOL on Mon Sep 10 21:12:58 2018
### 

@<TRIPOS>MOLECULE
2rl5_ligand
   57    61     1     0     0
SMALL
GAST_HUCK


@<TRIPOS>ATOM
      1 C1         57.7490   52.3500   12.5160 C.ar      1 2RL         0.1284
      2 C2         59.1670   52.5810   12.4520 C.ar      1 2RL        -0.0216
      3 C3         60.0300   52.1640   13.4980 C.ar      1 2RL         0.0169
      4 C4         59.4740   51.4910   14.6530 C.ar      1 2RL         0.0269
      5 C5         58.0630   51.2560   14.7260 C.ar      1 2RL        -0.0224
      6 C6         57.1940   51.6760   13.6700 C.ar      1 2RL         0.1283
      7 N7         61.4000   52.3800   13.4540 N.ar      1 2RL        -0.3288
      8 C8         62.2280   51.9810   14.4600 C.ar      1 2RL        -0.0140
      9 C9         61.7420   51.3240   15.6100 C.ar      1 2RL        -0.0095
     10 C10        60.3300   51.0670   15.7210 C.ar      1 2RL         0.1347
     11 O11        59.7340   50.4220   16.8350 O.3       1 2RL        -0.2570
     12 C12        60.4870   49.5010   17.5690 C.ar      1 2RL         0.0986
     13 C13        61.1170   49.8870   18.7800 C.ar      1 2RL        -0.0107
     14 C14        61.8700   48.9670   19.5270 C.ar      1 2RL         0.1070
     15 C15        62.0170   47.6010   19.0700 C.ar      1 2RL         0.0910
     16 C16        61.3630   47.2380   17.8420 C.ar      1 2RL        -0.0553
     17 C17        60.6120   48.1720   17.1060 C.ar      1 2RL        -0.0512
     18 O25        62.4570   49.4490   20.7280 O.3       1 2RL        -0.3238
     19 C26        63.5190   48.6280   21.2510 C.3       1 2RL         0.0916
     20 C27        63.1140   47.1510   21.2480 C.3       1 2RL         0.0800
     21 N28        62.7920   46.7140   19.8650 N.am      1 2RL        -0.2058
     22 O33        55.8180   51.3850   13.8690 O.3       1 2RL        -0.3209
     23 O34        56.8940   52.7640   11.4740 O.3       1 2RL        -0.3184
     24 C35        63.5620   45.6700   19.3080 C.2       1 2RL         0.3147
     25 O36        63.5880   45.4420   18.0970 O.2       1 2RL        -0.3822
     26 N37        64.3040   44.9100   20.1860 N.am      1 2RL        -0.2147
     27 C38        65.0930   43.8050   19.8780 C.ar      1 2RL         0.0675
     28 C39        65.9500   43.8160   18.7300 C.ar      1 2RL        -0.0408
     29 C40        66.7540   42.6890   18.4160 C.ar      1 2RL        -0.0618
     30 C41        66.7020   41.5500   19.2530 C.ar      1 2RL         0.0238
     31 C42        65.8690   41.5120   20.3940 C.ar      1 2RL        -0.0618
     32 C43        65.0630   42.6440   20.7050 C.ar      1 2RL        -0.0408
     33 CL48       67.6740   40.1750   18.8710 Cl        1 2RL        -0.0850
     34 C49        55.3930   50.0490   14.1360 C.3       1 2RL         0.0581
     35 C53        57.1690   54.0300   10.8750 C.3       1 2RL         0.0593
     36 H1         59.5848   53.0838   11.5873 H         1 2RL         0.0484
     37 H2         57.6483   50.7535   15.5924 H         1 2RL         0.0520
     38 H3         63.2912   52.1741   14.3742 H         1 2RL         0.0770
     39 H4         62.4210   51.0176   16.3975 H         1 2RL         0.0545
     40 H5         61.0156   50.9067   19.1337 H         1 2RL         0.0441
     41 H6         61.4507   46.2217   17.4753 H         1 2RL         0.0446
     42 H7         60.1289   47.8721   16.1831 H         1 2RL         0.0429
     43 H8         63.7413   48.9392   22.2824 H         1 2RL         0.0633
     44 H9         64.4159   48.7576   20.6275 H         1 2RL         0.0633
     45 H10        62.2298   47.0146   21.8880 H         1 2RL         0.0602
     46 H11        63.9453   46.5447   21.6370 H         1 2RL         0.0602
     47 H12        64.2723   45.1814   21.1479 H         1 2RL         0.2264
     48 H13        65.9848   44.6937   18.0948 H         1 2RL         0.0502
     49 H14        67.3998   42.7012   17.5455 H         1 2RL         0.0583
     50 H15        65.8439   40.6311   21.0253 H         1 2RL         0.0583
     51 H16        64.4210   42.6228   21.5782 H         1 2RL         0.0502
     52 H17        54.3001   50.0296   14.2591 H         1 2RL         0.0575
     53 H18        55.8723   49.6891   15.0584 H         1 2RL         0.0575
     54 H19        55.6789   49.3985   13.2963 H         1 2RL         0.0575
     55 H20        56.4322   54.2285   10.0827 H         1 2RL         0.0578
     56 H21        58.1798   54.0186   10.4412 H         1 2RL         0.0578
     57 H22        57.1069   54.8186   11.6394 H         1 2RL         0.0578
@<TRIPOS>BOND
     1    1    2 ar 
     2    1    6 ar 
     3    1   23 1  
     4    2    3 ar 
     5    3    4 ar 
     6    3    7 ar 
     7    4    5 ar 
     8    4   10 ar 
     9    5    6 ar 
    10    6   22 1  
    11    7    8 ar 
    12    8    9 ar 
    13    9   10 ar 
    14   10   11 1  
    15   11   12 1  
    16   12   13 ar 
    17   12   17 ar 
    18   13   14 ar 
    19   14   15 ar 
    20   14   18 1  
    21   15   16 ar 
    22   15   21 1  
    23   16   17 ar 
    24   18   19 1  
    25   19   20 1  
    26   20   21 1  
    27   21   24 am 
    28   22   34 1  
    29   23   35 1  
    30   24   25 2  
    31   24   26 am 
    32   26   27 1  
    33   27   28 ar 
    34   27   32 ar 
    35   28   29 ar 
    36   29   30 ar 
    37   30   31 ar 
    38   30   33 1  
    39   31   32 ar 
    40    2   36 1  
    41    5   37 1  
    42    8   38 1  
    43    9   39 1  
    44   13   40 1  
    45   16   41 1  
    46   17   42 1  
    47   19   43 1  
    48   19   44 1  
    49   20   45 1  
    50   20   46 1  
    51   26   47 1  
    52   28   48 1  
    53   29   49 1  
    54   31   50 1  
    55   32   51 1  
    56   34   52 1  
    57   34   53 1  
    58   34   54 1  
    59   35   55 1  
    60   35   56 1  
    61   35   57 1  
@<TRIPOS>SUBSTRUCTURE
     1 2RL         1

