### 
### Created by X-TOOL on Mon Sep 10 21:12:57 2018
### 

@<TRIPOS>MOLECULE
2rly_ligand
  120   125     1     0     0
SMALL
GAST_HUCK


@<TRIPOS>ATOM
      1 N         -10.0560   11.5080    1.2330 N.4       1 PRO         0.2461
      2 CA         -9.1140   10.4110    1.4570 C.3       1 PRO         0.0670
      3 C          -7.7180   10.9160    1.8060 C.2       1 PRO         0.2268
      4 O          -7.0450   11.5450    0.9840 O.2       1 PRO        -0.3907
      5 CB         -9.1030    9.6750    0.1180 C.3       1 PRO         0.0127
      6 CG        -10.4440    9.9360   -0.4680 C.3       1 PRO        -0.0053
      7 CD        -10.8360   11.3180   -0.0080 C.3       1 PRO        -0.0313
      8 N          -7.3050   10.6600    3.0360 N.am      1 THR        -0.2586
      9 CA         -6.0070   11.1070    3.5120 C.3       1 THR         0.1568
     10 C          -5.0230    9.9430    3.4330 C.2       1 THR         0.2090
     11 O          -5.4320    8.7910    3.5850 O.2       1 THR        -0.3941
     12 CB         -6.1380   11.5840    4.9760 C.3       1 THR         0.0924
     13 OG1        -7.3910   12.2590    5.1310 O.3       1 THR        -0.3874
     14 CG2        -5.0140   12.5350    5.3730 C.3       1 THR        -0.0346
     15 N          -3.7260   10.2040    3.1970 N.am      1 PRO        -0.2498
     16 CA         -2.7320    9.1380    3.1400 C.3       1 PRO         0.1340
     17 C          -2.3240    8.6470    4.5290 C.2       1 PRO         0.2066
     18 O          -2.3200    9.4120    5.4970 O.2       1 PRO        -0.3942
     19 CB         -1.5640    9.8220    2.4230 C.3       1 PRO        -0.0104
     20 CG         -1.6450   11.2330    2.8810 C.3       1 PRO        -0.0281
     21 CD         -3.1190   11.5350    2.9520 C.3       1 PRO         0.0369
     22 N          -1.9730    7.3640    4.6510 N.am      1 PRO        -0.2498
     23 CA         -1.3600    6.8430    5.8520 C.3       1 PRO         0.1340
     24 C           0.1100    7.2270    5.8700 C.2       1 PRO         0.2066
     25 O           0.7090    7.3920    4.8030 O.2       1 PRO        -0.3942
     26 CB         -1.5650    5.3280    5.7590 C.3       1 PRO        -0.0104
     27 CG         -1.7950    5.0250    4.3140 C.3       1 PRO        -0.0281
     28 CD         -2.0800    6.3310    3.6080 C.3       1 PRO         0.0369
     29 N           0.7200    7.4280    7.0390 N.am      1 PRO        -0.2498
     30 CA          2.1320    7.7530    7.0670 C.3       1 PRO         0.1338
     31 C           2.9590    6.4990    6.8450 C.2       1 PRO         0.2041
     32 O           2.5640    5.4000    7.2420 O.2       1 PRO        -0.3944
     33 CB          2.3360    8.2920    8.4810 C.3       1 PRO        -0.0104
     34 CG          1.2820    7.6250    9.3010 C.3       1 PRO        -0.0281
     35 CD          0.1160    7.3690    8.3800 C.3       1 PRO         0.0369
     36 N           4.1130    6.6700    6.2280 N.am      1 LEU        -0.2637
     37 CA          4.9090    5.5340    5.8010 C.3       1 LEU         0.1314
     38 C           5.6670    4.9220    6.9840 C.2       1 LEU         0.2064
     39 O           6.0390    5.6270    7.9210 O.2       1 LEU        -0.3942
     40 CB          5.8240    6.0200    4.6550 C.3       1 LEU        -0.0101
     41 CG          7.1050    5.2450    4.3620 C.3       1 LEU        -0.0425
     42 CD1         6.8170    4.0060    3.5400 C.3       1 LEU        -0.0625
     43 CD2         8.0690    6.1500    3.6280 C.3       1 LEU        -0.0625
     44 N           5.8960    3.5960    6.9550 N.am      1 PRO        -0.2498
     45 CA          6.6820    2.9170    7.9820 C.3       1 PRO         0.1339
     46 C           8.1820    3.1150    7.8040 C.2       1 PRO         0.2060
     47 O           8.6510    3.3700    6.7030 O.2       1 PRO        -0.3942
     48 CB          6.3430    1.4280    7.8060 C.3       1 PRO        -0.0104
     49 CG          5.4560    1.3090    6.6040 C.3       1 PRO        -0.0281
     50 CD          5.2850    2.6620    5.9970 C.3       1 PRO         0.0369
     51 N           8.9430    3.0180    8.9020 N.am      1 PRO        -0.2556
     52 CA         10.3890    3.1130    8.8790 C.3       1 PRO         0.0972
     53 C          11.0480    1.7420    8.7260 C.2       1 PRO         0.0603
     54 O          11.5830    1.4490    7.6390 O.co2     1 PRO        -0.5666
     55 CB         10.7120    3.7350   10.2430 C.3       1 PRO        -0.0159
     56 CG          9.5470    3.4090   11.1340 C.3       1 PRO        -0.0288
     57 CD          8.4530    2.8230   10.2720 C.3       1 PRO         0.0362
     58 OXT        11.0210    0.9550    9.6970 O.co2     1 PRO        -0.5666
     59 H1         -9.5407   12.3717    1.1653 H         1 PRO         0.2035
     60 H2        -10.6919   11.5564    2.0136 H         1 PRO         0.2035
     61 H3         -9.4714    9.7530    2.2628 H         1 PRO         0.1099
     62 H4         -8.9494    8.5964    0.2696 H         1 PRO         0.0347
     63 H5         -8.3109   10.0700   -0.5351 H         1 PRO         0.0347
     64 H6        -11.1702    9.1927   -0.1073 H         1 PRO         0.0320
     65 H7        -10.3953    9.8981   -1.5663 H         1 PRO         0.0320
     66 H8        -10.5659   12.0733   -0.7607 H         1 PRO         0.0814
     67 H9        -11.9157   11.3723    0.1950 H         1 PRO         0.0814
     68 H10        -7.9006   10.1462    3.6535 H         1 THR         0.1885
     69 H11        -5.6478   11.9369    2.8857 H         1 THR         0.0826
     70 H12        -6.1101   10.7064    5.6386 H         1 THR         0.0639
     71 H13        -7.4804   12.5561    6.0289 H         1 THR         0.2101
     72 H14        -5.1495   12.8462    6.4193 H         1 THR         0.0257
     73 H15        -5.0358   13.4208    4.7212 H         1 THR         0.0257
     74 H16        -4.0459   12.0240    5.2649 H         1 THR         0.0257
     75 H17        -3.1077    8.2853    2.5555 H         1 PRO         0.0802
     76 H18        -1.6820    9.7569    1.3313 H         1 PRO         0.0313
     77 H19        -0.6052    9.3694    2.7158 H         1 PRO         0.0313
     78 H20        -1.1474   11.9018    2.1633 H         1 PRO         0.0287
     79 H21        -1.1791   11.3456    3.8710 H         1 PRO         0.0287
     80 H22        -3.3404   12.2275    3.7774 H         1 PRO         0.0524
     81 H23        -3.4796   11.9649    2.0059 H         1 PRO         0.0524
     82 H24        -1.8531    7.2412    6.7510 H         1 PRO         0.0802
     83 H25        -2.4378    5.0242    6.3556 H         1 PRO         0.0313
     84 H26        -0.6710    4.7995    6.1215 H         1 PRO         0.0313
     85 H27        -2.6537    4.3461    4.2060 H         1 PRO         0.0287
     86 H28        -0.8990    4.5544    3.8830 H         1 PRO         0.0287
     87 H29        -1.3418    6.5084    2.8120 H         1 PRO         0.0524
     88 H30        -3.0912    6.3229    3.1752 H         1 PRO         0.0524
     89 H31         2.3863    8.5095    6.3100 H         1 PRO         0.0802
     90 H32         2.2086    9.3844    8.5011 H         1 PRO         0.0313
     91 H33         3.3380    8.0328    8.8534 H         1 PRO         0.0313
     92 H34         0.9744    8.2803   10.1293 H         1 PRO         0.0287
     93 H35         1.6610    6.6752    9.7062 H         1 PRO         0.0287
     94 H36        -0.3252    6.3794    8.5696 H         1 PRO         0.0524
     95 H37        -0.6561    8.1435    8.4982 H         1 PRO         0.0524
     96 H38         4.4442    7.5970    6.0519 H         1 LEU         0.1883
     97 H39         4.2378    4.7598    5.4010 H         1 LEU         0.0800
     98 H40         6.1176    7.0534    4.8911 H         1 LEU         0.0315
     99 H41         5.2223    6.0110    3.7342 H         1 LEU         0.0315
    100 H42         7.5591    4.9356    5.3149 H         1 LEU         0.0298
    101 H43         7.7569    3.4689    3.3448 H         1 LEU         0.0232
    102 H44         6.3567    4.2985    2.5847 H         1 LEU         0.0232
    103 H45         6.1283    3.3507    4.0934 H         1 LEU         0.0232
    104 H46         8.2681    7.0443    4.2368 H         1 LEU         0.0232
    105 H47         7.6286    6.4518    2.6662 H         1 LEU         0.0232
    106 H48         9.0114    5.6123    3.4472 H         1 LEU         0.0232
    107 H49         6.3862    3.2707    8.9807 H         1 PRO         0.0802
    108 H50         5.8194    1.0537    8.6980 H         1 PRO         0.0313
    109 H51         7.2650    0.8482    7.6516 H         1 PRO         0.0313
    110 H52         4.4753    0.9126    6.9059 H         1 PRO         0.0287
    111 H53         5.9160    0.6303    5.8707 H         1 PRO         0.0287
    112 H54         5.7977    2.7161    5.0253 H         1 PRO         0.0524
    113 H55         4.2178    2.8917    5.8618 H         1 PRO         0.0524
    114 H56        10.7238    3.7670    8.0604 H         1 PRO         0.0728
    115 H57        10.8273    4.8248   10.1483 H         1 PRO         0.0306
    116 H58        11.6375    3.3024   10.6507 H         1 PRO         0.0306
    117 H59         9.1854    4.3238   11.6262 H         1 PRO         0.0286
    118 H60         9.8531    2.6785   11.8973 H         1 PRO         0.0286
    119 H61         8.3133    1.7538   10.4896 H         1 PRO         0.0524
    120 H62         7.5036    3.3561   10.4280 H         1 PRO         0.0524
@<TRIPOS>BOND
     1    1    2 1  
     2    1    7 1  
     3    2    3 1  
     4    2    5 1  
     5    3    4 2  
     6    3    8 am 
     7    5    6 1  
     8    6    7 1  
     9    8    9 1  
    10    9   10 1  
    11    9   12 1  
    12   10   11 2  
    13   10   15 am 
    14   12   13 1  
    15   12   14 1  
    16   15   16 1  
    17   15   21 1  
    18   16   17 1  
    19   16   19 1  
    20   17   18 2  
    21   17   22 am 
    22   19   20 1  
    23   20   21 1  
    24   22   23 1  
    25   22   28 1  
    26   23   24 1  
    27   23   26 1  
    28   24   25 2  
    29   24   29 am 
    30   26   27 1  
    31   27   28 1  
    32   29   30 1  
    33   29   35 1  
    34   30   31 1  
    35   30   33 1  
    36   31   32 2  
    37   31   36 am 
    38   33   34 1  
    39   34   35 1  
    40   36   37 1  
    41   37   38 1  
    42   37   40 1  
    43   38   39 2  
    44   38   44 am 
    45   40   41 1  
    46   41   42 1  
    47   41   43 1  
    48   44   45 1  
    49   44   50 1  
    50   45   46 1  
    51   45   48 1  
    52   46   47 2  
    53   46   51 am 
    54   48   49 1  
    55   49   50 1  
    56   51   52 1  
    57   51   57 1  
    58   52   53 1  
    59   52   55 1  
    60   53   54 ar 
    61   53   58 ar 
    62   55   56 1  
    63   56   57 1  
    64    1   59 1  
    65    1   60 1  
    66    2   61 1  
    67    5   62 1  
    68    5   63 1  
    69    6   64 1  
    70    6   65 1  
    71    7   66 1  
    72    7   67 1  
    73    8   68 1  
    74    9   69 1  
    75   12   70 1  
    76   13   71 1  
    77   14   72 1  
    78   14   73 1  
    79   14   74 1  
    80   16   75 1  
    81   19   76 1  
    82   19   77 1  
    83   20   78 1  
    84   20   79 1  
    85   21   80 1  
    86   21   81 1  
    87   23   82 1  
    88   26   83 1  
    89   26   84 1  
    90   27   85 1  
    91   27   86 1  
    92   28   87 1  
    93   28   88 1  
    94   30   89 1  
    95   33   90 1  
    96   33   91 1  
    97   34   92 1  
    98   34   93 1  
    99   35   94 1  
   100   35   95 1  
   101   36   96 1  
   102   37   97 1  
   103   40   98 1  
   104   40   99 1  
   105   41  100 1  
   106   42  101 1  
   107   42  102 1  
   108   42  103 1  
   109   43  104 1  
   110   43  105 1  
   111   43  106 1  
   112   45  107 1  
   113   48  108 1  
   114   48  109 1  
   115   49  110 1  
   116   49  111 1  
   117   50  112 1  
   118   50  113 1  
   119   52  114 1  
   120   55  115 1  
   121   55  116 1  
   122   56  117 1  
   123   56  118 1  
   124   57  119 1  
   125   57  120 1  
@<TRIPOS>SUBSTRUCTURE
     1 PRO         1

