### 
### Created by X-TOOL on Mon Sep 10 21:12:57 2018
### 

@<TRIPOS>MOLECULE
2rm0_ligand
  139   145     1     0     0
SMALL
GAST_HUCK


@<TRIPOS>ATOM
      1 N          -4.5750   14.6400   -0.4010 N.4       1 PRO         0.2461
      2 CA         -3.1740   14.4620    0.0460 C.3       1 PRO         0.0671
      3 C          -2.9230   12.9930    0.3550 C.2       1 PRO         0.2293
      4 O          -3.7760   12.3390    0.9500 O.2       1 PRO        -0.3905
      5 CB         -2.9460   15.3060    1.2930 C.3       1 PRO         0.0127
      6 CG         -4.2960   15.8560    1.6010 C.3       1 PRO        -0.0053
      7 CD         -5.0770   15.8280    0.3060 C.3       1 PRO        -0.0313
      8 N          -1.7750   12.4370   -0.0570 N.am      1 PRO        -0.2471
      9 CA         -1.4970   11.0180    0.1490 C.3       1 PRO         0.1341
     10 C          -1.0670   10.6940    1.5780 C.2       1 PRO         0.2066
     11 O          -0.4500   11.5140    2.2610 O.2       1 PRO        -0.3942
     12 CB         -0.3510   10.7520   -0.8270 C.3       1 PRO        -0.0104
     13 CG          0.3680   12.0550   -0.9330 C.3       1 PRO        -0.0281
     14 CD         -0.6650   13.1340   -0.7270 C.3       1 PRO         0.0371
     15 N          -1.4050    9.4880    2.0420 N.am      1 PRO        -0.2498
     16 CA         -0.9250    8.9370    3.3030 C.3       1 PRO         0.1338
     17 C           0.4990    8.4090    3.1770 C.2       1 PRO         0.2041
     18 O           0.8960    7.9430    2.1050 O.2       1 PRO        -0.3944
     19 CB         -1.8980    7.7750    3.5870 C.3       1 PRO        -0.0104
     20 CG         -2.9350    7.8370    2.5100 C.3       1 PRO        -0.0281
     21 CD         -2.3010    8.5570    1.3680 C.3       1 PRO         0.0369
     22 N           1.2730    8.4690    4.2490 N.am      1 LEU        -0.2637
     23 CA          2.5300    7.7430    4.2630 C.3       1 LEU         0.1312
     24 C           2.2260    6.2780    4.5310 C.2       1 LEU         0.2039
     25 O           1.2510    5.9640    5.2200 O.2       1 LEU        -0.3944
     26 CB          3.4920    8.2930    5.3250 C.3       1 LEU        -0.0101
     27 CG          4.2730    9.5520    4.9280 C.3       1 LEU        -0.0425
     28 CD1         5.0830    9.3070    3.6610 C.3       1 LEU        -0.0625
     29 CD2         3.3460   10.7480    4.7610 C.3       1 LEU        -0.0625
     30 N           3.0320    5.3800    3.9900 N.am      1 ILE        -0.2635
     31 CA          2.8420    3.9640    4.2620 C.3       1 ILE         0.1337
     32 C           3.4100    3.6230    5.6450 C.2       1 ILE         0.2067
     33 O           4.3740    4.2480    6.0880 O.2       1 ILE        -0.3942
     34 CB          3.5250    3.0630    3.1810 C.3       1 ILE        -0.0037
     35 CG1         2.9500    3.2850    1.7860 C.3       1 ILE        -0.0491
     36 CG2         3.3510    1.5890    3.5190 C.3       1 ILE        -0.0582
     37 CD1         3.2330    4.6510    1.1890 C.3       1 ILE        -0.0648
     38 N           2.8290    2.6420    6.3550 N.am      1 PRO        -0.2498
     39 CA          3.5010    2.0090    7.4890 C.3       1 PRO         0.1340
     40 C           4.5380    0.9960    6.9970 C.2       1 PRO         0.2066
     41 O           4.3550    0.3750    5.9550 O.2       1 PRO        -0.3942
     42 CB          2.3470    1.3090    8.2170 C.3       1 PRO        -0.0104
     43 CG          1.3540    1.0080    7.1500 C.3       1 PRO        -0.0281
     44 CD          1.4700    2.1170    6.1430 C.3       1 PRO         0.0369
     45 N           5.6310    0.7900    7.7240 N.am      1 PRO        -0.2498
     46 CA          6.6260   -0.1960    7.3260 C.3       1 PRO         0.1340
     47 C           6.1860   -1.6160    7.6650 C.2       1 PRO         0.2066
     48 O           5.4750   -1.8340    8.6460 O.2       1 PRO        -0.3942
     49 CB          7.8700    0.1940    8.1390 C.3       1 PRO        -0.0104
     50 CG          7.5030    1.4220    8.9160 C.3       1 PRO        -0.0281
     51 CD          6.0020    1.4800    8.9580 C.3       1 PRO         0.0369
     52 N           6.6050   -2.6020    6.8620 N.am      1 PRO        -0.2498
     53 CA          6.4040   -4.0120    7.1740 C.3       1 PRO         0.1339
     54 C           7.4140   -4.4940    8.2100 C.2       1 PRO         0.2060
     55 O           8.5290   -3.9710    8.2740 O.2       1 PRO        -0.3942
     56 CB          6.6270   -4.7260    5.8280 C.3       1 PRO        -0.0104
     57 CG          6.7950   -3.6380    4.8120 C.3       1 PRO        -0.0281
     58 CD          7.2670   -2.4330    5.5690 C.3       1 PRO         0.0369
     59 N           7.0320   -5.4700    9.0500 N.am      1 PRO        -0.2556
     60 CA          7.9380   -6.0710   10.0260 C.3       1 PRO         0.0972
     61 C           8.8840   -7.0790    9.3730 C.2       1 PRO         0.0603
     62 O           8.5910   -8.2900    9.4230 O.co2     1 PRO        -0.5666
     63 CB          6.9930   -6.7770   11.0200 C.3       1 PRO        -0.0159
     64 CG          5.5980   -6.4250   10.5880 C.3       1 PRO        -0.0288
     65 CD          5.6890   -6.0530    9.1410 C.3       1 PRO         0.0362
     66 OXT         9.9080   -6.6540    8.7950 O.co2     1 PRO        -0.5666
     67 H1         -5.1252   13.8305   -0.1603 H         1 PRO         0.2035
     68 H2         -4.6090   14.7851   -1.3979 H         1 PRO         0.2035
     69 H3         -2.4882   14.7896   -0.7492 H         1 PRO         0.1099
     70 H4         -2.2292   16.1160    1.0925 H         1 PRO         0.0347
     71 H5         -2.5764   14.6865    2.1234 H         1 PRO         0.0347
     72 H6         -4.2104   16.8884    1.9708 H         1 PRO         0.0320
     73 H7         -4.7953   15.2351    2.3593 H         1 PRO         0.0320
     74 H8         -6.1551   15.7360    0.5041 H         1 PRO         0.0814
     75 H9         -4.8885   16.7387   -0.2815 H         1 PRO         0.0814
     76 H10        -2.3796   10.4125   -0.1048 H         1 PRO         0.0802
     77 H11        -0.7411   10.4436   -1.8082 H         1 PRO         0.0313
     78 H12         0.3177    9.9709   -0.4362 H         1 PRO         0.0313
     79 H13         0.8283   12.1549   -1.9270 H         1 PRO         0.0287
     80 H14         1.1472   12.1228   -0.1595 H         1 PRO         0.0287
     81 H15        -0.2682   13.9396   -0.0918 H         1 PRO         0.0524
     82 H16        -0.9906   13.5533   -1.6904 H         1 PRO         0.0524
     83 H17        -0.9676    9.6930    4.1009 H         1 PRO         0.0802
     84 H18        -2.3647    7.8994    4.5753 H         1 PRO         0.0313
     85 H19        -1.3660    6.8129    3.5512 H         1 PRO         0.0313
     86 H20        -3.8204    8.3859    2.8633 H         1 PRO         0.0287
     87 H21        -3.2302    6.8222    2.2051 H         1 PRO         0.0287
     88 H22        -1.7420    7.8640    0.7221 H         1 PRO         0.0524
     89 H23        -3.0525    9.0916    0.7685 H         1 PRO         0.0524
     90 H24         0.9942    9.0099    5.0426 H         1 LEU         0.1883
     91 H25         3.0081    7.8385    3.2770 H         1 LEU         0.0800
     92 H26         4.2210    7.5039    5.5616 H         1 LEU         0.0315
     93 H27         2.9035    8.5299    6.2236 H         1 LEU         0.0315
     94 H28         4.9772    9.7829    5.7408 H         1 LEU         0.0298
     95 H29         5.6339   10.2213    3.3955 H         1 LEU         0.0232
     96 H30         4.4045    9.0359    2.8387 H         1 LEU         0.0232
     97 H31         5.7954    8.4870    3.8341 H         1 LEU         0.0232
     98 H32         2.7748   10.9015    5.6885 H         1 LEU         0.0232
     99 H33         2.6511   10.5600    3.9293 H         1 LEU         0.0232
    100 H34         3.9422   11.6467    4.5446 H         1 LEU         0.0232
    101 H35         3.7759    5.6760    3.3908 H         1 ILE         0.1883
    102 H36         1.7626    3.7523    4.2588 H         1 ILE         0.0803
    103 H37         4.5981    3.3040    3.1634 H         1 ILE         0.0345
    104 H38         1.8591    3.1555    1.8413 H         1 ILE         0.0267
    105 H39         3.3760    2.5241    1.1156 H         1 ILE         0.0267
    106 H40         3.7565    1.3926    4.5225 H         1 ILE         0.0235
    107 H41         3.8891    0.9773    2.7799 H         1 ILE         0.0235
    108 H42         2.2817    1.3319    3.4989 H         1 ILE         0.0235
    109 H43         2.7807    4.7146    0.1883 H         1 ILE         0.0230
    110 H44         4.3202    4.7986    1.1100 H         1 ILE         0.0230
    111 H45         2.8032    5.4301    1.8358 H         1 ILE         0.0230
    112 H46         3.9870    2.7546    8.1355 H         1 PRO         0.0802
    113 H47         1.9096    1.9719    8.9780 H         1 PRO         0.0313
    114 H48         2.6956    0.3817    8.6951 H         1 PRO         0.0313
    115 H49         0.3383    0.9806    7.5714 H         1 PRO         0.0287
    116 H50         1.5820    0.0404    6.6792 H         1 PRO         0.0287
    117 H51         1.3541    1.7308    5.1196 H         1 PRO         0.0524
    118 H52         0.7155    2.8956    6.3288 H         1 PRO         0.0524
    119 H53         6.8272   -0.1277    6.2467 H         1 PRO         0.0802
    120 H54         8.7125    0.4085    7.4651 H         1 PRO         0.0313
    121 H55         8.1468   -0.6206    8.8244 H         1 PRO         0.0313
    122 H56         7.9023    2.3180    8.4182 H         1 PRO         0.0287
    123 H57         7.9077    1.3586    9.9369 H         1 PRO         0.0287
    124 H58         5.6074    0.9568    9.8415 H         1 PRO         0.0524
    125 H59         5.6430    2.5198    8.9568 H         1 PRO         0.0524
    126 H60         5.3841   -4.1877    7.5467 H         1 PRO         0.0802
    127 H61         5.7581   -5.3526    5.5781 H         1 PRO         0.0313
    128 H62         7.5303   -5.3522    5.8715 H         1 PRO         0.0313
    129 H63         5.8358   -3.4264    4.3168 H         1 PRO         0.0287
    130 H64         7.5402   -3.9313    4.0579 H         1 PRO         0.0287
    131 H65         8.3616   -2.4340    5.6781 H         1 PRO         0.0524
    132 H66         6.9485   -1.5025    5.0764 H         1 PRO         0.0524
    133 H67         8.5296   -5.2949   10.5336 H         1 PRO         0.0728
    134 H68         7.1779   -6.4184   12.0433 H         1 PRO         0.0306
    135 H69         7.1417   -7.8662   10.9806 H         1 PRO         0.0306
    136 H70         5.2195   -5.5763   11.1766 H         1 PRO         0.0286
    137 H71         4.9294   -7.2887   10.7181 H         1 PRO         0.0286
    138 H72         5.5950   -6.9388    8.4957 H         1 PRO         0.0524
    139 H73         4.9168   -5.3181    8.8697 H         1 PRO         0.0524
@<TRIPOS>BOND
     1    1    2 1  
     2    1    7 1  
     3    2    3 1  
     4    2    5 1  
     5    3    4 2  
     6    3    8 am 
     7    5    6 1  
     8    6    7 1  
     9    8    9 1  
    10    8   14 1  
    11    9   10 1  
    12    9   12 1  
    13   10   11 2  
    14   10   15 am 
    15   12   13 1  
    16   13   14 1  
    17   15   16 1  
    18   15   21 1  
    19   16   17 1  
    20   16   19 1  
    21   17   18 2  
    22   17   22 am 
    23   19   20 1  
    24   20   21 1  
    25   22   23 1  
    26   23   24 1  
    27   23   26 1  
    28   24   25 2  
    29   24   30 am 
    30   26   27 1  
    31   27   28 1  
    32   27   29 1  
    33   30   31 1  
    34   31   32 1  
    35   31   34 1  
    36   32   33 2  
    37   32   38 am 
    38   34   35 1  
    39   34   36 1  
    40   35   37 1  
    41   38   39 1  
    42   38   44 1  
    43   39   40 1  
    44   39   42 1  
    45   40   41 2  
    46   40   45 am 
    47   42   43 1  
    48   43   44 1  
    49   45   46 1  
    50   45   51 1  
    51   46   47 1  
    52   46   49 1  
    53   47   48 2  
    54   47   52 am 
    55   49   50 1  
    56   50   51 1  
    57   52   53 1  
    58   52   58 1  
    59   53   54 1  
    60   53   56 1  
    61   54   55 2  
    62   54   59 am 
    63   56   57 1  
    64   57   58 1  
    65   59   60 1  
    66   59   65 1  
    67   60   61 1  
    68   60   63 1  
    69   61   62 ar 
    70   61   66 ar 
    71   63   64 1  
    72   64   65 1  
    73    1   67 1  
    74    1   68 1  
    75    2   69 1  
    76    5   70 1  
    77    5   71 1  
    78    6   72 1  
    79    6   73 1  
    80    7   74 1  
    81    7   75 1  
    82    9   76 1  
    83   12   77 1  
    84   12   78 1  
    85   13   79 1  
    86   13   80 1  
    87   14   81 1  
    88   14   82 1  
    89   16   83 1  
    90   19   84 1  
    91   19   85 1  
    92   20   86 1  
    93   20   87 1  
    94   21   88 1  
    95   21   89 1  
    96   22   90 1  
    97   23   91 1  
    98   26   92 1  
    99   26   93 1  
   100   27   94 1  
   101   28   95 1  
   102   28   96 1  
   103   28   97 1  
   104   29   98 1  
   105   29   99 1  
   106   29  100 1  
   107   30  101 1  
   108   31  102 1  
   109   34  103 1  
   110   35  104 1  
   111   35  105 1  
   112   36  106 1  
   113   36  107 1  
   114   36  108 1  
   115   37  109 1  
   116   37  110 1  
   117   37  111 1  
   118   39  112 1  
   119   42  113 1  
   120   42  114 1  
   121   43  115 1  
   122   43  116 1  
   123   44  117 1  
   124   44  118 1  
   125   46  119 1  
   126   49  120 1  
   127   49  121 1  
   128   50  122 1  
   129   50  123 1  
   130   51  124 1  
   131   51  125 1  
   132   53  126 1  
   133   56  127 1  
   134   56  128 1  
   135   57  129 1  
   136   57  130 1  
   137   58  131 1  
   138   58  132 1  
   139   60  133 1  
   140   63  134 1  
   141   63  135 1  
   142   64  136 1  
   143   64  137 1  
   144   65  138 1  
   145   65  139 1  
@<TRIPOS>SUBSTRUCTURE
     1 PRO         1

