### 
### Created by X-TOOL on Mon Sep 10 21:12:45 2018
### 

@<TRIPOS>MOLECULE
2rox_ligand
   35    36     1     0     0
SMALL
GAST_HUCK


@<TRIPOS>ATOM
      1 C1         21.0550   44.0460    0.7430 C.ar      1 T44        -0.0403
      2 C2         22.2810   44.3810    1.3380 C.ar      1 T44        -0.0541
      3 C3         22.6410   43.7860    2.5320 C.ar      1 T44         0.0381
      4 C4         21.8650   42.8680    3.2110 C.ar      1 T44         0.1288
      5 C5         20.6610   42.5530    2.5930 C.ar      1 T44         0.0381
      6 C6         20.2790   43.1390    1.3920 C.ar      1 T44        -0.0541
      7 C7         20.5840   44.6190   -0.5140 C.3       1 T44         0.0324
      8 C8         20.8730   43.7030   -1.6210 C.3       1 T44         0.0365
      9 C9         19.6580   42.8770   -2.1560 C.2       1 T44         0.0864
     10 C1'        21.7880   42.5940    5.6430 C.ar      1 T44         0.1107
     11 C2'        21.1190   43.7220    5.9030 C.ar      1 T44        -0.0230
     12 C3'        20.7150   43.9980    7.2090 C.ar      1 T44         0.0330
     13 C4'        20.9510   43.1640    8.3010 C.ar      1 T44         0.0996
     14 C5'        21.6520   41.9850    7.9930 C.ar      1 T44         0.0330
     15 C6'        22.0780   41.6740    6.6790 C.ar      1 T44        -0.0230
     16 N8         21.2130   44.5050   -2.8290 N.4       1 T44         0.2340
     17 O4         22.2560   42.2370    4.3800 O.3       1 T44        -0.2638
     18 O4'        20.5300   43.5000    9.5120 O.3       1 T44        -0.3355
     19 O9         18.5280   43.3520   -2.1040 O.co2     1 T44        -0.5641
     20 O10        19.9800   41.7600   -2.6030 O.co2     1 T44        -0.5641
     21 I3         24.4750   44.3410    3.3680 I         1 T44        -0.0570
     22 I3'        19.7060   45.8150    7.3950 I         1 T44        -0.0586
     23 I5         19.2660   41.2190    3.3300 I         1 T44        -0.0570
     24 I5'        21.9970   40.7120    9.6440 I         1 T44        -0.0586
     25 H1         22.9398   45.1003    0.8650 H         1 T44         0.0581
     26 H2         19.3258   42.8619    0.9566 H         1 T44         0.0581
     27 H3         21.0940   45.5773   -0.6914 H         1 T44         0.0481
     28 H4         19.4986   44.7869   -0.4539 H         1 T44         0.0481
     29 H5         21.6943   43.0334   -1.3259 H         1 T44         0.1046
     30 H6         20.8920   44.4179    5.1035 H         1 T44         0.0576
     31 H7         22.6129   40.7543    6.4715 H         1 T44         0.0576
     32 H8         21.4140   43.8852   -3.5981 H         1 T44         0.2012
     33 H9         22.0216   45.0754   -2.6370 H         1 T44         0.2012
     34 H10        20.4335   45.0971   -3.0696 H         1 T44         0.2012
     35 H11        20.0835   44.3374    9.4698 H         1 T44         0.2470
@<TRIPOS>BOND
     1    2    1 ar 
     2    6    1 ar 
     3    1    7 1  
     4    3    2 ar 
     5    4    3 ar 
     6    3   21 1  
     7    4    5 ar 
     8   17    4 1  
     9    5    6 ar 
    10    5   23 1  
    11    7    8 1  
    12    8    9 1  
    13    8   16 1  
    14    9   19 ar 
    15    9   20 ar 
    16   10   11 ar 
    17   10   15 ar 
    18   10   17 1  
    19   11   12 ar 
    20   12   13 ar 
    21   12   22 1  
    22   13   14 ar 
    23   13   18 1  
    24   14   15 ar 
    25   14   24 1  
    26    2   25 1  
    27    6   26 1  
    28    7   27 1  
    29    7   28 1  
    30    8   29 1  
    31   11   30 1  
    32   15   31 1  
    33   16   32 1  
    34   16   33 1  
    35   16   34 1  
    36   18   35 1  
@<TRIPOS>SUBSTRUCTURE
     1 T44         1

