### 
### Created by X-TOOL on Fri Nov 18 12:29:53 2016
### 

@<TRIPOS>MOLECULE
2sfp_ligand
   10     9     1     0     0
SMALL
GAST_HUCK


@<TRIPOS>ATOM
      1 C1         25.5010   17.6990   67.8470 C.2       1 PPI         0.0345
      2 C2         24.0070   17.7560   67.8440 C.3       1 PPI        -0.0026
      3 C3         23.4120   16.6270   67.0180 C.3       1 PPI        -0.0536
      4 O1         26.0490   16.6080   68.1040 O.co2     1 PPI        -0.5690
      5 O2         26.1340   18.7400   67.5890 O.co2     1 PPI        -0.5690
      6 H          23.6861   18.7184   67.4188 H         1 PPI         0.0428
      7 H          23.6433   17.6728   68.8788 H         1 PPI         0.0428
      8 H          22.3145   16.6981   67.0367 H         1 PPI         0.0247
      9 H          23.7240   15.6602   67.4398 H         1 PPI         0.0247
     10 H          23.7669   16.7058   65.9798 H         1 PPI         0.0247
@<TRIPOS>BOND
     1    1    2 1  
     2    1    4 ar 
     3    1    5 ar 
     4    2    3 1  
     5    2    6 1  
     6    2    7 1  
     7    3    8 1  
     8    3    9 1  
     9    3   10 1  
@<TRIPOS>SUBSTRUCTURE
     1 PPI         1

