### 
### Created by X-TOOL on Mon Sep 10 21:12:45 2018
### 

@<TRIPOS>MOLECULE
2sim_ligand
   36    36     1     0     0
SMALL
GAST_HUCK


@<TRIPOS>ATOM
      1 C1         43.1440   51.8930   45.7220 C.2       1 DAN         0.0809
      2 C2         42.9540   51.5700   47.0740 C.2       1 DAN         0.1088
      3 C3         41.6990   51.1110   47.5000 C.2       1 DAN        -0.0276
      4 C4         41.5320   50.4770   48.8760 C.3       1 DAN         0.1003
      5 C5         42.6710   50.9260   49.8030 C.3       1 DAN         0.1064
      6 C6         44.0010   50.6440   49.0790 C.3       1 DAN         0.1321
      7 C7         45.2100   51.0200   49.9070 C.3       1 DAN         0.1154
      8 C8         46.4760   50.7660   49.0570 C.3       1 DAN         0.1068
      9 C9         47.7450   51.1770   49.8680 C.3       1 DAN         0.0727
     10 C10        42.7660   50.7610   52.2420 C.2       1 DAN         0.1734
     11 C11        42.3930   49.9380   53.4740 C.3       1 DAN         0.0257
     12 N5         42.5120   50.2100   51.0570 N.am      1 DAN        -0.2770
     13 O1A        42.2370   52.2040   44.9500 O.co2     1 DAN        -0.5623
     14 O1B        44.2840   51.8270   45.2450 O.co2     1 DAN        -0.5623
     15 O4         40.2990   50.8100   49.5070 O.3       1 DAN        -0.3807
     16 O6         44.0580   51.4470   47.8980 O.3       1 DAN        -0.3189
     17 O7         45.0550   52.3880   50.2550 O.3       1 DAN        -0.3861
     18 O8         46.5260   49.3690   48.6880 O.3       1 DAN        -0.3869
     19 O9         47.8820   50.3710   51.0250 O.3       1 DAN        -0.3924
     20 O10        43.3710   51.8420   52.3360 O.2       1 DAN        -0.3974
     21 H1         40.8366   51.2084   46.8421 H         1 DAN         0.0480
     22 H2         41.5762   49.3846   48.7544 H         1 DAN         0.0740
     23 H3         42.5972   52.0059   49.9989 H         1 DAN         0.0632
     24 H4         44.0502   49.5762   48.8194 H         1 DAN         0.0697
     25 H5         45.2564   50.4092   50.8206 H         1 DAN         0.0650
     26 H6         46.4264   51.3753   48.1426 H         1 DAN         0.0643
     27 H7         47.6547   52.2307   50.1705 H         1 DAN         0.0584
     28 H8         48.6350   51.0525   49.2337 H         1 DAN         0.0584
     29 H9         42.6518   50.5008   54.3830 H         1 DAN         0.0467
     30 H10        42.9464   48.9874   53.4613 H         1 DAN         0.0467
     31 H11        41.3123   49.7333   53.4648 H         1 DAN         0.0467
     32 H12        42.1978   49.2611   51.0288 H         1 DAN         0.1858
     33 H13        40.2548   50.3869   50.3564 H         1 DAN         0.2127
     34 H14        45.0099   52.9118   49.4637 H         1 DAN         0.2100
     35 H15        47.3027   49.2083   48.1653 H         1 DAN         0.2100
     36 H16        47.9631   49.4602   50.7673 H         1 DAN         0.2095
@<TRIPOS>BOND
     1    1   14 ar 
     2    1   13 ar 
     3    1    2 1  
     4    2   16 1  
     5    2    3 2  
     6    3    4 1  
     7    4   15 1  
     8    4    5 1  
     9    5   12 1  
    10    5    6 1  
    11    6   16 1  
    12    6    7 1  
    13    7   17 1  
    14    7    8 1  
    15    8   18 1  
    16    8    9 1  
    17    9   19 1  
    18   12   10 am 
    19   10   20 2  
    20   10   11 1  
    21    3   21 1  
    22    4   22 1  
    23    5   23 1  
    24    6   24 1  
    25    7   25 1  
    26    8   26 1  
    27    9   27 1  
    28    9   28 1  
    29   11   29 1  
    30   11   30 1  
    31   11   31 1  
    32   12   32 1  
    33   15   33 1  
    34   17   34 1  
    35   18   35 1  
    36   19   36 1  
@<TRIPOS>SUBSTRUCTURE
     1 DAN         1

