### 
### Created by X-TOOL on Mon Sep 10 21:12:45 2018
### 

@<TRIPOS>MOLECULE
2srt_ligand
   70    71     1     0     0
SMALL
GAST_HUCK


@<TRIPOS>ATOM
      1 C1         -1.9680    2.7480   14.3770 C.3       1 INH        -0.0094
      2 C2         -1.4790    2.0880   13.0710 C.3       1 INH         0.0293
      3 C3         -2.1390    2.8070   11.8600 C.2       1 INH         0.0842
      4 O4         -1.5200    2.8420   10.8030 O.co2     1 INH        -0.5643
      5 O5         -3.2470    3.3030   12.0110 O.co2     1 INH        -0.5643
      6 N6         -1.7850    0.6420   13.1240 N.4       1 INH         0.2597
      7 C7         -3.2370    0.3870   12.8900 C.3       1 INH         0.0701
      8 C8         -3.4870   -1.1360   12.6980 C.3       1 INH         0.0177
      9 C9         -4.7560   -1.3960   11.8440 C.3       1 INH        -0.0119
     10 C10        -4.8510   -2.8660   11.4510 C.ar      1 INH        -0.0427
     11 C11        -5.6290   -3.2490   10.3440 C.ar      1 INH        -0.0603
     12 C12        -5.7230   -4.5980    9.9880 C.ar      1 INH        -0.0686
     13 C13        -5.0460   -5.5690   10.7320 C.ar      1 INH        -0.0687
     14 C14        -4.2720   -5.1930   11.8340 C.ar      1 INH        -0.0686
     15 C15        -4.1720   -3.8440   12.1940 C.ar      1 INH        -0.0603
     16 C16        -4.1180    0.8870   14.0660 C.2       1 INH         0.2270
     17 O17        -3.9460    0.4770   15.2030 O.2       1 INH        -0.3907
     18 N18        -5.0730    1.7650   13.7890 N.am      1 INH        -0.2605
     19 C19        -6.0340    2.3190   14.8170 C.3       1 INH         0.1369
     20 C20        -6.4950    3.7320   14.3740 C.3       1 INH        -0.0087
     21 C21        -5.4300    4.7870   14.7430 C.3       1 INH        -0.0156
     22 C22        -5.9420    6.2010   14.4120 C.3       1 INH         0.0627
     23 N23        -4.8820    7.2240   14.7350 N.pl3     1 INH        -0.2723
     24 C24        -5.0300    8.5410   14.5970 C.cat     1 INH         0.2882
     25 N25        -4.0330    9.3350   14.9280 N.pl3     1 INH        -0.2849
     26 N26        -6.1590    9.0730   14.1490 N.pl3     1 INH        -0.2849
     27 C27        -7.2550    1.3650   14.9750 C.2       1 INH         0.2292
     28 O28        -7.6800    0.7200   14.0250 O.2       1 INH        -0.3823
     29 N29        -7.8290    1.2870   16.1790 N.am      1 INH        -0.2320
     30 C30        -8.9080    0.4640   16.3850 C.ar      1 INH         0.0663
     31 C31        -8.9760   -0.3170   17.5490 C.ar      1 INH        -0.0413
     32 C32       -10.0720   -1.1620   17.7670 C.ar      1 INH        -0.0755
     33 C33       -11.1020   -1.2320   16.8230 C.ar      1 INH        -0.0772
     34 C34       -11.0400   -0.4580   15.6610 C.ar      1 INH        -0.0755
     35 C35        -9.9460    0.3880   15.4370 C.ar      1 INH        -0.0413
     36 H1         -1.5049    2.2441   15.2382 H         1 INH         0.0303
     37 H2         -3.0623    2.6593   14.4453 H         1 INH         0.0303
     38 H3         -1.6854    3.8111   14.3788 H         1 INH         0.0303
     39 H4         -0.3885    2.2085   12.9919 H         1 INH         0.1023
     40 H5         -1.5310    0.2855   14.0320 H         1 INH         0.2052
     41 H6         -1.2495    0.1666   12.4145 H         1 INH         0.2052
     42 H7         -3.5382    0.9184   11.9752 H         1 INH         0.1101
     43 H8         -3.6168   -1.6049   13.6845 H         1 INH         0.0368
     44 H9         -2.6174   -1.5808   12.1921 H         1 INH         0.0368
     45 H10        -4.7101   -0.7812   10.9330 H         1 INH         0.0429
     46 H11        -5.6466   -1.1204   12.4279 H         1 INH         0.0429
     47 H12        -6.1561   -2.4982    9.7664 H         1 INH         0.0557
     48 H13        -6.3220   -4.8915    9.1335 H         1 INH         0.0599
     49 H14        -5.1212   -6.6141   10.4543 H         1 INH         0.0559
     50 H15        -3.7486   -5.9472   12.4104 H         1 INH         0.0599
     51 H16        -3.5696   -3.5545   13.0474 H         1 INH         0.0557
     52 H17        -5.1629    2.0794   12.8440 H         1 INH         0.1885
     53 H18        -5.5187    2.3984   15.7856 H         1 INH         0.0805
     54 H19        -7.4403    3.9796   14.8791 H         1 INH         0.0314
     55 H20        -6.6486    3.7380   13.2848 H         1 INH         0.0314
     56 H21        -4.5111    4.5906   14.1711 H         1 INH         0.0301
     57 H22        -5.2128    4.7224   15.8194 H         1 INH         0.0301
     58 H23        -6.8431    6.4104   15.0071 H         1 INH         0.0689
     59 H24        -6.1882    6.2576   13.3414 H         1 INH         0.0689
     60 H25        -3.9778    6.8795   15.0880 H         1 INH         0.2642
     61 H26        -4.1318   10.3553   14.8271 H         1 INH         0.2615
     62 H27        -3.1543    8.9358   15.2878 H         1 INH         0.2615
     63 H28        -6.9468    8.4637   13.8865 H         1 INH         0.2615
     64 H29        -6.2481   10.0956   14.0635 H         1 INH         0.2615
     65 H30        -7.4696    1.8326   16.9361 H         1 INH         0.2257
     66 H31        -8.1784   -0.2663   18.2814 H         1 INH         0.0502
     67 H32       -10.1219   -1.7623   18.6682 H         1 INH         0.0577
     68 H33       -11.9488   -1.8870   16.9929 H         1 INH         0.0487
     69 H34       -11.8400   -0.5124   14.9316 H         1 INH         0.0577
     70 H35        -9.8987    0.9845   14.5331 H         1 INH         0.0502
@<TRIPOS>BOND
     1    1    2 1  
     2    1   36 1  
     3    1   37 1  
     4    1   38 1  
     5    2    3 1  
     6    2    6 1  
     7    2   39 1  
     8    3    4 ar 
     9    3    5 ar 
    10    6    7 1  
    11    6   40 1  
    12    6   41 1  
    13    7    8 1  
    14    7   16 1  
    15    7   42 1  
    16    8    9 1  
    17    8   43 1  
    18    8   44 1  
    19    9   10 1  
    20    9   45 1  
    21    9   46 1  
    22   10   11 ar 
    23   10   15 ar 
    24   11   12 ar 
    25   11   47 1  
    26   12   13 ar 
    27   12   48 1  
    28   13   14 ar 
    29   13   49 1  
    30   14   15 ar 
    31   14   50 1  
    32   15   51 1  
    33   16   17 2  
    34   16   18 am 
    35   18   19 1  
    36   18   52 1  
    37   19   20 1  
    38   19   27 1  
    39   19   53 1  
    40   20   21 1  
    41   20   54 1  
    42   20   55 1  
    43   21   22 1  
    44   21   56 1  
    45   21   57 1  
    46   22   23 1  
    47   22   58 1  
    48   22   59 1  
    49   23   24 ar 
    50   23   60 1  
    51   24   25 ar 
    52   24   26 ar 
    53   25   61 1  
    54   25   62 1  
    55   26   63 1  
    56   26   64 1  
    57   27   28 2  
    58   27   29 am 
    59   29   30 1  
    60   29   65 1  
    61   30   31 ar 
    62   30   35 ar 
    63   31   32 ar 
    64   31   66 1  
    65   32   33 ar 
    66   32   67 1  
    67   33   34 ar 
    68   33   68 1  
    69   34   35 ar 
    70   34   69 1  
    71   35   70 1  
@<TRIPOS>SUBSTRUCTURE
     1 INH         1

