### 
### Created by X-TOOL on Mon Sep 10 21:12:47 2018
### 

@<TRIPOS>MOLECULE
2toh_ligand
   30    31     1     0     0
SMALL
GAST_HUCK


@<TRIPOS>ATOM
      1 N1         72.5310   59.7590   32.9450 N.2       1 HBI        -0.2714
      2 N2         70.4320   60.6660   33.2640 N.pl3     1 HBI        -0.2785
      3 C2         71.5640   60.2190   33.7620 C.2       1 HBI         0.2397
      4 N3         71.6400   60.2690   35.1280 N.am      1 HBI        -0.1843
      5 C4         72.7970   59.8120   35.7790 C.2       1 HBI         0.2015
      6 O4         72.9090   59.8380   37.0320 O.2       1 HBI        -0.4199
      7 C4A        73.8450   59.2980   34.9840 C.2       1 HBI         0.0751
      8 C8A        73.6640   59.3000   33.5570 C.2       1 HBI         0.0839
      9 N8         74.6400   58.8330   32.6740 N.pl3     1 HBI        -0.2961
     10 C7         75.6620   57.9310   33.2530 C.3       1 HBI         0.0829
     11 C6         75.9840   58.1460   34.7270 C.2       1 HBI         0.0509
     12 N5         75.0360   58.7800   35.5140 N.2       1 HBI        -0.3464
     13 C9         77.1620   57.4750   35.4060 C.3       1 HBI         0.1349
     14 O9         78.1810   57.2390   34.4180 O.3       1 HBI        -0.3705
     15 C10        77.8030   58.2580   36.5870 C.3       1 HBI         0.0931
     16 O10        77.0820   59.4680   36.8660 O.3       1 HBI        -0.3866
     17 C11        77.7880   57.4180   37.8630 C.3       1 HBI        -0.0339
     18 H1         70.2828   60.6677   32.2449 H         1 HBI         0.1909
     19 H2         69.6946   61.0144   33.8931 H         1 HBI         0.1909
     20 H3         70.8741   60.6298   35.6603 H         1 HBI         0.2530
     21 H4         74.6485   59.1000   31.6792 H         1 HBI         0.1862
     22 H5         76.5925   58.0660   32.6820 H         1 HBI         0.0762
     23 H6         75.3052   56.8974   33.1337 H         1 HBI         0.0762
     24 H7         76.8117   56.5093   35.7993 H         1 HBI         0.0859
     25 H8         78.9272   56.8182   34.8286 H         1 HBI         0.2143
     26 H9         78.8417   58.5054   36.3228 H         1 HBI         0.0648
     27 H10        76.1853   59.2551   37.0962 H         1 HBI         0.2102
     28 H11        78.2452   57.9900   38.6839 H         1 HBI         0.0257
     29 H12        78.3586   56.4920   37.6991 H         1 HBI         0.0257
     30 H13        76.7495   57.1673   38.1248 H         1 HBI         0.0257
@<TRIPOS>BOND
     1    1    3 2  
     2    1    8 1  
     3    3    2 1  
     4    3    4 am 
     5    4    5 am 
     6    5    6 2  
     7    5    7 1  
     8    7    8 2  
     9    7   12 1  
    10    8    9 1  
    11    9   10 1  
    12   10   11 1  
    13   11   12 2  
    14   11   13 1  
    15   13   14 1  
    16   13   15 1  
    17   15   16 1  
    18   15   17 1  
    19    2   18 1  
    20    2   19 1  
    21    4   20 1  
    22    9   21 1  
    23   10   22 1  
    24   10   23 1  
    25   13   24 1  
    26   14   25 1  
    27   15   26 1  
    28   16   27 1  
    29   17   28 1  
    30   17   29 1  
    31   17   30 1  
@<TRIPOS>SUBSTRUCTURE
     1 HBI         1

