### 
### Created by X-TOOL on Mon Sep 10 21:12:44 2018
### 

@<TRIPOS>MOLECULE
2tpi_ligand
   38    37     1     0     0
SMALL
GAST_HUCK


@<TRIPOS>ATOM
      1 N          18.8070   65.5860   12.6500 N.4       1 ILE         0.2381
      2 CA         19.7550   64.7920   13.4380 C.3       1 ILE         0.0675
      3 C          21.1160   64.7600   12.7360 C.2       1 ILE         0.2264
      4 O          21.2070   64.2830   11.5750 O.2       1 ILE        -0.3908
      5 CB         19.2670   63.3180   13.6020 C.3       1 ILE         0.0164
      6 CG1        17.8730   63.1280   14.2140 C.3       1 ILE        -0.0460
      7 CG2        20.2800   62.4390   14.3650 C.3       1 ILE        -0.0551
      8 CD1        17.8840   63.3290   15.7380 C.3       1 ILE        -0.0647
      9 N          22.1570   65.2440   13.4020 N.am      1 VAL        -0.2665
     10 CA         23.5480   65.1770   12.9100 C.3       1 VAL         0.0968
     11 C          24.3560   64.0890   13.6030 C.2       1 VAL         0.0603
     12 O          24.1360   63.8290   14.8180 O.co2     1 VAL        -0.5666
     13 CB         24.2720   66.5240   13.0360 C.3       1 VAL        -0.0118
     14 CG1        23.6580   67.4450   14.1070 C.3       1 VAL        -0.0590
     15 CG2        25.7680   66.3410   13.2400 C.3       1 VAL        -0.0590
     16 OXT        24.8240   63.1690   12.8860 O.co2     1 VAL        -0.5666
     17 H1         19.1503   66.5297   12.5628 H         1 ILE         0.2015
     18 H2         17.9112   65.5957   13.1121 H         1 ILE         0.2015
     19 H3         18.7079   65.1785   11.7334 H         1 ILE         0.2015
     20 H4         19.8634   65.2510   14.4317 H         1 ILE         0.1101
     21 H5         19.2064   62.9163   12.5798 H         1 ILE         0.0378
     22 H6         17.5231   62.1090   13.9922 H         1 ILE         0.0269
     23 H7         17.1844   63.8583   13.7640 H         1 ILE         0.0269
     24 H8         21.2815   62.5718   13.9298 H         1 ILE         0.0236
     25 H9         19.9825   61.3830   14.2850 H         1 ILE         0.0236
     26 H10        20.2982   62.7356   15.4241 H         1 ILE         0.0236
     27 H11        16.8681   63.1841   16.1343 H         1 ILE         0.0230
     28 H12        18.2265   64.3480   15.9710 H         1 ILE         0.0230
     29 H13        18.5651   62.5987   16.1993 H         1 ILE         0.0230
     30 H14        21.9901   65.6786   14.2870 H         1 ILE         0.1877
     31 H15        23.5005   64.9242   11.8405 H         1 ILE         0.0729
     32 H16        24.1440   67.0383   12.0721 H         1 ILE         0.0336
     33 H17        24.2214   68.3890   14.1455 H         1 ILE         0.0234
     34 H18        23.7056   66.9494   15.0878 H         1 ILE         0.0234
     35 H19        22.6086   67.6545   13.8525 H         1 ILE         0.0234
     36 H20        26.1665   65.6790   12.4571 H         1 ILE         0.0234
     37 H21        25.9513   65.8926   14.2276 H         1 ILE         0.0234
     38 H22        26.2682   67.3190   13.1827 H         1 ILE         0.0234
@<TRIPOS>BOND
     1    3    2 1  
     2    2    5 1  
     3    2    1 1  
     4    5    6 1  
     5    5    7 1  
     6    6    8 1  
     7    3    4 2  
     8   10   11 1  
     9   10   13 1  
    10    9   10 1  
    11   13   14 1  
    12   13   15 1  
    13   11   16 ar 
    14   11   12 ar 
    15    3    9 am 
    16    1   17 1  
    17    1   18 1  
    18    1   19 1  
    19    2   20 1  
    20    5   21 1  
    21    6   22 1  
    22    6   23 1  
    23    7   24 1  
    24    7   25 1  
    25    7   26 1  
    26    8   27 1  
    27    8   28 1  
    28    8   29 1  
    29    9   30 1  
    30   10   31 1  
    31   13   32 1  
    32   14   33 1  
    33   14   34 1  
    34   14   35 1  
    35   15   36 1  
    36   15   37 1  
    37   15   38 1  
@<TRIPOS>SUBSTRUCTURE
     1 ILE         1

