### 
### Created by X-TOOL on Mon Sep 10 21:12:46 2018
### 

@<TRIPOS>MOLECULE
2tsr_ligand
   52    54     1     0     0
SMALL
GAST_HUCK


@<TRIPOS>ATOM
      1 N1         39.1340   30.1890    2.6130 N.2       1 D16        -0.3127
      2 C2         39.5290   30.4630    3.9750 C.2       1 D16         0.1373
      3 CM2        40.8200   29.9260    4.5360 C.3       1 D16         0.0259
      4 N3         38.6750   31.2590    4.7930 N.am      1 D16        -0.1956
      5 C4         37.4440   31.8000    4.3280 C.2       1 D16         0.2337
      6 O4         36.7240   32.4780    5.0320 O.2       1 D16        -0.3861
      7 C4A        37.0770   31.4820    2.8850 C.ar      1 D16         0.0536
      8 C5         35.8940   31.9540    2.2970 C.ar      1 D16        -0.0465
      9 C6         35.5130   31.6780    0.9370 C.ar      1 D16        -0.0230
     10 C7         36.4190   30.8610    0.1560 C.ar      1 D16        -0.0617
     11 C8         37.6370   30.3590    0.7200 C.ar      1 D16        -0.0591
     12 C8A        37.9400   30.6790    2.0670 C.ar      1 D16         0.0063
     13 C9         34.1590   32.2570    0.3350 C.3       1 D16         0.0634
     14 N10        33.6280   33.6170    0.9020 N.pl3     1 D16        -0.2814
     15 C11        35.8940   36.7480    0.0950 C.2       1 D16         0.0792
     16 S13        35.7710   35.0630   -0.2660 S.3       1 D16        -0.0060
     17 C14        34.3880   34.8430    0.7490 C.2       1 D16         0.1123
     18 C15        34.1040   36.0420    1.3380 C.2       1 D16        -0.0532
     19 C16        34.9270   37.1180    0.9620 C.2       1 D16        -0.0778
     20 C          37.0250   37.5270   -0.5970 C.2       1 D16         0.1901
     21 O          37.7030   36.9240   -1.4480 O.2       1 D16        -0.4033
     22 N          37.1470   38.8790   -0.3550 N.am      1 D16        -0.2761
     23 CA         38.1930   39.6160   -1.1010 C.3       1 D16         0.0943
     24 CB         37.9850   39.6300   -2.6910 C.3       1 D16        -0.0066
     25 CG         38.8180   38.6710   -3.6730 C.3       1 D16         0.0038
     26 CD         38.7030   39.0220   -5.2190 C.2       1 D16         0.0350
     27 OE1        38.9720   38.0970   -6.0100 O.co2     1 D16        -0.5690
     28 OE2        38.3600   40.1840   -5.5030 O.co2     1 D16        -0.5690
     29 CT         38.4560   41.0000   -0.3760 C.2       1 D16         0.0600
     30 O1         38.0770   41.0790    0.8130 O.co2     1 D16        -0.5666
     31 O2         39.0140   41.8760   -1.0640 O.co2     1 D16        -0.5666
     32 CP1        32.2070   33.6530    1.2850 C.3       1 D16         0.0236
     33 H1         41.3396   29.3399    3.7637 H         1 D16         0.0525
     34 H2         40.6041   29.2823    5.4015 H         1 D16         0.0525
     35 H3         41.4589   30.7637    4.8523 H         1 D16         0.0525
     36 H4         38.9534   31.4454    5.7352 H         1 D16         0.2524
     37 H5         35.2294   32.5609    2.9012 H         1 D16         0.0581
     38 H6         36.1714   30.6253   -0.8727 H         1 D16         0.0576
     39 H7         38.3110   29.7486    0.1300 H         1 D16         0.0542
     40 H8         33.3761   31.5032    0.5049 H         1 D16         0.0677
     41 H9         34.3116   32.3900   -0.7462 H         1 D16         0.0677
     42 H10        33.2914   36.1573    2.0537 H         1 D16         0.0234
     43 H11        34.7991   38.1354    1.3287 H         1 D16         0.0466
     44 H12        36.5515   39.3445    0.2997 H         1 D16         0.1851
     45 H13        39.1200   39.0407   -0.9604 H         1 D16         0.0725
     46 H14        38.1932   40.6593   -3.0184 H         1 D16         0.0323
     47 H15        36.9237   39.3979   -2.8634 H         1 D16         0.0323
     48 H16        38.4576   37.6416   -3.5300 H         1 D16         0.0432
     49 H17        39.8788   38.7310   -3.3884 H         1 D16         0.0432
     50 H18        31.9552   34.6538    1.6659 H         1 D16         0.0494
     51 H19        32.0194   32.9045    2.0689 H         1 D16         0.0494
     52 H20        31.5846   33.4278    0.4064 H         1 D16         0.0494
@<TRIPOS>BOND
     1    1    2 2  
     2   12    1 1  
     3    2    3 1  
     4    4    2 am 
     5    5    4 am 
     6    5    6 2  
     7    7    5 1  
     8    8    7 ar 
     9    7   12 ar 
    10    9    8 ar 
    11    9   10 ar 
    12   13    9 1  
    13   10   11 ar 
    14   11   12 ar 
    15   14   13 1  
    16   17   14 1  
    17   14   32 1  
    18   16   15 1  
    19   15   19 2  
    20   15   20 1  
    21   16   17 1  
    22   17   18 2  
    23   18   19 1  
    24   20   21 2  
    25   20   22 am 
    26   22   23 1  
    27   23   24 1  
    28   23   29 1  
    29   24   25 1  
    30   25   26 1  
    31   26   27 ar 
    32   26   28 ar 
    33   29   30 ar 
    34   29   31 ar 
    35    3   33 1  
    36    3   34 1  
    37    3   35 1  
    38    4   36 1  
    39    8   37 1  
    40   10   38 1  
    41   11   39 1  
    42   13   40 1  
    43   13   41 1  
    44   18   42 1  
    45   19   43 1  
    46   22   44 1  
    47   23   45 1  
    48   24   46 1  
    49   24   47 1  
    50   25   48 1  
    51   25   49 1  
    52   32   50 1  
    53   32   51 1  
    54   32   52 1  
@<TRIPOS>SUBSTRUCTURE
     1 D16         1

