### 
### Created by X-TOOL on Mon Sep 10 21:12:45 2018
### 

@<TRIPOS>MOLECULE
2upj_ligand
   81    84     1     0     0
SMALL
GAST_HUCK


@<TRIPOS>ATOM
      1 CZ8         4.0140   25.4800    1.3280 C.3       1 U02        -0.0320
      2 CZ7         5.3230   24.0290    2.8610 C.3       1 U02        -0.0320
      3 CZ6         6.4610   25.1010    0.9090 C.3       1 U02        -0.0320
      4 CZ5         5.3820   25.2890    1.9860 C.3       1 U02         0.0905
      5 OZ5         5.7870   26.4810    2.6900 O.3       1 U02        -0.2581
      6 CZ4         5.1160   26.8180    3.8620 C.2       1 U02         0.3201
      7 OZ4         4.1610   26.1280    4.2490 O.2       1 U02        -0.3775
      8 NZ3         5.5360   27.9080    4.4860 N.am      1 U02        -0.2603
      9 CZ3         5.0140   28.2630    5.8170 C.3       1 U02         0.0500
     10 CZ2         5.9780   28.9610    6.7900 C.3       1 U02         0.0632
     11 CZ1         7.3950   28.4150    6.7650 C.2       1 U02         0.2054
     12 OZ1         8.3630   29.1260    6.4950 O.2       1 U02        -0.3848
     13 NZ1         7.5380   27.1250    7.0150 N.am      1 U02        -0.2355
     14 CB5         8.8640   26.6390    6.9340 C.ar      1 U02         0.0591
     15 CB4         9.7160   26.9400    7.9910 C.ar      1 U02        -0.0484
     16 CB3        11.0270   26.4770    8.0040 C.ar      1 U02        -0.0821
     17 CB2        11.4940   25.6990    6.9530 C.ar      1 U02        -0.0748
     18 CB1        10.6620   25.4080    5.8760 C.ar      1 U02        -0.0505
     19 CB6         9.3270   25.8440    5.8740 C.ar      1 U02        -0.0398
     20 CG1        11.3190   24.6560    4.7140 C.3       1 U02         0.0117
     21 CG2        10.2740   23.9690    3.8860 C.3       1 U02        -0.0261
     22 CG3        10.3680   23.7310    2.3980 C.3       1 U02        -0.0467
     23 CG4         9.2720   24.6160    2.9590 C.3       1 U02        -0.0467
     24 CA         12.4910   23.7470    5.1550 C.2       1 U02         0.0469
     25 CA2        12.1290   22.5830    5.8630 C.2       1 U02         0.2438
     26 OA2        11.0030   22.1540    5.9050 O.2       1 U02        -0.4052
     27 OA3        13.0740   21.7400    6.2300 O.3       1 U02        -0.2037
     28 CA4        14.3780   21.9500    5.9520 C.2       1 U02         0.1343
     29 CA5        14.8180   23.1090    5.3040 C.2       1 U02        -0.0022
     30 CA6        13.8540   24.0260    4.8810 C.2       1 U02         0.0741
     31 OA6        14.3710   25.2190    4.4690 O.3       1 U02        -0.3392
     32 CD         15.3440   20.8500    6.0810 C.3       1 U02         0.0477
     33 CD1        16.5300   21.2650    6.9660 C.3       1 U02        -0.0334
     34 CD2        16.0620   22.0760    8.1950 C.3       1 U02        -0.0622
     35 CE         15.6310   20.4160    4.6300 C.3       1 U02         0.0014
     36 CE1        16.8180   19.5060    4.3900 C.ar      1 U02        -0.0398
     37 CE2        17.1050   19.1090    3.0910 C.ar      1 U02        -0.0601
     38 CE3        18.2020   18.2940    2.8400 C.ar      1 U02        -0.0686
     39 CE4        19.0090   17.8650    3.8860 C.ar      1 U02        -0.0687
     40 CE5        18.7070   18.2570    5.1840 C.ar      1 U02        -0.0686
     41 CE6        17.6110   19.0730    5.4380 C.ar      1 U02        -0.0601
     42 H1          3.7296   24.5583    0.7992 H         1 U02         0.0260
     43 H2          4.0648   26.3130    0.6114 H         1 U02         0.0260
     44 H3          3.2640   25.7058    2.1003 H         1 U02         0.0260
     45 H4          6.2985   23.8725    3.3447 H         1 U02         0.0260
     46 H5          5.0807   23.1582    2.2341 H         1 U02         0.0260
     47 H6          4.5476   24.1534    3.6313 H         1 U02         0.0260
     48 H7          6.5093   26.0004    0.2775 H         1 U02         0.0260
     49 H8          6.2101   24.2292    0.2868 H         1 U02         0.0260
     50 H9          7.4362   24.9388    1.3913 H         1 U02         0.0260
     51 H10         6.2155   28.4970    4.0485 H         1 U02         0.1869
     52 H11         4.6753   27.3334    6.2977 H         1 U02         0.0544
     53 H12         4.1542   28.9325    5.6668 H         1 U02         0.0544
     54 H13         5.5821   28.8451    7.8097 H         1 U02         0.0527
     55 H14         6.0158   30.0293    6.5305 H         1 U02         0.0527
     56 H15         6.7642   26.5348    7.2450 H         1 U02         0.2255
     57 H16         9.3534   27.5433    8.8154 H         1 U02         0.0445
     58 H17        11.6823   26.7226    8.8319 H         1 U02         0.0560
     59 H18        12.5085   25.3176    6.9714 H         1 U02         0.0430
     60 H19         8.6619   25.5697    5.0632 H         1 U02         0.0436
     61 H20        11.7689   25.4213    4.0645 H         1 U02         0.0524
     62 H21         9.9041   23.1382    4.5048 H         1 U02         0.0337
     63 H22        10.1190   22.7437    1.9818 H         1 U02         0.0271
     64 H23        11.1923   24.1750    1.8207 H         1 U02         0.0271
     65 H24         9.3008   25.7024    2.7891 H         1 U02         0.0271
     66 H25         8.2275   24.2711    2.9502 H         1 U02         0.0271
     67 H26        15.8784   23.2902    5.1349 H         1 U02         0.0314
     68 H27        14.9604   25.0721    3.7386 H         1 U02         0.2488
     69 H28        14.8593   20.0038    6.5900 H         1 U02         0.0593
     70 H29        17.2205   21.8820    6.3723 H         1 U02         0.0299
     71 H30        17.0516   20.3605    7.3121 H         1 U02         0.0299
     72 H31        16.9345   22.3553    8.8039 H         1 U02         0.0232
     73 H32        15.3748   21.4643    8.7979 H         1 U02         0.0232
     74 H33        15.5436   22.9858    7.8582 H         1 U02         0.0232
     75 H34        15.7927   21.3298    4.0394 H         1 U02         0.0461
     76 H35        14.7364   19.8938    4.2600 H         1 U02         0.0461
     77 H36        16.4733   19.4348    2.2726 H         1 U02         0.0557
     78 H37        18.4289   17.9918    1.8240 H         1 U02         0.0599
     79 H38        19.8661   17.2305    3.6913 H         1 U02         0.0559
     80 H39        19.3311   17.9238    6.0053 H         1 U02         0.0599
     81 H40        17.3780   19.3694    6.4543 H         1 U02         0.0557
@<TRIPOS>BOND
     1    1    4 1  
     2    4    2 1  
     3    4    3 1  
     4    4    5 1  
     5    5    6 1  
     6    6    7 2  
     7    6    8 am 
     8    8    9 1  
     9    9   10 1  
    10   10   11 1  
    11   11   12 2  
    12   11   13 am 
    13   13   14 1  
    14   14   15 ar 
    15   14   19 ar 
    16   15   16 ar 
    17   16   17 ar 
    18   17   18 ar 
    19   18   19 ar 
    20   18   20 1  
    21   20   21 1  
    22   20   24 1  
    23   21   22 1  
    24   21   23 1  
    25   22   23 1  
    26   24   25 1  
    27   24   30 2  
    28   25   26 2  
    29   25   27 1  
    30   27   28 1  
    31   28   29 2  
    32   28   32 1  
    33   29   30 1  
    34   30   31 1  
    35   32   33 1  
    36   32   35 1  
    37   33   34 1  
    38   35   36 1  
    39   36   37 ar 
    40   36   41 ar 
    41   37   38 ar 
    42   38   39 ar 
    43   39   40 ar 
    44   40   41 ar 
    45    1   42 1  
    46    1   43 1  
    47    1   44 1  
    48    2   45 1  
    49    2   46 1  
    50    2   47 1  
    51    3   48 1  
    52    3   49 1  
    53    3   50 1  
    54    8   51 1  
    55    9   52 1  
    56    9   53 1  
    57   10   54 1  
    58   10   55 1  
    59   13   56 1  
    60   15   57 1  
    61   16   58 1  
    62   17   59 1  
    63   19   60 1  
    64   20   61 1  
    65   21   62 1  
    66   22   63 1  
    67   22   64 1  
    68   23   65 1  
    69   23   66 1  
    70   29   67 1  
    71   31   68 1  
    72   32   69 1  
    73   33   70 1  
    74   33   71 1  
    75   34   72 1  
    76   34   73 1  
    77   34   74 1  
    78   35   75 1  
    79   35   76 1  
    80   37   77 1  
    81   38   78 1  
    82   39   79 1  
    83   40   80 1  
    84   41   81 1  
@<TRIPOS>SUBSTRUCTURE
     1 U02         1

