### 
### Created by X-TOOL on Mon Sep 10 21:12:46 2018
### 

@<TRIPOS>MOLECULE
2usn_ligand
   46    48     1     0     0
SMALL
GAST_HUCK


@<TRIPOS>ATOM
      1 C1         29.5350   45.6860   47.8140 C.2       1 IN8         0.2176
      2 C2         30.9930   47.5770   48.1550 C.2       1 IN8         0.1564
      3 C3         27.2250   44.9310   48.4900 C.2       1 IN8         0.2179
      4 C7         26.7170   44.1230   44.6680 C.ar      1 IN8        -0.0580
      5 C8         26.5710   45.0420   43.6710 C.ar      1 IN8        -0.0685
      6 C9         25.9120   46.2050   43.9200 C.ar      1 IN8        -0.0687
      7 C10        25.2900   46.3920   45.1150 C.ar      1 IN8        -0.0685
      8 C11        25.3960   45.4530   46.0910 C.ar      1 IN8        -0.0580
      9 C12        25.0450   41.1560   47.4640 C.2       1 IN8         0.3239
     10 C13        23.8870   39.2030   47.8560 C.3       1 IN8         0.1113
     11 C14        22.3150   39.0760   51.7930 C.ar      1 IN8        -0.0687
     12 C15        21.9770   40.0940   50.9490 C.ar      1 IN8        -0.0685
     13 C16        22.4810   40.1390   49.6670 C.ar      1 IN8        -0.0578
     14 C19        23.1560   38.0900   51.3370 C.ar      1 IN8        -0.0685
     15 S1         29.3870   47.2050   48.7000 S.3       1 IN8         0.0739
     16 N1         30.6270   45.5220   47.1740 N.2       1 IN8        -0.2753
     17 N2         31.4840   46.5900   47.3960 N.2       1 IN8        -0.2787
     18 N3         28.4300   44.7640   47.8390 N.am      1 IN8        -0.1954
     19 S2         31.9500   49.0240   48.5730 S.3       1 IN8        -0.0735
     20 O1         26.9670   46.0870   49.2150 O.2       1 IN8        -0.3805
     21 C4         26.1880   43.8090   48.3620 C.3       1 IN8         0.0777
     22 C5         26.2330   43.2470   46.9260 C.3       1 IN8         0.0948
     23 C6         26.1450   44.3150   45.8960 C.ar      1 IN8        -0.0157
     24 O2         23.8090   40.4970   47.3530 O.3       1 IN8        -0.2505
     25 O3         26.0150   40.7130   48.1080 O.2       1 IN8        -0.3773
     26 N4         25.0960   42.3480   46.8300 N.am      1 IN8        -0.2459
     27 C17        23.3440   39.1880   49.2460 C.ar      1 IN8        -0.0130
     28 C18        23.6690   38.1570   50.0620 C.ar      1 IN8        -0.0578
     29 H1         27.2961   43.2252   44.4844 H         1 IN8         0.0557
     30 H2         26.9780   44.8464   42.6855 H         1 IN8         0.0599
     31 H3         25.8824   46.9832   43.1660 H         1 IN8         0.0559
     32 H4         24.7094   47.2908   45.2887 H         1 IN8         0.0599
     33 H5         24.8843   45.6019   47.0350 H         1 IN8         0.0557
     34 H6         24.9366   38.8742   47.8667 H         1 IN8         0.0776
     35 H7         23.2967   38.5248   47.2223 H         1 IN8         0.0776
     36 H8         21.9269   39.0460   52.8047 H         1 IN8         0.0559
     37 H9         21.3061   40.8742   51.2901 H         1 IN8         0.0599
     38 H10        22.1851   40.9374   48.9962 H         1 IN8         0.0557
     39 H11        23.4157   37.2585   51.9822 H         1 IN8         0.0599
     40 H12        28.5483   43.9113   47.3302 H         1 IN8         0.2393
     41 H13        32.0837   49.0601   49.5714 H         1 IN8         0.1310
     42 H14        25.1845   44.2083   48.5707 H         1 IN8         0.0555
     43 H15        26.4204   43.0080   49.0792 H         1 IN8         0.0555
     44 H16        27.1690   42.6892   46.7753 H         1 IN8         0.0745
     45 H17        24.3155   42.6240   46.2691 H         1 IN8         0.1899
     46 H18        24.3372   37.3801   49.7085 H         1 IN8         0.0557
@<TRIPOS>BOND
     1    1   18 1  
     2   16    1 2  
     3    1   15 1  
     4   17   16 1  
     5   18    3 am 
     6    3   20 2  
     7    3   21 1  
     8   21   22 1  
     9   22   26 1  
    10   22   23 1  
    11   23    8 ar 
    12   23    4 ar 
    13    4    5 ar 
    14    5    6 ar 
    15    7    6 ar 
    16    8    7 ar 
    17   26    9 am 
    18    9   24 1  
    19    9   25 2  
    20   24   10 1  
    21   10   27 1  
    22   27   13 ar 
    23   27   28 ar 
    24   28   14 ar 
    25   14   11 ar 
    26   12   11 ar 
    27   13   12 ar 
    28    2   19 1  
    29   17    2 2  
    30   15    2 1  
    31    4   29 1  
    32    5   30 1  
    33    6   31 1  
    34    7   32 1  
    35    8   33 1  
    36   10   34 1  
    37   10   35 1  
    38   11   36 1  
    39   12   37 1  
    40   13   38 1  
    41   14   39 1  
    42   18   40 1  
    43   19   41 1  
    44   21   42 1  
    45   21   43 1  
    46   22   44 1  
    47   26   45 1  
    48   28   46 1  
@<TRIPOS>SUBSTRUCTURE
     1 IN8         1

