### 
### Created by X-TOOL on Mon Sep 10 21:12:55 2018
### 

@<TRIPOS>MOLECULE
2uue_ligand
   46    49     1     0     0
SMALL
GAST_HUCK


@<TRIPOS>ATOM
      1 C14        -3.9500   47.8670    2.3880 C.3       1 MTZ         0.0482
      2 C15        -4.8160   46.8960    3.2050 C.3       1 MTZ         0.0670
      3 O          -4.6380   45.5080    2.8070 O.3       1 MTZ        -0.3759
      4 C16        -3.2700   45.0440    2.8960 C.3       1 MTZ         0.0670
      5 C17        -2.3090   45.9310    2.0900 C.3       1 MTZ         0.0482
      6 N5         -2.5490   47.3740    2.3640 N.pl3     1 MTZ        -0.3103
      7 C11        -1.4820   48.2300    2.6990 C.ar      1 MTZ         0.0295
      8 C12        -1.7650   49.5100    3.1620 C.ar      1 MTZ        -0.0528
      9 C13        -0.7330   50.3660    3.5200 C.ar      1 MTZ        -0.0489
     10 C10        -0.1580   47.7980    2.6280 C.ar      1 MTZ        -0.0528
     11 C9          0.8740   48.6540    3.0030 C.ar      1 MTZ        -0.0489
     12 C8          0.5900   49.9470    3.4400 C.ar      1 MTZ         0.0528
     13 N4          1.5470   50.7960    3.8290 N.pl3     1 MTZ        -0.2514
     14 C5          2.8080   50.7310    3.4150 C.ar      1 MTZ         0.1909
     15 N2          3.3120   49.5710    2.9600 N.ar      1 MTZ        -0.2690
     16 N3          3.5760   51.8310    3.4620 N.ar      1 MTZ        -0.2683
     17 C6          4.8340   51.8070    3.0410 C.ar      1 MTZ        -0.0001
     18 C7          5.3880   50.6240    2.5630 C.ar      1 MTZ        -0.0321
     19 C4          4.5900   49.4810    2.5450 C.ar      1 MTZ         0.0364
     20 C3          5.0670   48.2810    2.0160 C.2       1 MTZ         0.0608
     21 S           4.1640   46.8510    1.7580 S.3       1 MTZ         0.0175
     22 C1          6.3300   48.0680    1.4680 C.2       1 MTZ         0.0048
     23 C2          7.4110   49.1460    1.4830 C.3       1 MTZ        -0.0239
     24 N1          6.5330   46.8390    0.9600 N.2       1 MTZ        -0.2910
     25 C           5.4660   46.0260    1.0190 C.2       1 MTZ         0.1875
     26 N           5.4240   44.7650    0.5780 N.pl3     1 MTZ        -0.2919
     27 H1         -3.9805   48.8647    2.8503 H         1 MTZ         0.0532
     28 H2         -4.3359   47.9274    1.3597 H         1 MTZ         0.0532
     29 H3         -5.8730   47.1678    3.0679 H         1 MTZ         0.0579
     30 H4         -4.5469   46.9940    4.2671 H         1 MTZ         0.0579
     31 H5         -3.2171   44.0169    2.5059 H         1 MTZ         0.0579
     32 H6         -2.9600   45.0519    3.9514 H         1 MTZ         0.0579
     33 H7         -2.4592   45.7399    1.0172 H         1 MTZ         0.0532
     34 H8         -1.2739   45.6810    2.3656 H         1 MTZ         0.0532
     35 H9         -2.7943   49.8402    3.2436 H         1 MTZ         0.0490
     36 H10        -0.9602   51.3684    3.8644 H         1 MTZ         0.0507
     37 H11         0.0676   46.7961    2.2810 H         1 MTZ         0.0490
     38 H12         1.9021   48.3138    2.9550 H         1 MTZ         0.0507
     39 H13         1.2916   51.5447    4.4886 H         1 MTZ         0.2142
     40 H14         5.4313   52.7112    3.0696 H         1 MTZ         0.0845
     41 H15         6.4136   50.5917    2.2136 H         1 MTZ         0.0587
     42 H16         8.3204   48.7601    0.9991 H         1 MTZ         0.0415
     43 H17         7.6384   49.4228    2.5230 H         1 MTZ         0.0415
     44 H18         7.0532   50.0317    0.9376 H         1 MTZ         0.0415
     45 H19         6.2572   44.3434    0.1435 H         1 MTZ         0.1906
     46 H20         4.5584   44.2149    0.6727 H         1 MTZ         0.1906
@<TRIPOS>BOND
     1    1    2 1  
     2    1    6 1  
     3    2    3 1  
     4    3    4 1  
     5    4    5 1  
     6    5    6 1  
     7    6    7 1  
     8    7    8 ar 
     9    7   10 ar 
    10    8    9 ar 
    11    9   12 ar 
    12   10   11 ar 
    13   11   12 ar 
    14   12   13 1  
    15   13   14 1  
    16   14   15 ar 
    17   14   16 ar 
    18   15   19 ar 
    19   16   17 ar 
    20   17   18 ar 
    21   18   19 ar 
    22   19   20 1  
    23   20   21 1  
    24   20   22 2  
    25   21   25 1  
    26   22   23 1  
    27   22   24 1  
    28   24   25 2  
    29   25   26 1  
    30    1   27 1  
    31    1   28 1  
    32    2   29 1  
    33    2   30 1  
    34    4   31 1  
    35    4   32 1  
    36    5   33 1  
    37    5   34 1  
    38    8   35 1  
    39    9   36 1  
    40   10   37 1  
    41   11   38 1  
    42   13   39 1  
    43   17   40 1  
    44   18   41 1  
    45   23   42 1  
    46   23   43 1  
    47   23   44 1  
    48   26   45 1  
    49   26   46 1  
@<TRIPOS>SUBSTRUCTURE
     1 MTZ         1

