### 
### Created by X-TOOL on Mon Sep 10 21:12:57 2018
### 

@<TRIPOS>MOLECULE
2uuo_ligand
   52    53     1     0     0
SMALL
GAST_HUCK


@<TRIPOS>ATOM
      1 O28       -22.2820    5.7350   19.3580 O.2       1 LK3        -0.1507
      2 S11       -22.2230    4.6440   18.3960 S.o2      1 LK3         0.0683
      3 O27       -21.8220    5.1950   17.0650 O.2       1 LK3        -0.1507
      4 N         -23.6920    3.9820   18.2340 N.am      1 LK3        -0.2317
      5 CA        -24.4920    3.8770   19.4700 C.3       1 LK3         0.0913
      6 C         -25.0090    5.2660   19.8740 C.2       1 LK3         0.0565
      7 OXT       -25.3130    6.0400   18.9430 O.co2     1 LK3        -0.5670
      8 O         -25.0960    5.5670   21.1000 O.co2     1 LK3        -0.5670
      9 CB        -25.6110    2.8380   19.2560 C.3       1 LK3        -0.0098
     10 CG        -26.4690    2.6900   20.5120 C.3       1 LK3         0.0034
     11 CD        -27.4470    1.5390   20.4050 C.2       1 LK3         0.0350
     12 OE2       -27.4070    0.8430   19.3680 O.co2     1 LK3        -0.5690
     13 OE1       -28.2410    1.3710   21.3610 O.co2     1 LK3        -0.5690
     14 C12       -21.1420    3.4350   18.9580 C.ar      1 LK3         0.1052
     15 C17       -21.0220    3.2250   20.3280 C.ar      1 LK3        -0.0386
     16 C16       -20.1790    2.2630   20.8740 C.ar      1 LK3        -0.0582
     17 C15       -19.4210    1.4740   20.0170 C.ar      1 LK3        -0.0286
     18 C21       -18.5810    0.4860   20.5430 C.ar      1 LK3        -0.0292
     19 C20       -17.8160   -0.3320   19.6900 C.ar      1 LK3         0.0922
     20 C19       -17.8730   -0.1460   18.3020 C.ar      1 LK3        -0.0274
     21 C18       -18.7130    0.8620   17.7800 C.ar      1 LK3        -0.0562
     22 C14       -19.4980    1.6710   18.6300 C.ar      1 LK3        -0.0229
     23 C13       -20.3560    2.6430   18.1010 C.ar      1 LK3        -0.0318
     24 O22       -17.0540   -1.3520   20.2100 O.3       1 LK3        -0.3174
     25 C23       -16.6440   -1.1910   21.5730 C.3       1 LK3         0.0707
     26 C24       -15.2800   -0.4910   21.5280 C.3       1 LK3        -0.0250
     27 C25       -14.2550   -1.4170   20.8690 C.3       1 LK3        -0.0509
     28 C26       -12.8900   -0.7390   20.9050 C.3       1 LK3        -0.0558
     29 C30       -11.8540   -1.6240   20.2470 C.3       1 LK3        -0.0653
     30 H1        -24.0361    3.6638   17.3506 H         1 LK3         0.1697
     31 H2        -23.8429    3.5125   20.2798 H         1 LK3         0.0681
     32 H3        -25.1574    1.8656   19.0137 H         1 LK3         0.0319
     33 H4        -26.2489    3.1633   18.4210 H         1 LK3         0.0319
     34 H5        -27.0337    3.6212   20.6669 H         1 LK3         0.0432
     35 H6        -25.8082    2.5142   21.3736 H         1 LK3         0.0432
     36 H7        -21.6117    3.8384   20.9997 H         1 LK3         0.0627
     37 H8        -20.1144    2.1310   21.9480 H         1 LK3         0.0591
     38 H9        -18.5188    0.3494   21.6166 H         1 LK3         0.0497
     39 H10       -17.2811   -0.7667   17.6391 H         1 LK3         0.0590
     40 H11       -18.7558    1.0173   16.7080 H         1 LK3         0.0618
     41 H12       -20.4148    2.7857   17.0280 H         1 LK3         0.0636
     42 H13       -16.5535   -2.1718   22.0627 H         1 LK3         0.0614
     43 H14       -17.3718   -0.5737   22.1201 H         1 LK3         0.0614
     44 H15       -14.9553   -0.2537   22.5518 H         1 LK3         0.0291
     45 H16       -15.3633    0.4381   20.9451 H         1 LK3         0.0291
     46 H17       -14.5459   -1.6083   19.8256 H         1 LK3         0.0266
     47 H18       -14.2099   -2.3694   21.4176 H         1 LK3         0.0266
     48 H19       -12.6016   -0.5564   21.9507 H         1 LK3         0.0263
     49 H20       -12.9450    0.2190   20.3672 H         1 LK3         0.0263
     50 H21       -10.8736   -1.1263   20.2781 H         1 LK3         0.0230
     51 H22       -12.1393   -1.8068   19.2005 H         1 LK3         0.0230
     52 H23       -11.7959   -2.5822   20.7840 H         1 LK3         0.0230
@<TRIPOS>BOND
     1    1    2 2  
     2    2    3 2  
     3    2    4 am 
     4    2   14 1  
     5    4    5 1  
     6    5    6 1  
     7    5    9 1  
     8    6    7 ar 
     9    6    8 ar 
    10    9   10 1  
    11   10   11 1  
    12   11   12 ar 
    13   11   13 ar 
    14   14   15 ar 
    15   14   23 ar 
    16   15   16 ar 
    17   16   17 ar 
    18   17   18 ar 
    19   17   22 ar 
    20   18   19 ar 
    21   19   20 ar 
    22   19   24 1  
    23   20   21 ar 
    24   21   22 ar 
    25   22   23 ar 
    26   24   25 1  
    27   25   26 1  
    28   26   27 1  
    29   27   28 1  
    30   28   29 1  
    31    4   30 1  
    32    5   31 1  
    33    9   32 1  
    34    9   33 1  
    35   10   34 1  
    36   10   35 1  
    37   15   36 1  
    38   16   37 1  
    39   18   38 1  
    40   20   39 1  
    41   21   40 1  
    42   23   41 1  
    43   25   42 1  
    44   25   43 1  
    45   26   44 1  
    46   26   45 1  
    47   27   46 1  
    48   27   47 1  
    49   28   48 1  
    50   28   49 1  
    51   29   50 1  
    52   29   51 1  
    53   29   52 1  
@<TRIPOS>SUBSTRUCTURE
     1 LK3         1

