### 
### Created by X-TOOL on Mon Sep 10 21:12:57 2018
### 

@<TRIPOS>MOLECULE
2uup_ligand
   51    53     1     0     0
SMALL
GAST_HUCK


@<TRIPOS>ATOM
      1 N31       -10.6970    1.6870  -22.5910 N.1       1 LK4        -0.3338
      2 C30       -11.8280    1.4560  -22.4440 C.1       1 LK4         0.0934
      3 C27       -13.0960    1.4150  -22.2830 C.ar      1 LK4         0.0883
      4 C28       -13.5040    1.1500  -20.9910 C.ar      1 LK4        -0.0333
      5 C29       -14.8430    1.1120  -20.6920 C.ar      1 LK4        -0.0461
      6 C26       -14.0370    1.6330  -23.3070 C.ar      1 LK4        -0.0333
      7 C25       -15.4040    1.5780  -23.0130 C.ar      1 LK4        -0.0461
      8 C24       -15.7690    1.2990  -21.6930 C.ar      1 LK4        -0.0034
      9 C23       -17.1660    1.2960  -21.1720 C.3       1 LK4         0.1089
     10 O22       -18.0820    0.4510  -21.7780 O.3       1 LK4        -0.3032
     11 C20       -18.7980   -0.2900  -20.8750 C.ar      1 LK4         0.0953
     12 C19       -18.7920   -0.1240  -19.4660 C.ar      1 LK4        -0.0272
     13 C18       -19.5730   -0.9960  -18.6660 C.ar      1 LK4        -0.0562
     14 C21       -19.5260   -1.2750  -21.4680 C.ar      1 LK4        -0.0289
     15 C15       -20.2770   -2.1100  -20.6910 C.ar      1 LK4        -0.0286
     16 C16       -20.3280   -1.9980  -19.3020 C.ar      1 LK4        -0.0229
     17 C17       -21.1300   -2.9060  -18.6090 C.ar      1 LK4        -0.0318
     18 C14       -20.9630   -3.0590  -21.4080 C.ar      1 LK4        -0.0582
     19 C13       -21.7400   -3.9400  -20.7210 C.ar      1 LK4        -0.0386
     20 C12       -21.8300   -3.8810  -19.3500 C.ar      1 LK4         0.1052
     21 S11       -22.8060   -4.9850  -18.7290 S.o2      1 LK4         0.0683
     22 O33       -22.4680   -5.3570  -17.3410 O.2       1 LK4        -0.1507
     23 O32       -22.8200   -6.1180  -19.6730 O.2       1 LK4        -0.1507
     24 N         -24.2830   -4.3120  -18.6650 N.am      1 LK4        -0.2317
     25 CA        -25.0410   -4.1410  -19.9040 C.3       1 LK4         0.0913
     26 C         -25.6660   -5.4470  -20.3740 C.2       1 LK4         0.0565
     27 O         -25.6800   -5.7220  -21.5820 O.co2     1 LK4        -0.5670
     28 OXT       -26.1720   -6.2240  -19.5470 O.co2     1 LK4        -0.5670
     29 CB        -26.1390   -3.0710  -19.7110 C.3       1 LK4        -0.0098
     30 CG        -26.7980   -2.7480  -21.0460 C.3       1 LK4         0.0034
     31 CD        -27.7430   -1.5740  -20.9390 C.2       1 LK4         0.0350
     32 OE1       -28.5510   -1.4010  -21.8760 O.co2     1 LK4        -0.5690
     33 OE2       -27.7050   -0.8340  -19.9300 O.co2     1 LK4        -0.5690
     34 H1        -12.7686    0.9724  -20.2146 H         1 LK4         0.0701
     35 H2        -15.1694    0.9357  -19.6734 H         1 LK4         0.0584
     36 H3        -13.7046    1.8422  -24.3174 H         1 LK4         0.0701
     37 H4        -16.1515    1.7454  -23.7800 H         1 LK4         0.0584
     38 H5        -17.5533    2.3212  -21.2670 H         1 LK4         0.0800
     39 H6        -17.1185    1.0190  -20.1085 H         1 LK4         0.0800
     40 H7        -18.1985    0.6587  -19.0074 H         1 LK4         0.0590
     41 H8        -19.5879   -0.8927  -17.5870 H         1 LK4         0.0618
     42 H9        -19.5100   -1.3955  -22.5452 H         1 LK4         0.0497
     43 H10       -21.2128   -2.8631  -17.5290 H         1 LK4         0.0636
     44 H11       -20.8879   -3.1050  -22.4884 H         1 LK4         0.0591
     45 H12       -22.2952   -4.6981  -21.2614 H         1 LK4         0.0627
     46 H13       -24.6688   -4.0186  -17.7903 H         1 LK4         0.1697
     47 H14       -24.3476   -3.7931  -20.6838 H         1 LK4         0.0681
     48 H15       -25.6873   -2.1570  -19.2981 H         1 LK4         0.0319
     49 H16       -26.8992   -3.4519  -19.0132 H         1 LK4         0.0319
     50 H17       -27.3624   -3.6287  -21.3862 H         1 LK4         0.0432
     51 H18       -26.0149   -2.5082  -21.7803 H         1 LK4         0.0432
@<TRIPOS>BOND
     1    1    2 3  
     2    2    3 1  
     3    3    4 ar 
     4    3    6 ar 
     5    4    5 ar 
     6    5    8 ar 
     7    6    7 ar 
     8    7    8 ar 
     9    8    9 1  
    10    9   10 1  
    11   10   11 1  
    12   11   12 ar 
    13   11   14 ar 
    14   12   13 ar 
    15   13   16 ar 
    16   14   15 ar 
    17   15   16 ar 
    18   15   18 ar 
    19   16   17 ar 
    20   17   20 ar 
    21   18   19 ar 
    22   19   20 ar 
    23   20   21 1  
    24   21   22 2  
    25   21   23 2  
    26   21   24 am 
    27   24   25 1  
    28   25   26 1  
    29   25   29 1  
    30   26   27 ar 
    31   26   28 ar 
    32   29   30 1  
    33   30   31 1  
    34   31   32 ar 
    35   31   33 ar 
    36    4   34 1  
    37    5   35 1  
    38    6   36 1  
    39    7   37 1  
    40    9   38 1  
    41    9   39 1  
    42   12   40 1  
    43   13   41 1  
    44   14   42 1  
    45   17   43 1  
    46   18   44 1  
    47   19   45 1  
    48   24   46 1  
    49   25   47 1  
    50   29   48 1  
    51   29   49 1  
    52   30   50 1  
    53   30   51 1  
@<TRIPOS>SUBSTRUCTURE
     1 LK4         1

