### 
### Created by X-TOOL on Mon Sep 10 21:12:56 2018
### 

@<TRIPOS>MOLECULE
2uw0_ligand
   49    53     1     0     0
SMALL
GAST_HUCK


@<TRIPOS>ATOM
      1 CL1        13.5680   13.7150   -0.4550 Cl        1 GVK        -0.0486
      2 C2         12.9930   12.4950    0.6220 C.ar      1 GVK         0.0643
      3 C3         12.5300   12.8440    1.8770 C.ar      1 GVK        -0.0256
      4 C4         12.0640   11.8740    2.7340 C.ar      1 GVK        -0.0506
      5 C5         12.0410   10.5420    2.3410 C.ar      1 GVK        -0.0719
      6 C6         12.5180   10.2000    1.0790 C.ar      1 GVK        -0.0506
      7 C7         12.9900   11.1710    0.2270 C.ar      1 GVK        -0.0256
      8 C8         11.5430    9.4670    3.3110 C.3       1 GVK        -0.0283
      9 C9         11.9940    8.0940    2.7760 C.3       1 GVK        -0.0444
     10 C10        11.8190    6.9810    3.7840 C.3       1 GVK        -0.0452
     11 N11        12.6260    7.2940    4.9950 N.4       1 GVK         0.2252
     12 C14        12.1440    8.5600    5.6160 C.3       1 GVK        -0.0452
     13 C15        12.2900    9.7050    4.6340 C.3       1 GVK        -0.0444
     14 C16        10.0020    9.5250    3.4300 C.ar      1 GVK        -0.0709
     15 C17         9.3610   10.0190    4.5650 C.ar      1 GVK        -0.0489
     16 C18         7.9810   10.0460    4.6440 C.ar      1 GVK        -0.0286
     17 C19         7.2000    9.5910    3.5850 C.ar      1 GVK         0.0263
     18 C20         7.8400    9.0810    2.4620 C.ar      1 GVK        -0.0286
     19 C21         9.2180    9.0590    2.3810 C.ar      1 GVK        -0.0489
     20 C22         5.7120    9.5840    3.6790 C.ar      1 GVK         0.1069
     21 N23         5.1860    9.5540    4.9170 N.ar      1 GVK        -0.2675
     22 C24         3.8540    9.5290    5.0330 C.ar      1 GVK         0.0730
     23 N25         2.9320    9.4850    4.0690 N.ar      1 GVK        -0.2688
     24 C26         3.4880    9.4840    2.8510 C.ar      1 GVK         0.1222
     25 N27         2.8640    9.4480    1.6410 N.2       1 GVK        -0.2777
     26 C29         3.8150    9.4770    0.6790 C.2       1 GVK         0.1161
     27 N30         5.0510    9.5250    1.1890 N.pl3     1 GVK        -0.2331
     28 C31         4.8460    9.5270    2.5790 C.ar      1 GVK         0.1485
     29 H1         12.5342   13.8830    2.1861 H         1 GVK         0.0684
     30 H2         11.7128   12.1508    3.7215 H         1 GVK         0.0788
     31 H3         12.5175    9.1622    0.7658 H         1 GVK         0.0788
     32 H4         13.3597   10.8975   -0.7546 H         1 GVK         0.0684
     33 H5         13.0579    8.1561    2.5036 H         1 GVK         0.0168
     34 H6         11.4000    7.8538    1.8819 H         1 GVK         0.0168
     35 H7         12.1614    6.0310    3.3479 H         1 GVK         0.0801
     36 H8         10.7575    6.8964    4.0598 H         1 GVK         0.0801
     37 H9         13.5939    7.3980    4.7334 H         1 GVK         0.2012
     38 H10        12.5366    6.5413    5.6594 H         1 GVK         0.2012
     39 H11        12.7385    8.7739    6.5164 H         1 GVK         0.0801
     40 H12        11.0852    8.4502    5.8932 H         1 GVK         0.0801
     41 H13        11.8926   10.6185    5.1005 H         1 GVK         0.0168
     42 H14        13.3588    9.8415    4.4125 H         1 GVK         0.0168
     43 H15         9.9520   10.3866    5.3961 H         1 GVK         0.0790
     44 H16         7.5022   10.4253    5.5395 H         1 GVK         0.0703
     45 H17         7.2496    8.6954    1.6388 H         1 GVK         0.0703
     46 H18         9.6950    8.6731    1.4873 H         1 GVK         0.0790
     47 H19         3.4714    9.5469    6.0471 H         1 GVK         0.1037
     48 H20         3.5991    9.4629   -0.3883 H         1 GVK         0.1426
     49 H21         5.9461    9.5538    0.6802 H         1 GVK         0.2413
@<TRIPOS>BOND
     1    1    2 1  
     2    2    3 ar 
     3    2    7 ar 
     4    3    4 ar 
     5    4    5 ar 
     6    5    6 ar 
     7    5    8 1  
     8    6    7 ar 
     9    8    9 1  
    10    8   13 1  
    11    8   14 1  
    12    9   10 1  
    13   10   11 1  
    14   11   12 1  
    15   12   13 1  
    16   14   15 ar 
    17   14   19 ar 
    18   15   16 ar 
    19   16   17 ar 
    20   17   18 ar 
    21   17   20 1  
    22   18   19 ar 
    23   20   21 ar 
    24   20   28 ar 
    25   21   22 ar 
    26   22   23 ar 
    27   23   24 ar 
    28   24   25 1  
    29   24   28 ar 
    30   25   26 2  
    31   26   27 1  
    32   27   28 1  
    33    3   29 1  
    34    4   30 1  
    35    6   31 1  
    36    7   32 1  
    37    9   33 1  
    38    9   34 1  
    39   10   35 1  
    40   10   36 1  
    41   11   37 1  
    42   11   38 1  
    43   12   39 1  
    44   12   40 1  
    45   13   41 1  
    46   13   42 1  
    47   15   43 1  
    48   16   44 1  
    49   18   45 1  
    50   19   46 1  
    51   22   47 1  
    52   26   48 1  
    53   27   49 1  
@<TRIPOS>SUBSTRUCTURE
     1 GVK         1

