### 
### Created by X-TOOL on Mon Sep 10 21:12:55 2018
### 

@<TRIPOS>MOLECULE
2uw3_ligand
   22    23     1     0     0
SMALL
GAST_HUCK


@<TRIPOS>ATOM
      1 C1          4.2930   10.0190    2.4950 C.2       1 GVG         0.0169
      2 C2          4.6250   10.3550    1.0850 C.3       1 GVG        -0.0262
      3 C3          5.0650    9.8650    3.6530 C.2       1 GVG         0.0048
      4 C6          6.5190    9.9590    3.8280 C.ar      1 GVG        -0.0364
      5 C7          7.3780    9.7740    2.7500 C.ar      1 GVG        -0.0631
      6 C8          7.0640   10.1810    5.0860 C.ar      1 GVG        -0.0631
      7 C9          8.7420    9.8510    2.9240 C.ar      1 GVG        -0.0675
      8 C10         8.4300   10.2530    5.2530 C.ar      1 GVG        -0.0675
      9 C11         9.2680   10.0700    4.1770 C.ar      1 GVG        -0.0673
     10 C12         4.1570    9.5300    4.6500 C.2       1 GVG         0.0574
     11 N13         2.9110    9.4710    4.1780 N.pl3     1 GVG        -0.2255
     12 N3          3.0070    9.7620    2.8590 N.2       1 GVG        -0.2259
     13 H1          3.7028   10.3737    0.4857 H         1 GVG         0.0382
     14 H2          5.3108    9.5968    0.6791 H         1 GVG         0.0382
     15 H3          5.1069   11.3431    1.0472 H         1 GVG         0.0382
     16 H4          6.9713    9.5679    1.7665 H         1 GVG         0.0569
     17 H5          6.4102   10.2985    5.9426 H         1 GVG         0.0569
     18 H6          9.4029    9.7389    2.0722 H         1 GVG         0.0602
     19 H7          8.8452   10.4542    6.2339 H         1 GVG         0.0602
     20 H8         10.3427   10.0983    4.3162 H         1 GVG         0.0571
     21 H9          4.4288    9.3394    5.6872 H         1 GVG         0.1029
     22 H10         2.0548    9.2503    4.7063 H         1 GVG         0.2549
@<TRIPOS>BOND
     1    1    2 1  
     2    1    3 1  
     3    1   12 2  
     4    3    4 1  
     5    3   10 2  
     6    4    5 ar 
     7    4    6 ar 
     8    5    7 ar 
     9    6    8 ar 
    10    7    9 ar 
    11    8    9 ar 
    12   10   11 1  
    13   11   12 1  
    14    2   13 1  
    15    2   14 1  
    16    2   15 1  
    17    5   16 1  
    18    6   17 1  
    19    7   18 1  
    20    8   19 1  
    21    9   20 1  
    22   10   21 1  
    23   11   22 1  
@<TRIPOS>SUBSTRUCTURE
     1 GVG         1

