### 
### Created by X-TOOL on Mon Sep 10 21:12:56 2018
### 

@<TRIPOS>MOLECULE
2uw4_ligand
   31    32     1     0     0
SMALL
GAST_HUCK


@<TRIPOS>ATOM
      1 C1          4.3990   10.0450    1.0270 C.3       1 L15        -0.0265
      2 C2          4.1070    9.9090    2.4800 C.2       1 L15         0.0155
      3 N3          2.8250    9.8090    2.9440 N.2       1 L15        -0.2267
      4 N4          2.7950    9.6980    4.2990 N.pl3     1 L15        -0.2269
      5 C5          4.0830    9.7300    4.6900 C.2       1 L15         0.0549
      6 C6          4.9410    9.8660    3.5960 C.2       1 L15         0.0003
      7 C7          6.4090    9.9020    3.6190 C.ar      1 L15        -0.0426
      8 C8          7.0930   10.2060    4.7890 C.ar      1 L15        -0.0689
      9 C9          8.4750   10.2060    4.8130 C.ar      1 L15        -0.0649
     10 C10         9.2000    9.8970    3.6690 C.ar      1 L15        -0.0424
     11 C11        10.7080    9.8970    3.6870 C.3       1 L15         0.0191
     12 C12        11.2940    8.4980    3.6820 C.3       1 L15        -0.0263
     13 N13        10.7360    7.6090    2.6270 N.4       1 L15         0.2199
     14 C14         8.5140    9.5880    2.5030 C.ar      1 L15        -0.0649
     15 C15         7.1370    9.5850    2.4790 C.ar      1 L15        -0.0689
     16 H1          5.4867   10.1094    0.8761 H         1 L15         0.0381
     17 H2          3.9206   10.9570    0.6406 H         1 L15         0.0381
     18 H3          4.0057    9.1691    0.4904 H         1 L15         0.0381
     19 H4          1.9628    9.6084    4.8993 H         1 L15         0.2541
     20 H5          4.4132    9.6590    5.7253 H         1 L15         0.1010
     21 H6          6.5391   10.4449    5.6896 H         1 L15         0.0555
     22 H7          8.9970   10.4489    5.7314 H         1 L15         0.0546
     23 H8         11.0490   10.4180    4.5938 H         1 L15         0.0471
     24 H9         11.0705   10.4334    2.7977 H         1 L15         0.0471
     25 H10        11.0970    8.0375    4.6613 H         1 L15         0.0836
     26 H11        12.3799    8.5789    3.5266 H         1 L15         0.0836
     27 H12        11.1717    6.7020    2.6869 H         1 L15         0.1996
     28 H13        10.9170    8.0094    1.7198 H         1 L15         0.1996
     29 H14         9.7414    7.5133    2.7597 H         1 L15         0.1996
     30 H15         9.0672    9.3467    1.6025 H         1 L15         0.0546
     31 H16         6.6164    9.3330    1.5622 H         1 L15         0.0555
@<TRIPOS>BOND
     1    1    2 1  
     2    2    3 2  
     3    2    6 1  
     4    3    4 1  
     5    4    5 1  
     6    5    6 2  
     7    6    7 1  
     8    7    8 ar 
     9    7   15 ar 
    10    8    9 ar 
    11    9   10 ar 
    12   10   11 1  
    13   10   14 ar 
    14   11   12 1  
    15   12   13 1  
    16   14   15 ar 
    17    1   16 1  
    18    1   17 1  
    19    1   18 1  
    20    4   19 1  
    21    5   20 1  
    22    8   21 1  
    23    9   22 1  
    24   11   23 1  
    25   11   24 1  
    26   12   25 1  
    27   12   26 1  
    28   13   27 1  
    29   13   28 1  
    30   13   29 1  
    31   14   30 1  
    32   15   31 1  
@<TRIPOS>SUBSTRUCTURE
     1 L15         1

