### 
### Created by X-TOOL on Mon Sep 10 21:12:56 2018
### 

@<TRIPOS>MOLECULE
2uw5_ligand
   38    40     1     0     0
SMALL
GAST_HUCK


@<TRIPOS>ATOM
      1 N1         12.5210    7.4910    3.0520 N.4       1 GVN         0.2216
      2 C2         11.0550    7.7400    2.9990 C.3       1 GVN        -0.0140
      3 C3         10.7180    9.1970    3.3120 C.3       1 GVN         0.0638
      4 C4         11.4100   10.1950    2.4010 C.ar      1 GVN        -0.0241
      5 C5         11.5580    9.9570    1.0370 C.ar      1 GVN        -0.0574
      6 C6         12.1740   10.8910    0.2290 C.ar      1 GVN        -0.0543
      7 C7         12.6480   12.0760    0.7720 C.ar      1 GVN         0.0332
      8 CL8        13.4240   13.2530   -0.2420 Cl        1 GVN        -0.0769
      9 C9         12.4980   12.3190    2.1280 C.ar      1 GVN        -0.0543
     10 C10        11.8830   11.3870    2.9350 C.ar      1 GVN        -0.0574
     11 C11         9.2110    9.3850    3.3080 C.ar      1 GVN        -0.0277
     12 C12         8.5230    9.6000    4.4960 C.ar      1 GVN        -0.0621
     13 C13         7.1520    9.7520    4.4920 C.ar      1 GVN        -0.0677
     14 C14         6.4400    9.7000    3.3010 C.ar      1 GVN        -0.0413
     15 C15         7.1270    9.4660    2.1160 C.ar      1 GVN        -0.0677
     16 C16         8.4970    9.3150    2.1190 C.ar      1 GVN        -0.0621
     17 C17         4.9780    9.8130    3.2960 C.2       1 GVN        -0.0033
     18 C18         4.1210    9.8490    4.3900 C.2       1 GVN         0.0590
     19 N19         2.8490    9.8960    4.0050 N.pl3     1 GVN        -0.2178
     20 N20         2.8910    9.8690    2.6490 N.2       1 GVN        -0.2166
     21 C21         4.1580    9.8080    2.2100 C.2       1 GVN         0.0046
     22 H1         12.7052    6.5227    2.8410 H         1 GVN         0.1997
     23 H2         12.8650    7.7050    3.9750 H         1 GVN         0.1997
     24 H3         12.9859    8.0765    2.3759 H         1 GVN         0.1997
     25 H4         10.5565    7.0926    3.7355 H         1 GVN         0.0862
     26 H5         10.6884    7.4980    1.9905 H         1 GVN         0.0862
     27 H6         11.0746    9.3998    4.3326 H         1 GVN         0.0666
     28 H7         11.1874    9.0332    0.6076 H         1 GVN         0.0561
     29 H8         12.2876   10.6982   -0.8317 H         1 GVN         0.0606
     30 H9         12.8656   13.2451    2.5550 H         1 GVN         0.0606
     31 H10        11.7674   11.5853    3.9944 H         1 GVN         0.0561
     32 H11         9.0673    9.6486    5.4322 H         1 GVN         0.0551
     33 H12         6.6262    9.9133    5.4261 H         1 GVN         0.0561
     34 H13         6.5811    9.4017    1.1817 H         1 GVN         0.0561
     35 H14         9.0210    9.1403    1.1863 H         1 GVN         0.0551
     36 H15         4.4490    9.8399    5.4284 H         1 GVN         0.1019
     37 H16         2.0135    9.9427    4.6056 H         1 GVN         0.2593
     38 H17         4.4739    9.7625    1.1688 H         1 GVN         0.0670
@<TRIPOS>BOND
     1    1    2 1  
     2    2    3 1  
     3    3    4 1  
     4    3   11 1  
     5    4    5 ar 
     6    4   10 ar 
     7    5    6 ar 
     8    6    7 ar 
     9    7    8 1  
    10    7    9 ar 
    11    9   10 ar 
    12   11   12 ar 
    13   11   16 ar 
    14   12   13 ar 
    15   13   14 ar 
    16   14   15 ar 
    17   14   17 1  
    18   15   16 ar 
    19   17   18 2  
    20   17   21 1  
    21   18   19 1  
    22   19   20 1  
    23   20   21 2  
    24    1   22 1  
    25    1   23 1  
    26    1   24 1  
    27    2   25 1  
    28    2   26 1  
    29    3   27 1  
    30    5   28 1  
    31    6   29 1  
    32    9   30 1  
    33   10   31 1  
    34   12   32 1  
    35   13   33 1  
    36   15   34 1  
    37   16   35 1  
    38   18   36 1  
    39   19   37 1  
    40   21   38 1  
@<TRIPOS>SUBSTRUCTURE
     1 GVN         1

