### 
### Created by X-TOOL on Mon Sep 10 21:12:55 2018
### 

@<TRIPOS>MOLECULE
2uw6_ligand
   38    40     1     0     0
SMALL
GAST_HUCK


@<TRIPOS>ATOM
      1 N1         12.3290    7.3430    2.7480 N.4       1 GVO         0.2216
      2 C2         10.9700    7.8370    3.0170 C.3       1 GVO        -0.0140
      3 C3         10.8670    9.3790    3.1050 C.3       1 GVO         0.0638
      4 C4         11.8460    9.7920    4.1880 C.ar      1 GVO        -0.0241
      5 C5         11.7960    9.2710    5.4760 C.ar      1 GVO        -0.0574
      6 C6         12.7350    9.6380    6.4360 C.ar      1 GVO        -0.0543
      7 C7         13.7520   10.5150    6.1200 C.ar      1 GVO         0.0332
      8 CL8        14.9090   10.9560    7.3490 Cl        1 GVO        -0.0769
      9 C9         13.8240   11.0320    4.8300 C.ar      1 GVO        -0.0543
     10 C10        12.8820   10.6610    3.8690 C.ar      1 GVO        -0.0574
     11 C11         9.3690    9.5690    3.2780 C.ar      1 GVO        -0.0277
     12 C12         8.5970    9.4180    2.1330 C.ar      1 GVO        -0.0621
     13 C13         7.2100    9.5120    2.1880 C.ar      1 GVO        -0.0677
     14 C14         6.5660    9.7880    3.3980 C.ar      1 GVO        -0.0413
     15 C15         7.3420    9.9090    4.5540 C.ar      1 GVO        -0.0677
     16 C16         8.7260    9.7920    4.4910 C.ar      1 GVO        -0.0621
     17 C17         5.0810    9.8370    3.4410 C.2       1 GVO        -0.0033
     18 C18         4.2770    9.6450    4.5840 C.2       1 GVO         0.0590
     19 N19         3.0260    9.6850    4.2230 N.pl3     1 GVO        -0.2178
     20 N20         2.9840    9.8620    2.8390 N.2       1 GVO        -0.2166
     21 C21         4.2340    9.9430    2.3790 C.2       1 GVO         0.0046
     22 H1         12.3180    6.3360    2.7047 H         1 GVO         0.1997
     23 H2         12.9471    7.6408    3.4864 H         1 GVO         0.1997
     24 H3         12.6533    7.7135    1.8685 H         1 GVO         0.1997
     25 H4         10.6305    7.4125    3.9733 H         1 GVO         0.0862
     26 H5         10.3099    7.4918    2.2076 H         1 GVO         0.0862
     27 H6         11.1763    9.8658    2.1683 H         1 GVO         0.0666
     28 H7         11.0134    8.5678    5.7369 H         1 GVO         0.0561
     29 H8         12.6666    9.2319    7.4387 H         1 GVO         0.0606
     30 H9         14.6152   11.7260    4.5702 H         1 GVO         0.0606
     31 H10        12.9597   11.0554    2.8623 H         1 GVO         0.0561
     32 H11         9.0822    9.2242    1.1832 H         1 GVO         0.0551
     33 H12         6.6247    9.3703    1.2867 H         1 GVO         0.0561
     34 H13         6.8610   10.0956    5.5074 H         1 GVO         0.0561
     35 H14         9.3117    9.8757    5.3993 H         1 GVO         0.0551
     36 H15         4.6412    9.4894    5.5984 H         1 GVO         0.1019
     37 H16         2.2118    9.6009    4.8482 H         1 GVO         0.2593
     38 H17         4.5259   10.0713    1.3377 H         1 GVO         0.0670
@<TRIPOS>BOND
     1    1    2 1  
     2    2    3 1  
     3    3    4 1  
     4    3   11 1  
     5    4    5 ar 
     6    4   10 ar 
     7    5    6 ar 
     8    6    7 ar 
     9    7    8 1  
    10    7    9 ar 
    11    9   10 ar 
    12   11   12 ar 
    13   11   16 ar 
    14   12   13 ar 
    15   13   14 ar 
    16   14   15 ar 
    17   14   17 1  
    18   15   16 ar 
    19   17   18 2  
    20   17   21 1  
    21   18   19 1  
    22   19   20 1  
    23   20   21 2  
    24    1   22 1  
    25    1   23 1  
    26    1   24 1  
    27    2   25 1  
    28    2   26 1  
    29    3   27 1  
    30    5   28 1  
    31    6   29 1  
    32    9   30 1  
    33   10   31 1  
    34   12   32 1  
    35   13   33 1  
    36   15   34 1  
    37   16   35 1  
    38   18   36 1  
    39   19   37 1  
    40   21   38 1  
@<TRIPOS>SUBSTRUCTURE
     1 GVO         1

