### 
### Created by X-TOOL on Mon Sep 10 21:12:56 2018
### 

@<TRIPOS>MOLECULE
2uw7_ligand
   45    48     1     0     0
SMALL
GAST_HUCK


@<TRIPOS>ATOM
      1 CL1        13.3080   13.6520    0.2310 Cl        1 GVP        -0.0501
      2 C2         12.5840   12.4390    1.2390 C.ar      1 GVP         0.0626
      3 C3         12.4030   11.1570    0.7530 C.ar      1 GVP        -0.0273
      4 C4         11.8280   10.1890    1.5470 C.ar      1 GVP        -0.0532
      5 C5         11.4430   10.4800    2.8540 C.ar      1 GVP        -0.0783
      6 C6         11.6280   11.7740    3.3350 C.ar      1 GVP        -0.0532
      7 C7         12.2010   12.7420    2.5360 C.ar      1 GVP        -0.0273
      8 C8         10.7800    9.4070    3.7340 C.3       1 GVP        -0.0363
      9 C9         11.0630    7.9740    3.2340 C.3       1 GVP        -0.0483
     10 C10        12.5010    7.5290    3.4500 C.3       1 GVP        -0.0460
     11 N11        12.8340    7.6310    4.8990 N.4       1 GVP         0.2251
     12 C12        12.6760    9.0280    5.3980 C.3       1 GVP        -0.0460
     13 C13        11.2370    9.4680    5.2020 C.3       1 GVP        -0.0483
     14 C14         9.2500    9.5620    3.6540 C.ar      1 GVP        -0.0803
     15 C15         8.4740    9.8010    4.7850 C.ar      1 GVP        -0.0560
     16 C16         7.1020    9.8910    4.6860 C.ar      1 GVP        -0.0390
     17 C17         6.4720    9.7610    3.4540 C.ar      1 GVP        -0.0093
     18 C18         7.2430    9.4990    2.3320 C.ar      1 GVP        -0.0390
     19 C19         8.6130    9.4020    2.4300 C.ar      1 GVP        -0.0560
     20 C20         5.0070    9.7800    3.3540 C.2       1 GVP         0.0233
     21 C21         4.0830    9.6650    4.4010 C.2       1 GVP         0.0758
     22 N22         2.8310    9.6460    3.9410 N.pl3     1 GVP        -0.2076
     23 N23         2.9510    9.6990    2.5900 N.2       1 GVP        -0.2091
     24 C24         4.2420    9.7630    2.2140 C.2       1 GVP         0.0150
     25 H1         12.7146   10.9129   -0.2561 H         1 GVP         0.0680
     26 H2         11.6737    9.1917    1.1512 H         1 GVP         0.0775
     27 H3         11.3197   12.0223    4.3441 H         1 GVP         0.0775
     28 H4         12.3521   13.7428    2.9240 H         1 GVP         0.0680
     29 H5         10.8434    7.9313    2.1570 H         1 GVP         0.0157
     30 H6         10.3995    7.2804    3.7713 H         1 GVP         0.0157
     31 H7         13.1769    8.1754    2.8710 H         1 GVP         0.0801
     32 H8         12.6171    6.4866    3.1185 H         1 GVP         0.0801
     33 H9         13.7890    7.3397    5.0371 H         1 GVP         0.2012
     34 H10        12.2193    7.0254    5.4200 H         1 GVP         0.2012
     35 H11        13.3449    9.6970    4.8368 H         1 GVP         0.0801
     36 H12        12.9304    9.0677    6.4674 H         1 GVP         0.0801
     37 H13        10.5863    8.8117    5.7985 H         1 GVP         0.0157
     38 H14        11.1368   10.5044    5.5568 H         1 GVP         0.0157
     39 H15         8.9524    9.9172    5.7508 H         1 GVP         0.0772
     40 H16         6.5093   10.0647    5.5768 H         1 GVP         0.0645
     41 H17         6.7629    9.3693    1.3688 H         1 GVP         0.0645
     42 H18         9.2009    9.1986    1.5423 H         1 GVP         0.0772
     43 H19         4.3522    9.5996    5.4542 H         1 GVP         0.1148
     44 H20         1.9617    9.6009    4.4916 H         1 GVP         0.2640
     45 H21         4.6127    9.7954    1.1905 H         1 GVP         0.0703
@<TRIPOS>BOND
     1    1    2 1  
     2    2    3 ar 
     3    2    7 ar 
     4    3    4 ar 
     5    4    5 ar 
     6    5    6 ar 
     7    5    8 1  
     8    6    7 ar 
     9    8    9 1  
    10    8   13 1  
    11    8   14 1  
    12    9   10 1  
    13   10   11 1  
    14   11   12 1  
    15   12   13 1  
    16   14   15 ar 
    17   14   19 ar 
    18   15   16 ar 
    19   16   17 ar 
    20   17   18 ar 
    21   17   20 1  
    22   18   19 ar 
    23   20   21 2  
    24   20   24 1  
    25   21   22 1  
    26   22   23 1  
    27   23   24 2  
    28    3   25 1  
    29    4   26 1  
    30    6   27 1  
    31    7   28 1  
    32    9   29 1  
    33    9   30 1  
    34   10   31 1  
    35   10   32 1  
    36   11   33 1  
    37   11   34 1  
    38   12   35 1  
    39   12   36 1  
    40   13   37 1  
    41   13   38 1  
    42   15   39 1  
    43   16   40 1  
    44   18   41 1  
    45   19   42 1  
    46   21   43 1  
    47   22   44 1  
    48   24   45 1  
@<TRIPOS>SUBSTRUCTURE
     1 GVP         1

