### 
### Created by X-TOOL on Mon Sep 10 21:12:55 2018
### 

@<TRIPOS>MOLECULE
2uw8_ligand
   31    32     1     0     0
SMALL
GAST_HUCK


@<TRIPOS>ATOM
      1 C1         10.9790   10.4960    1.8390 C.ar      1 GVQ        -0.0573
      2 C2         11.8140   11.4510    1.2840 C.ar      1 GVQ        -0.0542
      3 C3         12.7810   12.0510    2.0750 C.ar      1 GVQ         0.0332
      4 C4         12.9300   11.7090    3.4050 C.ar      1 GVQ        -0.0542
      5 C5          6.6960   10.4470    3.2780 C.ar      1 GVQ        -0.0682
      6 C6          6.4160   10.9900    4.5290 C.ar      1 GVQ        -0.0685
      7 C7          7.3680   10.9210    5.5320 C.ar      1 GVQ        -0.0682
      8 C8          8.5970   10.3160    5.2930 C.ar      1 GVQ        -0.0579
      9 C9         10.2300    9.1220    3.8160 C.3       1 GVQ         0.0656
     10 C11         7.9240    9.8390    3.0370 C.ar      1 GVQ        -0.0579
     11 C12         8.8780    9.7700    4.0470 C.ar      1 GVQ        -0.0237
     12 C13        11.1270   10.1490    3.1740 C.ar      1 GVQ        -0.0235
     13 C14        12.0960   10.7570    3.9550 C.ar      1 GVQ        -0.0573
     14 C15        10.1490    7.8480    2.9600 C.3       1 GVQ        -0.0135
     15 N1         11.5040    7.2980    2.7980 N.4       1 GVQ         0.2216
     16 CL1        13.8270   13.2460    1.3960 Cl        1 GVQ        -0.0769
     17 H1         10.2143   10.0224    1.2340 H         1 GVQ         0.0561
     18 H2         11.7123   11.7268    0.2406 H         1 GVQ         0.0606
     19 H3         13.6940   12.1834    4.0103 H         1 GVQ         0.0606
     20 H4          5.9546   10.4981    2.4889 H         1 GVQ         0.0600
     21 H5          5.4591   11.4636    4.7165 H         1 GVQ         0.0561
     22 H6          7.1542   11.3407    6.5083 H         1 GVQ         0.0600
     23 H7          9.3388   10.2703    6.0822 H         1 GVQ         0.0561
     24 H8         10.6526    8.8432    4.7926 H         1 GVQ         0.0672
     25 H9          8.1376    9.4185    2.0610 H         1 GVQ         0.0561
     26 H10        12.1993   10.4848    4.9992 H         1 GVQ         0.0561
     27 H11         9.7287    8.0919    1.9731 H         1 GVQ         0.0863
     28 H12         9.5068    7.1075    3.4592 H         1 GVQ         0.0863
     29 H13        11.4622    6.4613    2.2375 H         1 GVQ         0.1997
     30 H14        11.8874    7.0769    3.7036 H         1 GVQ         0.1997
     31 H15        12.0907    7.9790    2.3418 H         1 GVQ         0.1997
@<TRIPOS>BOND
     1    1    2 ar 
     2   12    1 ar 
     3    2    3 ar 
     4    3    4 ar 
     5    3   16 1  
     6    4   13 ar 
     7    6    5 ar 
     8    5   10 ar 
     9    7    6 ar 
    10    8    7 ar 
    11   11    8 ar 
    12    9   11 1  
    13    9   12 1  
    14    9   14 1  
    15   10   11 ar 
    16   12   13 ar 
    17   14   15 1  
    18    1   17 1  
    19    2   18 1  
    20    4   19 1  
    21    5   20 1  
    22    6   21 1  
    23    7   22 1  
    24    8   23 1  
    25    9   24 1  
    26   10   25 1  
    27   13   26 1  
    28   14   27 1  
    29   14   28 1  
    30   15   29 1  
    31   15   30 1  
    32   15   31 1  
@<TRIPOS>SUBSTRUCTURE
     1 GVQ         1

