### 
### Created by X-TOOL on Mon Sep 10 21:12:56 2018
### 

@<TRIPOS>MOLECULE
2uwd_ligand
   44    46     1     0     0
SMALL
GAST_HUCK


@<TRIPOS>ATOM
      1 C22        35.1100    5.6100   21.6240 C.3       1 2GG         0.0589
      2 O21        35.4350    6.2380   22.9030 O.3       1 2GG        -0.3230
      3 C18        34.4180    6.7760   23.6490 C.ar      1 2GG         0.0878
      4 C19        33.0590    6.7530   23.2680 C.ar      1 2GG        -0.0363
      5 C20        32.0940    7.3320   24.1290 C.ar      1 2GG        -0.0689
      6 C17        34.7730    7.3510   24.8900 C.ar      1 2GG        -0.0363
      7 C16        33.8030    7.9190   25.7240 C.ar      1 2GG        -0.0689
      8 C7         32.4480    7.9140   25.3780 C.ar      1 2GG        -0.0411
      9 C3         31.4680    8.5170   26.2370 C.2       1 2GG         0.0305
     10 C2         31.0410    8.0900   27.5120 C.2       1 2GG         0.1330
     11 C8         31.5650    6.9080   28.2960 C.2       1 2GG         0.2121
     12 O9         32.0520    5.9280   27.7380 O.2       1 2GG        -0.3859
     13 N10        31.5370    7.0580   29.6330 N.am      1 2GG        -0.2864
     14 C26        32.0110    5.9860   30.5390 C.3       1 2GG         0.0275
     15 C27        33.4920    6.2160   30.8900 C.3       1 2GG        -0.0449
     16 N1         30.0930    8.8920   28.0040 N.2       1 2GG        -0.1212
     17 C4         30.7040    9.6700   25.9840 C.2       1 2GG         0.1654
     18 C6         30.7220   10.4920   24.8390 C.ar      1 2GG         0.0467
     19 C11        31.9450   11.0010   24.3910 C.ar      1 2GG        -0.0499
     20 C12        32.0160   11.8130   23.2580 C.ar      1 2GG         0.0594
     21 CL25       33.5480   12.4520   22.7020 Cl        1 2GG        -0.0871
     22 C13        30.8300   12.1310   22.5810 C.ar      1 2GG         0.0966
     23 O24        30.8780   12.8740   21.4710 O.3       1 2GG        -0.3329
     24 C14        29.5990   11.6240   23.0020 C.ar      1 2GG        -0.0007
     25 C15        29.5450   10.8400   24.1630 C.ar      1 2GG         0.0969
     26 O23        28.3380   10.3530   24.5620 O.3       1 2GG        -0.3310
     27 O3         29.8850    9.8740   27.0470 O.3       1 2GG        -0.1597
     28 H1         36.0313    5.2324   21.1564 H         1 2GG         0.0577
     29 H2         34.6393    6.3507   20.9609 H         1 2GG         0.0577
     30 H3         34.4149    4.7742   21.7920 H         1 2GG         0.0577
     31 H4         32.7581    6.2991   22.3307 H         1 2GG         0.0536
     32 H5         31.0531    7.3315   23.8264 H         1 2GG         0.0555
     33 H6         35.8116    7.3522   25.2006 H         1 2GG         0.0536
     34 H7         34.1091    8.3732   26.6595 H         1 2GG         0.0555
     35 H8         31.1891    7.9106   30.0230 H         1 2GG         0.1844
     36 H9         31.9011    5.0116   30.0405 H         1 2GG         0.0517
     37 H10        31.4115    5.9958   31.4612 H         1 2GG         0.0517
     38 H11        33.8377    5.4172   31.5626 H         1 2GG         0.0249
     39 H12        33.6035    7.1897   31.3895 H         1 2GG         0.0249
     40 H13        34.0931    6.2054   29.9688 H         1 2GG         0.0249
     41 H14        32.8528   10.7610   24.9326 H         1 2GG         0.0583
     42 H15        29.9977   12.9985   21.1363 H         1 2GG         0.2497
     43 H16        28.6970   11.8338   22.4386 H         1 2GG         0.0469
     44 H17        27.7454   11.0765   24.7292 H         1 2GG         0.2507
@<TRIPOS>BOND
     1    1    2 1  
     2    2    3 1  
     3    3    4 ar 
     4    3    6 ar 
     5    4    5 ar 
     6    5    8 ar 
     7    6    7 ar 
     8    7    8 ar 
     9    8    9 1  
    10    9   10 1  
    11    9   17 2  
    12   10   11 1  
    13   10   16 2  
    14   11   12 2  
    15   11   13 am 
    16   13   14 1  
    17   14   15 1  
    18   16   27 1  
    19   17   18 1  
    20   17   27 1  
    21   18   19 ar 
    22   18   25 ar 
    23   19   20 ar 
    24   20   21 1  
    25   20   22 ar 
    26   22   23 1  
    27   22   24 ar 
    28   24   25 ar 
    29   25   26 1  
    30    1   28 1  
    31    1   29 1  
    32    1   30 1  
    33    4   31 1  
    34    5   32 1  
    35    6   33 1  
    36    7   34 1  
    37   13   35 1  
    38   14   36 1  
    39   14   37 1  
    40   15   38 1  
    41   15   39 1  
    42   15   40 1  
    43   19   41 1  
    44   23   42 1  
    45   24   43 1  
    46   26   44 1  
@<TRIPOS>SUBSTRUCTURE
     1 2GG         1

