### 
### Created by X-TOOL on Mon Sep 10 21:12:55 2018
### 

@<TRIPOS>MOLECULE
2uwl_ligand
   50    52     1     0     0
SMALL
GAST_HUCK


@<TRIPOS>ATOM
      1 CL1        13.7720    7.5130   26.1530 Cl        1 895        -0.0541
      2 C1         12.0760    7.7700   26.1550 C.2       1 895         0.0969
      3 C2         11.2160    7.3640   27.1950 C.2       1 895        -0.0580
      4 C3          9.8780    7.6550   26.8610 C.2       1 895        -0.0663
      5 C4          9.7590    8.2890   25.6240 C.2       1 895         0.0287
      6 C9          8.4660    8.7370   25.0060 C.2       1 895        -0.0314
      7 S1          6.6090    9.3300   23.2520 S.o2      1 895         0.0601
      8 O2          6.6720   10.6700   22.7810 O.2       1 895        -0.1518
      9 O1          5.7930    9.0340   24.3880 O.2       1 895        -0.1518
     10 N1          6.1810    8.3880   22.0080 N.am      1 895        -0.2268
     11 C12         6.0500    6.9380   22.1510 C.3       1 895         0.1283
     12 C13         4.7340    6.3310   21.6280 C.3       1 895         0.0047
     13 C14         5.1160    4.8570   21.4380 C.3       1 895         0.0405
     14 C15         7.0590    6.1230   21.3770 C.2       1 895         0.2026
     15 O3          8.1980    6.4750   21.1190 O.2       1 895        -0.3946
     16 N2          6.5060    4.9530   21.0050 N.am      1 895        -0.2502
     17 C16         7.2920    3.9520   20.2640 C.3       1 895         0.1310
     18 C17         7.0800    2.5250   20.7880 C.3       1 895        -0.0242
     19 C18         7.0330    3.9740   18.7690 C.2       1 895         0.2042
     20 O4          5.9960    4.4980   18.3700 O.2       1 895        -0.3943
     21 N3          7.9590    3.4120   17.9470 N.am      1 895        -0.2669
     22 C19         9.2200    2.7930   18.4080 C.3       1 895         0.0574
     23 C20         9.9530    1.9090   17.3900 C.3       1 895         0.0681
     24 O5          9.8980    2.5590   16.1310 O.3       1 895        -0.3758
     25 C22         8.5550    2.5620   15.6480 C.3       1 895         0.0681
     26 C23         7.6690    3.4660   16.5110 C.3       1 895         0.0574
     27 S6         11.2650    8.5120   24.8510 S.3       1 895        -0.0265
     28 C6          8.2190    8.8190   23.6890 C.2       1 895         0.0664
     29 H1         11.5386    6.8935   28.1226 H         1 895         0.0442
     30 H2          9.0296    7.4115   27.4989 H         1 895         0.0457
     31 H3          7.6610    9.0191   25.6830 H         1 895         0.0624
     32 H4          6.0014    8.8079   21.1184 H         1 895         0.1704
     33 H5          6.1497    6.7194   23.2244 H         1 895         0.0754
     34 H6          4.4320    6.7915   20.6758 H         1 895         0.0328
     35 H7          3.9228    6.4421   22.3626 H         1 895         0.0328
     36 H8          4.4909    4.3787   20.6696 H         1 895         0.0526
     37 H9          5.0297    4.2977   22.3812 H         1 895         0.0526
     38 H10         8.3511    4.2063   20.4175 H         1 895         0.0799
     39 H11         7.6895    1.8238   20.1990 H         1 895         0.0277
     40 H12         6.0178    2.2545   20.6956 H         1 895         0.0277
     41 H13         7.3808    2.4740   21.8448 H         1 895         0.0277
     42 H14         8.9877    2.1720   19.2857 H         1 895         0.0545
     43 H15         9.9034    3.6031   18.7024 H         1 895         0.0545
     44 H16         9.4620    0.9268   17.3255 H         1 895         0.0580
     45 H17        11.0010    1.7757   17.6965 H         1 895         0.0580
     46 H18         8.1592    1.5361   15.6761 H         1 895         0.0580
     47 H19         8.5452    2.9305   14.6116 H         1 895         0.0580
     48 H20         7.8043    4.5037   16.1722 H         1 895         0.0545
     49 H21         6.6218    3.1648   16.3607 H         1 895         0.0545
     50 H22         8.9748    8.5819   22.9416 H         1 895         0.0767
@<TRIPOS>BOND
     1    2    1 1  
     2    2    3 2  
     3   27    2 1  
     4    4    3 1  
     5    5    4 2  
     6    6    5 1  
     7    5   27 1  
     8   28    6 2  
     9    7    8 2  
    10    7    9 2  
    11    7   10 am 
    12    7   28 1  
    13   10   11 1  
    14   11   12 1  
    15   11   14 1  
    16   12   13 1  
    17   13   16 1  
    18   14   15 2  
    19   14   16 am 
    20   16   17 1  
    21   17   18 1  
    22   17   19 1  
    23   19   20 2  
    24   19   21 am 
    25   21   22 1  
    26   21   26 1  
    27   22   23 1  
    28   23   24 1  
    29   24   25 1  
    30   25   26 1  
    31    3   29 1  
    32    4   30 1  
    33    6   31 1  
    34   10   32 1  
    35   11   33 1  
    36   12   34 1  
    37   12   35 1  
    38   13   36 1  
    39   13   37 1  
    40   17   38 1  
    41   18   39 1  
    42   18   40 1  
    43   18   41 1  
    44   22   42 1  
    45   22   43 1  
    46   23   44 1  
    47   23   45 1  
    48   25   46 1  
    49   25   47 1  
    50   26   48 1  
    51   26   49 1  
    52   28   50 1  
@<TRIPOS>SUBSTRUCTURE
     1 895         1

