### 
### Created by X-TOOL on Mon Sep 10 21:12:56 2018
### 

@<TRIPOS>MOLECULE
2uwo_ligand
   53    55     1     0     0
SMALL
GAST_HUCK


@<TRIPOS>ATOM
      1 CL1        13.9370    7.3900   26.4430 Cl        1 701        -0.0535
      2 C1         12.2450    7.5730   26.3190 C.2       1 701         0.0975
      3 C2         11.3060    7.0420   27.2320 C.2       1 701        -0.0573
      4 C3          9.9940    7.3730   26.8330 C.2       1 701        -0.0649
      5 C4          9.9530    8.1170   25.6440 C.2       1 701         0.0353
      6 C9          8.7350    8.6320   24.9240 C.2       1 701        -0.0198
      7 C8          8.9900    9.6960   23.8820 C.3       1 701        -0.0309
      8 S1          6.0100    8.5920   24.5560 S.o2      1 701         0.0509
      9 O2          4.9870    7.8720   25.2610 O.2       1 701        -0.1548
     10 O1          5.9350    9.9920   24.4140 O.2       1 701        -0.1548
     11 N1          5.9310    8.0240   22.9250 N.am      1 701        -0.2293
     12 C12         5.8320    6.5820   22.7650 C.3       1 701         0.1281
     13 C13         4.5110    6.0850   22.1530 C.3       1 701         0.0047
     14 C14         4.8910    4.7580   21.4910 C.3       1 701         0.0405
     15 C15         6.8980    5.9280   21.8860 C.2       1 701         0.2026
     16 O3          8.0680    6.3030   21.7470 O.2       1 701        -0.3946
     17 N2          6.3470    4.8400   21.3110 N.am      1 701        -0.2502
     18 C16         7.1550    3.8230   20.6180 C.3       1 701         0.1310
     19 C17         6.8170    2.4010   21.0890 C.3       1 701        -0.0242
     20 C18         7.0080    3.9220   19.0870 C.2       1 701         0.2042
     21 O4          5.9470    4.3390   18.6670 O.2       1 701        -0.3943
     22 N3          8.0250    3.5650   18.2390 N.am      1 701        -0.2669
     23 C19         7.8660    3.8740   16.8080 C.3       1 701         0.0574
     24 C20         8.2620    2.6880   15.9280 C.3       1 701         0.0681
     25 O5          9.5220    2.2110   16.3400 O.3       1 701        -0.3758
     26 C22         9.5980    1.7220   17.6610 C.3       1 701         0.0681
     27 C23         9.2870    2.8800   18.6060 C.3       1 701         0.0574
     28 S6         11.5230    8.4490   25.0570 S.3       1 701        -0.0253
     29 C6          7.5340    8.0660   25.2120 C.2       1 701         0.0565
     30 H1         11.5591    6.4603   28.1172 H         1 701         0.0443
     31 H2          9.1050    7.0813   27.3902 H         1 701         0.0466
     32 H3          8.0363    9.9960   23.4233 H         1 701         0.0390
     33 H4          9.6602    9.2967   23.1065 H         1 701         0.0390
     34 H5          9.4591   10.5700   24.3575 H         1 701         0.0390
     35 H6          5.9520    8.6465   22.1426 H         1 701         0.1702
     36 H7          5.9218    6.1617   23.7776 H         1 701         0.0754
     37 H8          4.1309    6.7997   21.4081 H         1 701         0.0328
     38 H9          3.7515    5.9301   22.9334 H         1 701         0.0328
     39 H10         4.3849    4.6487   20.5205 H         1 701         0.0526
     40 H11         4.6267    3.9101   22.1399 H         1 701         0.0526
     41 H12         8.2090    4.0159   20.8666 H         1 701         0.0799
     42 H13         7.4424    1.6767   20.5465 H         1 701         0.0277
     43 H14         5.7558    2.1911   20.8894 H         1 701         0.0277
     44 H15         7.0107    2.3165   22.1685 H         1 701         0.0277
     45 H16         8.5036    4.7341   16.5556 H         1 701         0.0545
     46 H17         6.8137    4.1277   16.6125 H         1 701         0.0545
     47 H18         8.3152    3.0099   14.8775 H         1 701         0.0580
     48 H19         7.5139    1.8879   16.0290 H         1 701         0.0580
     49 H20        10.6093    1.3378   17.8602 H         1 701         0.0580
     50 H21         8.8644    0.9150   17.8041 H         1 701         0.0580
     51 H22         9.1954    2.4892   19.6301 H         1 701         0.0545
     52 H23        10.1121    3.6062   18.5630 H         1 701         0.0545
     53 H24         7.5241    7.2236   25.9021 H         1 701         0.0576
@<TRIPOS>BOND
     1    2    1 1  
     2    2    3 2  
     3   28    2 1  
     4    4    3 1  
     5    5    4 2  
     6    6    5 1  
     7    5   28 1  
     8    6    7 1  
     9   29    6 2  
    10    8    9 2  
    11    8   10 2  
    12    8   11 am 
    13    8   29 1  
    14   11   12 1  
    15   12   13 1  
    16   12   15 1  
    17   13   14 1  
    18   14   17 1  
    19   15   16 2  
    20   15   17 am 
    21   17   18 1  
    22   18   19 1  
    23   18   20 1  
    24   20   21 2  
    25   20   22 am 
    26   22   23 1  
    27   22   27 1  
    28   23   24 1  
    29   24   25 1  
    30   25   26 1  
    31   26   27 1  
    32    3   30 1  
    33    4   31 1  
    34    7   32 1  
    35    7   33 1  
    36    7   34 1  
    37   11   35 1  
    38   12   36 1  
    39   13   37 1  
    40   13   38 1  
    41   14   39 1  
    42   14   40 1  
    43   18   41 1  
    44   19   42 1  
    45   19   43 1  
    46   19   44 1  
    47   23   45 1  
    48   23   46 1  
    49   24   47 1  
    50   24   48 1  
    51   26   49 1  
    52   26   50 1  
    53   27   51 1  
    54   27   52 1  
    55   29   53 1  
@<TRIPOS>SUBSTRUCTURE
     1 701         1

