### 
### Created by X-TOOL on Mon Sep 10 21:12:55 2018
### 

@<TRIPOS>MOLECULE
2uwp_ligand
   52    54     1     0     0
SMALL
GAST_HUCK


@<TRIPOS>ATOM
      1 CL1        13.8890    7.1760   26.1240 Cl        1 894        -0.0722
      2 C1         12.1960    7.4610   26.0640 C.2       1 894         0.0801
      3 C2         11.3440    7.0710   27.0180 C.2       1 894        -0.0788
      4 C3          9.9840    7.4670   26.6680 C.2       1 894        -0.0801
      5 C4          9.8990    8.1260   25.5140 C.2       1 894         0.0144
      6 C9          8.6340    8.6640   24.9060 C.3       1 894         0.0141
      7 S1          6.5040    8.5600   23.3070 S.o2      1 894         0.0433
      8 O2          6.3800    9.8990   22.8120 O.2       1 894        -0.1552
      9 O1          5.7680    8.1660   24.4680 O.2       1 894        -0.1552
     10 N1          5.9590    7.6380   21.9600 N.am      1 894        -0.2296
     11 C12         5.9090    6.2060   22.0910 C.3       1 894         0.1281
     12 C13         4.6250    5.5960   21.5360 C.3       1 894         0.0047
     13 C14         5.0760    4.4400   20.6470 C.3       1 894         0.0405
     14 C15         7.0300    5.5660   21.2890 C.2       1 894         0.2026
     15 O3          8.1800    5.9910   21.2610 O.2       1 894        -0.3946
     16 N2          6.5420    4.4800   20.6680 N.am      1 894        -0.2502
     17 C16         7.3880    3.4230   20.1030 C.3       1 894         0.1310
     18 C17         7.0020    2.0600   20.7060 C.3       1 894        -0.0242
     19 C18         7.2960    3.4220   18.5590 C.2       1 894         0.2042
     20 O4          6.2350    3.7630   18.0380 O.2       1 894        -0.3943
     21 N3          8.3940    3.0620   17.8140 N.am      1 894        -0.2669
     22 C19         9.6610    2.5140   18.3470 C.3       1 894         0.0574
     23 C20        10.1760    1.3400   17.5190 C.3       1 894         0.0681
     24 O5         10.1400    1.7080   16.1540 O.3       1 894        -0.3758
     25 C22         8.8510    2.0060   15.6560 C.3       1 894         0.0681
     26 C23         8.3430    3.2580   16.3530 C.3       1 894         0.0574
     27 S6         11.4660    8.3100   24.7160 S.3       1 894        -0.0316
     28 C6          8.2600    8.2020   23.5050 C.3       1 894         0.0960
     29 H1         11.6243    6.5358   27.9241 H         1 894         0.0385
     30 H2          9.1196    7.2445   27.2919 H         1 894         0.0282
     31 H3          8.7266    9.7596   24.8749 H         1 894         0.0471
     32 H4          7.8059    8.3848   25.5740 H         1 894         0.0471
     33 H5          5.6844    8.0855   21.1089 H         1 894         0.1702
     34 H6          6.0091    5.9480   23.1556 H         1 894         0.0754
     35 H7          4.0688    6.3401   20.9469 H         1 894         0.0328
     36 H8          3.9894    5.2267   22.3543 H         1 894         0.0328
     37 H9          4.7022    4.5750   19.6213 H         1 894         0.0526
     38 H10         4.7116    3.4823   21.0470 H         1 894         0.0526
     39 H11         8.4320    3.6326   20.3787 H         1 894         0.0799
     40 H12         7.6414    1.2747   20.2764 H         1 894         0.0277
     41 H13         5.9488    1.8421   20.4755 H         1 894         0.0277
     42 H14         7.1401    2.0893   21.7969 H         1 894         0.0277
     43 H15         9.4927    2.1725   19.3790 H         1 894         0.0545
     44 H16        10.4203    3.3099   18.3433 H         1 894         0.0545
     45 H17         9.5367    0.4602   17.6837 H         1 894         0.0580
     46 H18        11.2091    1.1028   17.8128 H         1 894         0.0580
     47 H19         8.1709    1.1659   15.8599 H         1 894         0.0580
     48 H20         8.9033    2.1805   14.5712 H         1 894         0.0580
     49 H21         8.9753    4.1143   16.0755 H         1 894         0.0545
     50 H22         7.3052    3.4535   16.0452 H         1 894         0.0545
     51 H23         8.4432    7.1226   23.3981 H         1 894         0.0544
     52 H24         8.8476    8.7498   22.7536 H         1 894         0.0544
@<TRIPOS>BOND
     1    2    1 1  
     2    2    3 2  
     3   27    2 1  
     4    4    3 1  
     5    5    4 2  
     6    6    5 1  
     7    5   27 1  
     8   28    6 1  
     9    7    8 2  
    10    7    9 2  
    11    7   10 am 
    12    7   28 1  
    13   10   11 1  
    14   11   12 1  
    15   11   14 1  
    16   12   13 1  
    17   13   16 1  
    18   14   15 2  
    19   14   16 am 
    20   16   17 1  
    21   17   18 1  
    22   17   19 1  
    23   19   20 2  
    24   19   21 am 
    25   21   22 1  
    26   21   26 1  
    27   22   23 1  
    28   23   24 1  
    29   24   25 1  
    30   25   26 1  
    31    3   29 1  
    32    4   30 1  
    33    6   31 1  
    34    6   32 1  
    35   10   33 1  
    36   11   34 1  
    37   12   35 1  
    38   12   36 1  
    39   13   37 1  
    40   13   38 1  
    41   17   39 1  
    42   18   40 1  
    43   18   41 1  
    44   18   42 1  
    45   22   43 1  
    46   22   44 1  
    47   23   45 1  
    48   23   46 1  
    49   25   47 1  
    50   25   48 1  
    51   26   49 1  
    52   26   50 1  
    53   28   51 1  
    54   28   52 1  
@<TRIPOS>SUBSTRUCTURE
     1 894         1

