### 
### Created by X-TOOL on Mon Sep 10 21:12:56 2018
### 

@<TRIPOS>MOLECULE
2uxi_ligand
   34    35     1     0     0
SMALL
GAST_HUCK


@<TRIPOS>ATOM
      1 C1         22.0700   37.5490   -4.4390 C.ar      1 G50        -0.0097
      2 C2         22.2280   38.8360   -4.9340 C.ar      1 G50         0.0765
      3 C3         21.1540   39.6940   -5.0340 C.ar      1 G50        -0.0097
      4 C4         19.8980   39.2480   -4.6430 C.ar      1 G50         0.0925
      5 C5         19.6980   37.9460   -4.1390 C.ar      1 G50         0.0781
      6 C6         20.8140   37.0930   -4.0360 C.ar      1 G50         0.0925
      7 C7         18.2600   37.5140   -3.7140 C.2       1 G50         0.1158
      8 C8         17.6440   36.1170   -4.0290 C.3       1 G50         0.0249
      9 C9         16.3330   35.8790   -3.1190 C.3       1 G50        -0.0096
     10 O1         20.7340   35.8220   -3.5610 O.3       1 G50        -0.3326
     11 O2         17.5670   38.3320   -3.1090 O.2       1 G50        -0.3967
     12 C10        15.6880   34.5080   -3.4520 C.ar      1 G50        -0.0516
     13 C11        15.7370   34.0680   -4.7790 C.ar      1 G50        -0.0686
     14 C12        15.2050   32.8380   -5.1300 C.ar      1 G50        -0.0398
     15 C13        14.5930   32.0420   -4.1790 C.ar      1 G50         0.0805
     16 C14        14.5270   32.4680   -2.8400 C.ar      1 G50        -0.0398
     17 C15        15.0800   33.7010   -2.4690 C.ar      1 G50        -0.0686
     18 O3         14.0870   30.8460   -4.5950 O.3       1 G50        -0.3376
     19 O4         23.4320   39.2650   -5.3290 O.3       1 G50        -0.3349
     20 O5         18.8950   40.1380   -4.7770 O.3       1 G50        -0.3326
     21 H1         22.9294   36.8925   -4.3648 H         1 G50         0.0390
     22 H2         21.2874   40.7012   -5.4119 H         1 G50         0.0390
     23 H3         18.3855   35.3339   -3.8127 H         1 G50         0.0498
     24 H4         17.3635   36.0729   -5.0917 H         1 G50         0.0498
     25 H5         15.6048   36.6798   -3.3152 H         1 G50         0.0429
     26 H6         16.6202   35.8966   -2.0573 H         1 G50         0.0429
     27 H7         20.4074   35.8384   -2.6691 H         1 G50         0.2506
     28 H8         16.1941   34.6934   -5.5373 H         1 G50         0.0530
     29 H9         15.2689   32.4972   -6.1570 H         1 G50         0.0525
     30 H10        14.0484   31.8425   -2.0952 H         1 G50         0.0525
     31 H11        15.0407   34.0307   -1.4371 H         1 G50         0.0530
     32 H12        14.2323   30.7495   -5.5288 H         1 G50         0.2458
     33 H13        23.3967   39.5015   -6.2484 H         1 G50         0.2497
     34 H14        18.5038   40.3030   -3.9271 H         1 G50         0.2506
@<TRIPOS>BOND
     1    1    2 ar 
     2    1    6 ar 
     3    2    3 ar 
     4    2   19 1  
     5    3    4 ar 
     6    4    5 ar 
     7    4   20 1  
     8    5    6 ar 
     9    5    7 1  
    10    6   10 1  
    11    7    8 1  
    12    7   11 2  
    13    8    9 1  
    14    9   12 1  
    15   12   13 ar 
    16   12   17 ar 
    17   13   14 ar 
    18   14   15 ar 
    19   15   16 ar 
    20   15   18 1  
    21   16   17 ar 
    22    1   21 1  
    23    3   22 1  
    24    8   23 1  
    25    8   24 1  
    26    9   25 1  
    27    9   26 1  
    28   10   27 1  
    29   13   28 1  
    30   14   29 1  
    31   16   30 1  
    32   17   31 1  
    33   18   32 1  
    34   19   33 1  
    35   20   34 1  
@<TRIPOS>SUBSTRUCTURE
     1 G50         1

