### 
### Created by X-TOOL on Mon Sep 10 21:12:56 2018
### 

@<TRIPOS>MOLECULE
2uxu_ligand
   32    34     1     0     0
SMALL
GAST_HUCK


@<TRIPOS>ATOM
      1 C1         16.2160   37.2890   -2.6910 C.ar      1 NAR        -0.0092
      2 C2         16.8820   38.5070   -2.5870 C.ar      1 NAR         0.0765
      3 C3         18.0860   38.7190   -3.2650 C.ar      1 NAR        -0.0097
      4 C4         18.6430   37.7190   -4.0510 C.ar      1 NAR         0.0925
      5 C5         17.9740   36.4840   -4.1730 C.ar      1 NAR         0.0787
      6 C6         16.7560   36.2840   -3.4990 C.ar      1 NAR         0.0990
      7 C7         18.4890   35.4430   -4.9600 C.2       1 NAR         0.1187
      8 C8         17.7150   34.1670   -5.2350 C.3       1 NAR         0.0562
      9 C9         16.2380   34.3870   -4.8910 C.3       1 NAR         0.1258
     10 O1         16.0920   35.0940   -3.5920 O.3       1 NAR        -0.3013
     11 O2         19.6140   35.5480   -5.4620 O.2       1 NAR        -0.3966
     12 C10        15.3220   33.1060   -4.9220 C.ar      1 NAR        -0.0181
     13 C11        15.9000   31.7140   -5.3040 C.ar      1 NAR        -0.0658
     14 C12        14.9220   30.7160   -5.2770 C.ar      1 NAR        -0.0397
     15 C13        13.5870   30.8890   -4.9720 C.ar      1 NAR         0.0805
     16 C14        13.1180   32.1380   -4.6280 C.ar      1 NAR        -0.0397
     17 C15        13.9730   33.2390   -4.5980 C.ar      1 NAR        -0.0658
     18 O3         12.7430   29.8440   -4.9810 O.3       1 NAR        -0.3376
     19 O4         16.3790   39.5000   -1.8170 O.3       1 NAR        -0.3349
     20 O5         19.8370   37.9600   -4.6890 O.3       1 NAR        -0.3326
     21 H          15.2852   37.1210   -2.1493 H         1 NAR         0.0390
     22 H          18.5930   39.6797   -3.1757 H         1 NAR         0.0390
     23 H          18.1156   33.3582   -4.6239 H         1 NAR         0.0528
     24 H          17.8091   33.9028   -6.2883 H         1 NAR         0.0528
     25 H          15.8703   35.0098   -5.7065 H         1 NAR         0.0822
     26 H          16.9442   31.5375   -5.5622 H         1 NAR         0.0531
     27 H          15.2445   29.7036   -5.5202 H         1 NAR         0.0525
     28 H          12.0654   32.2670   -4.3761 H         1 NAR         0.0525
     29 H          13.5812   34.2167   -4.3174 H         1 NAR         0.0531
     30 H          12.0347   30.0115   -5.6070 H         1 NAR         0.2458
     31 H          15.5554   39.2088   -1.4190 H         1 NAR         0.2497
     32 H          20.4927   37.3266   -4.3883 H         1 NAR         0.2506
@<TRIPOS>BOND
     1    1    2 ar 
     2    1    6 ar 
     3    2    3 ar 
     4    2   19 1  
     5    3    4 ar 
     6    4    5 ar 
     7    4   20 1  
     8    5    6 ar 
     9    5    7 1  
    10    6   10 1  
    11    7    8 1  
    12    7   11 2  
    13    8    9 1  
    14    9   10 1  
    15    9   12 1  
    16   12   13 ar 
    17   12   17 ar 
    18   13   14 ar 
    19   14   15 ar 
    20   15   16 ar 
    21   15   18 1  
    22   16   17 ar 
    23    1   21 1  
    24    3   22 1  
    25    8   23 1  
    26    8   24 1  
    27    9   25 1  
    28   13   26 1  
    29   14   27 1  
    30   16   28 1  
    31   17   29 1  
    32   18   30 1  
    33   19   31 1  
    34   20   32 1  
@<TRIPOS>SUBSTRUCTURE
     1 NAR         1

