### 
### Created by X-TOOL on Mon Sep 10 21:12:58 2018
### 

@<TRIPOS>MOLECULE
2uxz_ligand
   93    96     1     0     0
SMALL
GAST_HUCK


@<TRIPOS>ATOM
      1 C23        15.7540   22.3630    8.0910 C.ar      1 HI1        -0.0413
      2 C40        12.8380   23.2090    3.8820 C.3       1 HI1        -0.0098
      3 C14        13.3760   23.7450    5.2380 C.3       1 HI1        -0.0102
      4 C24        17.1530   22.6110    7.8560 C.ar      1 HI1        -0.0604
      5 C1         14.5670   22.9560    5.8420 C.3       1 HI1         0.1547
      6 C25        18.1480   21.8080    8.4960 C.ar      1 HI1        -0.0686
      7 C26        17.7520   20.7450    9.3700 C.ar      1 HI1        -0.0687
      8 C27        16.3600   20.4910    9.6140 C.ar      1 HI1        -0.0686
      9 C28        15.3610   21.2930    8.9760 C.ar      1 HI1        -0.0604
     10 C33         8.2410   24.1530    2.7100 C.ar      1 HI1         0.0051
     11 C34         7.7800   23.1110    3.5820 C.ar      1 HI1        -0.0524
     12 C35         6.4090   23.0470    3.9510 C.ar      1 HI1        -0.0588
     13 C36         5.4960   24.0280    3.4520 C.ar      1 HI1         0.0056
     14 C37         5.9410   25.0760    2.5760 C.ar      1 HI1        -0.0588
     15 C38         7.3300   25.1390    2.2030 C.ar      1 HI1        -0.0524
     16 C32         9.7300   24.2120    2.3400 C.3       1 HI1         0.0279
     17 C7          5.3530   27.7850    5.8960 C.3       1 HI1         0.0663
     18 C4         11.9590   24.2120    3.1340 C.3       1 HI1        -0.0058
     19 O3          8.2340   28.0370    5.0920 O.2       1 HI1        -0.3774
     20 N1          8.1990   26.0930    6.3170 N.am      1 HI1        -0.2405
     21 C22        14.6430   23.1900    7.3900 C.3       1 HI1         0.0171
     22 O6         15.7070   23.5790    5.2600 O.3       1 HI1        -0.3818
     23 O8          6.2900   26.8060    5.4230 O.3       1 HI1        -0.2672
     24 C10        14.5790   21.4220    5.6040 C.2       1 HI1         0.2317
     25 O11        13.5820   20.7200    5.8270 O.2       1 HI1        -0.3414
     26 N12        15.7660   20.9170    5.1820 N.am      1 HI1        -0.2678
     27 C51        15.9670   19.4520    4.9410 C.3       1 HI1         0.1008
     28 C52        15.9850   19.0580    3.5020 C.ar      1 HI1        -0.0131
     29 C57        17.0370   18.1050    3.3470 C.ar      1 HI1        -0.0360
     30 C53        15.1600   19.4800    2.3890 C.ar      1 HI1        -0.0646
     31 C54        15.4390   18.9010    1.0800 C.ar      1 HI1        -0.0754
     32 C55        16.5160   17.9290    0.9250 C.ar      1 HI1        -0.0755
     33 C59        17.3650   19.1260    5.4990 C.3       1 HI1         0.0952
     34 O60        18.3440   20.1190    5.1510 O.3       1 HI1        -0.3856
     35 C30         7.6650   27.0630    5.5810 C.2       1 HI1         0.3216
     36 C56        17.3290   17.5200    2.0630 C.ar      1 HI1        -0.0667
     37 C58        17.7290   17.8580    4.6870 C.3       1 HI1         0.0085
     38 C41         9.6230   26.0150    6.6930 C.3       1 HI1         0.1419
     39 C42         9.8480   26.0480    8.2470 C.3       1 HI1         0.0027
     40 C43         9.3780   27.3990    8.7970 C.3       1 HI1        -0.0558
     41 C44         9.0270   24.9730    8.9510 C.3       1 HI1        -0.0558
     42 C45         9.9780   24.8390    5.7930 C.2       1 HI1         0.2392
     43 N24        10.5880   24.0240    3.4930 N.4       1 HI1         0.3801
     44 O46        10.0170   23.6860    6.2600 O.2       1 HI1        -0.3898
     45 N47        10.2330   25.1090    4.5020 N.am      1 HI1        -0.2494
     46 BR          3.7300   23.9070    3.9650 Br        1 HI1        -0.0561
     47 C86        11.3100   25.9400    8.6360 C.3       1 HI1        -0.0558
     48 H1         12.2445   22.3035    4.0765 H         1 HI1         0.0316
     49 H2         13.6965   22.9545    3.2431 H         1 HI1         0.0316
     50 H3         12.5500   23.7203    5.9640 H         1 HI1         0.0283
     51 H4         13.7003   24.7851    5.0867 H         1 HI1         0.0283
     52 H5         17.4536   23.4115    7.1897 H         1 HI1         0.0557
     53 H6         19.1996   22.0034    8.3200 H         1 HI1         0.0599
     54 H7         18.5055   20.1302    9.8489 H         1 HI1         0.0559
     55 H8         16.0652   19.6903   10.2827 H         1 HI1         0.0599
     56 H9         14.3104   21.0970    9.1573 H         1 HI1         0.0557
     57 H10         8.4777   22.3723    3.9595 H         1 HI1         0.0566
     58 H11         6.0574   22.2589    4.6070 H         1 HI1         0.0626
     59 H12         5.2387   25.8112    2.2000 H         1 HI1         0.0626
     60 H13         7.6845   25.9242    1.5451 H         1 HI1         0.0566
     61 H14         9.9457   25.1942    1.8942 H         1 HI1         0.0995
     62 H15         9.9444   23.4212    1.6061 H         1 HI1         0.0995
     63 H16         4.3283   27.4367    5.6994 H         1 HI1         0.0575
     64 H17         5.5230   28.7378    5.3734 H         1 HI1         0.0575
     65 H18         5.4895   27.9306    6.9777 H         1 HI1         0.0575
     66 H19        12.0757   24.0616    2.0506 H         1 HI1         0.0822
     67 H20        12.2676   25.2344    3.3976 H         1 HI1         0.0822
     68 H21         7.5927   25.3654    6.6381 H         1 HI1         0.1899
     69 H22        14.8378   24.2574    7.5709 H         1 HI1         0.0441
     70 H23        13.6738   22.9142    7.8311 H         1 HI1         0.0441
     71 H24        15.6939   24.5082    5.4573 H         1 HI1         0.2082
     72 H25        16.5306   21.5426    5.0270 H         1 HI1         0.1887
     73 H26        15.1862   18.8822    5.4661 H         1 HI1         0.0734
     74 H27        14.3624   20.2015    2.5243 H         1 HI1         0.0538
     75 H28        14.8456   19.1931    0.2212 H         1 HI1         0.0541
     76 H29        16.7145   17.5043   -0.0524 H         1 HI1         0.0541
     77 H30        17.3446   18.9562    6.5856 H         1 HI1         0.0659
     78 H31        18.0782   20.9608    5.5019 H         1 HI1         0.2103
     79 H32        18.1290   16.7977    1.9471 H         1 HI1         0.0537
     80 H33        18.8179   17.7677    4.5601 H         1 HI1         0.0439
     81 H34        17.3399   16.9510    5.1728 H         1 HI1         0.0439
     82 H35        10.1623   26.8962    6.3154 H         1 HI1         0.0806
     83 H36         9.5340   27.4260    9.8855 H         1 HI1         0.0237
     84 H37         8.3087   27.5327    8.5765 H         1 HI1         0.0237
     85 H38         9.9540   28.2079    8.3239 H         1 HI1         0.0237
     86 H39         9.3316   23.9811    8.5858 H         1 HI1         0.0237
     87 H40         7.9591   25.1296    8.7390 H         1 HI1         0.0237
     88 H41         9.1981   25.0327   10.0360 H         1 HI1         0.0237
     89 H42        10.4511   23.1059    3.8860 H         1 HI1         0.2321
     90 H43        10.1881   26.0585    4.1913 H         1 HI1         0.2384
     91 H44        11.8856   26.7221    8.1193 H         1 HI1         0.0237
     92 H45        11.6942   24.9507    8.3470 H         1 HI1         0.0237
     93 H46        11.4105   26.0690    9.7238 H         1 HI1         0.0237
@<TRIPOS>BOND
     1    1    4 ar 
     2    1    9 ar 
     3   21    1 1  
     4    2    3 1  
     5   18    2 1  
     6    3    5 1  
     7    4    6 ar 
     8    5   21 1  
     9    5   22 1  
    10    5   24 1  
    11    6    7 ar 
    12    8    7 ar 
    13    9    8 ar 
    14   10   11 ar 
    15   10   15 ar 
    16   16   10 1  
    17   11   12 ar 
    18   12   13 ar 
    19   14   13 ar 
    20   13   46 1  
    21   15   14 ar 
    22   43   16 1  
    23   23   17 1  
    24   43   18 1  
    25   35   19 2  
    26   20   35 am 
    27   38   20 1  
    28   35   23 1  
    29   24   25 2  
    30   24   26 am 
    31   26   27 1  
    32   27   28 1  
    33   27   33 1  
    34   28   29 ar 
    35   28   30 ar 
    36   29   36 ar 
    37   37   29 1  
    38   30   31 ar 
    39   31   32 ar 
    40   36   32 ar 
    41   33   34 1  
    42   33   37 1  
    43   38   39 1  
    44   42   38 1  
    45   39   40 1  
    46   39   41 1  
    47   39   47 1  
    48   42   44 2  
    49   45   42 am 
    50   43   45 1  
    51    2   48 1  
    52    2   49 1  
    53    3   50 1  
    54    3   51 1  
    55    4   52 1  
    56    6   53 1  
    57    7   54 1  
    58    8   55 1  
    59    9   56 1  
    60   11   57 1  
    61   12   58 1  
    62   14   59 1  
    63   15   60 1  
    64   16   61 1  
    65   16   62 1  
    66   17   63 1  
    67   17   64 1  
    68   17   65 1  
    69   18   66 1  
    70   18   67 1  
    71   20   68 1  
    72   21   69 1  
    73   21   70 1  
    74   22   71 1  
    75   26   72 1  
    76   27   73 1  
    77   30   74 1  
    78   31   75 1  
    79   32   76 1  
    80   33   77 1  
    81   34   78 1  
    82   36   79 1  
    83   37   80 1  
    84   37   81 1  
    85   38   82 1  
    86   40   83 1  
    87   40   84 1  
    88   40   85 1  
    89   41   86 1  
    90   41   87 1  
    91   41   88 1  
    92   43   89 1  
    93   45   90 1  
    94   47   91 1  
    95   47   92 1  
    96   47   93 1  
@<TRIPOS>SUBSTRUCTURE
     1 HI1         1

