### 
### Created by X-TOOL on Mon Sep 10 21:12:58 2018
### 

@<TRIPOS>MOLECULE
2uy0_ligand
   91    94     1     0     0
SMALL
GAST_HUCK


@<TRIPOS>ATOM
      1 C4         13.6780   24.3350    4.9700 C.3       1 HV1         0.0414
      2 C14        13.7950   23.8280    6.4180 C.3       1 HV1         0.0021
      3 N1         11.2830   23.6870    4.5210 N.am      1 HV1        -0.1567
      4 N2         10.7220   24.7460    5.0700 N.am      1 HV1        -0.1761
      5 N3          8.0520   25.8580    6.3230 N.am      1 HV1        -0.2406
      6 O50        13.1470   22.8010    3.3690 O.2       1 HV1        -0.3947
      7 C25        12.6400   23.5620    4.2270 C.2       1 HV1         0.2014
      8 C42        10.0500   24.5350    6.2140 C.2       1 HV1         0.2234
      9 C36         5.2760   27.4690    5.9160 C.3       1 HV1         0.0663
     10 O37         6.2190   26.5850    5.2810 O.3       1 HV1        -0.2672
     11 C38         7.5980   26.8000    5.4990 C.2       1 HV1         0.3216
     12 O39         8.2430   27.7180    4.9930 O.2       1 HV1        -0.3774
     13 C41         9.4610   25.7770    6.7630 C.3       1 HV1         0.1393
     14 C35         9.3880   25.9320    8.3510 C.3       1 HV1         0.0026
     15 C47         8.5490   24.8600    9.0980 C.3       1 HV1        -0.0558
     16 C46        10.8080   25.8860    8.8910 C.3       1 HV1        -0.0558
     17 C45         8.7620   27.2960    8.7690 C.3       1 HV1        -0.0558
     18 O44         9.9610   23.3970    6.7180 O.2       1 HV1        -0.3925
     19 C27        10.6690   23.1740    3.2590 C.3       1 HV1         0.0939
     20 C28         9.4460   23.8260    2.7380 C.ar      1 HV1        -0.0156
     21 C29         8.1540   23.3900    3.1000 C.ar      1 HV1        -0.0555
     22 C30         7.0390   24.0450    2.5630 C.ar      1 HV1        -0.0589
     23 C31         7.2450   25.1170    1.6760 C.ar      1 HV1         0.0056
     24 BR          5.8820   26.1050    0.8420 Br        1 HV1        -0.0561
     25 C32         8.5650   25.5170    1.3470 C.ar      1 HV1        -0.0589
     26 C33         9.6630   24.8670    1.8820 C.ar      1 HV1        -0.0555
     27 C1         14.9370   22.7860    6.6080 C.3       1 HV1         0.1566
     28 O22        16.1120   23.4540    6.0610 O.3       1 HV1        -0.3817
     29 C15        15.0810   22.6650    8.1390 C.3       1 HV1         0.0172
     30 C16        16.1600   21.7210    8.6310 C.ar      1 HV1        -0.0413
     31 C17        15.7500   20.5910    9.3940 C.ar      1 HV1        -0.0604
     32 C18        16.7340   19.7060    9.8480 C.ar      1 HV1        -0.0686
     33 C19        18.0760   19.9520    9.5440 C.ar      1 HV1        -0.0687
     34 C20        18.5000   21.0690    8.7910 C.ar      1 HV1        -0.0686
     35 C21        17.5250   21.9680    8.3270 C.ar      1 HV1        -0.0604
     36 C2         14.7320   21.3100    6.0660 C.2       1 HV1         0.2318
     37 O3         13.7970   20.5310    6.3020 O.2       1 HV1        -0.3414
     38 N4         15.8850   20.9260    5.4290 N.am      1 HV1        -0.2678
     39 C5         16.0780   19.4820    5.0110 C.3       1 HV1         0.1008
     40 C6         15.8420   19.1640    3.5900 C.ar      1 HV1        -0.0131
     41 C7         14.8580   19.6880    2.6320 C.ar      1 HV1        -0.0646
     42 C8         14.8860   19.1540    1.2620 C.ar      1 HV1        -0.0754
     43 C9         15.8770   18.1300    0.8880 C.ar      1 HV1        -0.0755
     44 C10        16.8520   17.6200    1.8700 C.ar      1 HV1        -0.0667
     45 C11        16.8100   18.1600    3.2270 C.ar      1 HV1        -0.0360
     46 C12        17.6960   17.8070    4.4290 C.3       1 HV1         0.0085
     47 C13        17.5110   19.0220    5.3790 C.3       1 HV1         0.0952
     48 O14        18.5390   19.9640    5.0140 O.3       1 HV1        -0.3856
     49 H1         14.6481   24.2158    4.4654 H         1 HV1         0.0502
     50 H2         13.3984   25.3988    4.9806 H         1 HV1         0.0502
     51 H3         12.8417   23.3590    6.7032 H         1 HV1         0.0306
     52 H4         13.9920   24.6876    7.0755 H         1 HV1         0.0306
     53 H5         10.7926   25.6546    4.6584 H         1 HV1         0.2170
     54 H6          7.4082   25.1714    6.6609 H         1 HV1         0.1899
     55 H7          4.2528   27.1681    5.6468 H         1 HV1         0.0575
     56 H8          5.4557   28.5004    5.5786 H         1 HV1         0.0575
     57 H9          5.3992   27.4136    7.0077 H         1 HV1         0.0575
     58 H10        10.0360   26.6234    6.3593 H         1 HV1         0.0805
     59 H11         8.5697   25.0656   10.1784 H         1 HV1         0.0237
     60 H12         8.9731   23.8633    8.9063 H         1 HV1         0.0237
     61 H13         7.5099   24.8917    8.7386 H         1 HV1         0.0237
     62 H14        11.4212   26.6391    8.3745 H         1 HV1         0.0237
     63 H15        11.2334   24.8863    8.7192 H         1 HV1         0.0237
     64 H16        10.7971   26.0994    9.9700 H         1 HV1         0.0237
     65 H17         7.7310   27.3575    8.3906 H         1 HV1         0.0237
     66 H18         9.3576   28.1180    8.3454 H         1 HV1         0.0237
     67 H19         8.7553   27.3755    9.8661 H         1 HV1         0.0237
     68 H20        10.4227   22.1153    3.4277 H         1 HV1         0.0716
     69 H21        11.4350   23.2515    2.4733 H         1 HV1         0.0716
     70 H22         8.0262   22.5592    3.7845 H         1 HV1         0.0564
     71 H23         6.0352   23.7316    2.8261 H         1 HV1         0.0626
     72 H24         8.7164   26.3458    0.6650 H         1 HV1         0.0626
     73 H25        10.6703   25.1766    1.6278 H         1 HV1         0.0564
     74 H26        16.8654   22.8804    6.1378 H         1 HV1         0.2082
     75 H27        14.1187   22.3155    8.5413 H         1 HV1         0.0441
     76 H28        15.3027   23.6664    8.5367 H         1 HV1         0.0441
     77 H29        14.7030   20.4208    9.6173 H         1 HV1         0.0557
     78 H30        16.4575   18.8354   10.4316 H         1 HV1         0.0599
     79 H31        18.8245   19.2544    9.9021 H         1 HV1         0.0559
     80 H32        19.5505   21.2287    8.5765 H         1 HV1         0.0599
     81 H33        17.8105   22.8372    7.7456 H         1 HV1         0.0557
     82 H34        16.5992   21.6000    5.2402 H         1 HV1         0.1887
     83 H35        15.3618   18.8860    5.5956 H         1 HV1         0.0734
     84 H36        14.1365   20.4421    2.9252 H         1 HV1         0.0538
     85 H37        14.1763   19.5144    0.5261 H         1 HV1         0.0541
     86 H38        15.8897   17.7452   -0.1253 H         1 HV1         0.0541
     87 H39        17.5794   16.8656    1.5928 H         1 HV1         0.0537
     88 H40        18.7479   17.7009    4.1254 H         1 HV1         0.0439
     89 H41        17.3571   16.8768    4.9085 H         1 HV1         0.0439
     90 H42        17.5883   18.7564    6.4436 H         1 HV1         0.0659
     91 H43        18.4730   20.7333    5.5675 H         1 HV1         0.2103
@<TRIPOS>BOND
     1    1    2 1  
     2    7    1 1  
     3    2   27 1  
     4    4    3 1  
     5    3    7 am 
     6    3   19 1  
     7    8    4 am 
     8   11    5 am 
     9    5   13 1  
    10    7    6 2  
    11   13    8 1  
    12    8   18 2  
    13   10    9 1  
    14   10   11 1  
    15   11   12 2  
    16   13   14 1  
    17   14   15 1  
    18   14   16 1  
    19   14   17 1  
    20   19   20 1  
    21   20   21 ar 
    22   20   26 ar 
    23   21   22 ar 
    24   22   23 ar 
    25   23   24 1  
    26   23   25 ar 
    27   25   26 ar 
    28   27   28 1  
    29   27   29 1  
    30   27   36 1  
    31   29   30 1  
    32   30   31 ar 
    33   30   35 ar 
    34   31   32 ar 
    35   32   33 ar 
    36   33   34 ar 
    37   34   35 ar 
    38   36   37 2  
    39   36   38 am 
    40   38   39 1  
    41   39   40 1  
    42   39   47 1  
    43   40   41 ar 
    44   40   45 ar 
    45   41   42 ar 
    46   42   43 ar 
    47   43   44 ar 
    48   44   45 ar 
    49   45   46 1  
    50   46   47 1  
    51   47   48 1  
    52    1   49 1  
    53    1   50 1  
    54    2   51 1  
    55    2   52 1  
    56    4   53 1  
    57    5   54 1  
    58    9   55 1  
    59    9   56 1  
    60    9   57 1  
    61   13   58 1  
    62   15   59 1  
    63   15   60 1  
    64   15   61 1  
    65   16   62 1  
    66   16   63 1  
    67   16   64 1  
    68   17   65 1  
    69   17   66 1  
    70   17   67 1  
    71   19   68 1  
    72   19   69 1  
    73   21   70 1  
    74   22   71 1  
    75   25   72 1  
    76   26   73 1  
    77   28   74 1  
    78   29   75 1  
    79   29   76 1  
    80   31   77 1  
    81   32   78 1  
    82   33   79 1  
    83   34   80 1  
    84   35   81 1  
    85   38   82 1  
    86   39   83 1  
    87   41   84 1  
    88   42   85 1  
    89   43   86 1  
    90   44   87 1  
    91   46   88 1  
    92   46   89 1  
    93   47   90 1  
    94   48   91 1  
@<TRIPOS>SUBSTRUCTURE
     1 HV1         1

