### 
### Created by X-TOOL on Mon Sep 10 21:12:55 2018
### 

@<TRIPOS>MOLECULE
2uy3_ligand
   21    22     1     0     0
SMALL
GAST_HUCK


@<TRIPOS>ATOM
      1 N1         38.0740   20.5310   22.2120 N.am      1 H33        -0.1758
      2 C2         38.0800   20.3950   23.6110 C.2       1 H33         0.2026
      3 C3         38.3160   21.5330   24.4230 C.2       1 H33         0.1098
      4 C4         38.5410   22.7850   23.8480 C.2       1 H33         0.2031
      5 N5         38.5160   22.9470   22.4450 N.am      1 H33        -0.1721
      6 C6         38.2900   21.8140   21.6190 C.2       1 H33         0.3262
      7 N7         38.3750   21.7180   25.7600 N.2       1 H33        -0.3218
      8 C8         38.6340   23.0180   25.9920 C.2       1 H33         0.1946
      9 N9         38.7210   23.6690   24.8450 N.pl3     1 H33        -0.2227
     10 C11        38.7420   24.2830   21.8250 C.3       1 H33         0.0519
     11 C15        37.8330   19.3220   21.3800 C.3       1 H33         0.0476
     12 O19        38.2790   21.9290   20.3930 O.2       1 H33        -0.3842
     13 O20        37.8800   19.2610   24.0680 O.2       1 H33        -0.4075
     14 CL         38.8080   23.6990   27.3560 Cl        1 H33        -0.0203
     15 H1         38.8962   24.6779   24.7342 H         1 H33         0.2387
     16 H2         38.8977   25.0323   22.6152 H         1 H33         0.0561
     17 H3         37.8641   24.5614   21.2236 H         1 H33         0.0561
     18 H4         39.6311   24.2416   21.1787 H         1 H33         0.0561
     19 H5         37.6927   18.4488   22.0341 H         1 H33         0.0539
     20 H6         38.6975   19.1517   20.7215 H         1 H33         0.0539
     21 H7         36.9305   19.4712   20.7691 H         1 H33         0.0539
@<TRIPOS>BOND
     1    1    2 am 
     2    1    6 am 
     3    1   11 1  
     4    2    3 1  
     5    2   13 2  
     6    3    4 2  
     7    3    7 1  
     8    4    5 1  
     9    4    9 1  
    10    5    6 am 
    11    5   10 1  
    12    6   12 2  
    13    7    8 2  
    14    8    9 1  
    15    8   14 1  
    16    9   15 1  
    17   10   16 1  
    18   10   17 1  
    19   10   18 1  
    20   11   19 1  
    21   11   20 1  
    22   11   21 1  
@<TRIPOS>SUBSTRUCTURE
     1 H33         1

