### 
### Created by X-TOOL on Mon Sep 10 21:12:55 2018
### 

@<TRIPOS>MOLECULE
2uy4_ligand
   19    19     1     0     0
SMALL
GAST_HUCK


@<TRIPOS>ATOM
      1 C1         38.1430   20.2690   22.3930 C.2       1 AZM         0.2562
      2 C2         38.2450   20.9340   24.6690 C.2       1 AZM         0.2252
      3 C3         38.7520   22.7650   26.0550 C.2       1 AZM         0.2120
      4 C4         38.8830   23.1260   27.5120 C.3       1 AZM         0.0337
      5 N1         36.5850   20.1440   20.2020 N.am      1 AZM        -0.2565
      6 N2         37.9070   19.6430   24.4510 N.2       1 AZM        -0.2573
      7 N3         37.8560   19.2870   23.2430 N.2       1 AZM        -0.2476
      8 N4         38.3900   21.5060   25.8640 N.am      1 AZM        -0.1925
      9 O1         38.7910   18.8180   20.2920 O.2       1 AZM        -0.1452
     10 O2         38.8970   21.2590   20.0970 O.2       1 AZM        -0.1452
     11 O3         38.9690   23.6020   25.1840 O.2       1 AZM        -0.3804
     12 S1         38.1430   20.1190   20.6910 S.o2      1 AZM         0.0991
     13 S2         38.5130   21.7020   23.2090 S.3       1 AZM         0.0874
     14 H1         39.1847   24.1799   27.6029 H         1 AZM         0.0474
     15 H2         39.6437   22.4851   27.9816 H         1 AZM         0.0474
     16 H3         37.9163   22.9767   28.0151 H         1 AZM         0.0474
     17 H4         36.3649   20.0679   19.2295 H         1 AZM         0.1638
     18 H5         35.8511   20.2354   20.8751 H         1 AZM         0.1638
     19 H6         38.2130   20.9451   26.6727 H         1 AZM         0.2411
@<TRIPOS>BOND
     1    1    7 2  
     2    1   12 1  
     3   13    1 1  
     4    2    6 2  
     5    8    2 1  
     6    2   13 1  
     7    3    4 1  
     8    3    8 am 
     9    3   11 2  
    10   12    5 am 
    11    6    7 1  
    12   12    9 2  
    13   12   10 2  
    14    4   14 1  
    15    4   15 1  
    16    4   16 1  
    17    5   17 1  
    18    5   18 1  
    19    8   19 1  
@<TRIPOS>SUBSTRUCTURE
     1 AZM         1

