### 
### Created by X-TOOL on Mon Sep 10 21:12:55 2018
### 

@<TRIPOS>MOLECULE
2uy5_ligand
   25    27     1     0     0
SMALL
GAST_HUCK


@<TRIPOS>ATOM
      1 CAM        39.8000   25.9940   28.7230 C.2       1 H35        -0.0685
      2 CAO        40.6000   27.0690   28.6410 C.2       1 H35        -0.0808
      3 CAN        41.4600   26.9030   27.6230 C.2       1 H35         0.0670
      4 OAL        41.1990   25.6780   27.0690 O.3       1 H35        -0.2667
      5 CAK        40.1550   25.1380   27.7530 C.2       1 H35         0.1176
      6 CAP        39.5950   23.7640   27.3750 C.3       1 H35         0.0929
      7 N6         39.1250   23.8690   25.9490 N.pl3     1 H35        -0.2870
      8 C6         38.7510   22.8210   25.2340 C.ar      1 H35         0.1343
      9 N1         38.5140   21.6520   25.8190 N.ar      1 H35        -0.2695
     10 C2         38.1520   20.5790   25.1040 C.ar      1 H35         0.0533
     11 N3         38.0000   20.6090   23.7670 N.ar      1 H35        -0.2715
     12 C4         38.2040   21.7630   23.1200 C.ar      1 H35         0.1567
     13 C5         38.5860   22.8960   23.8360 C.ar      1 H35         0.1046
     14 N7         38.7190   23.8750   22.9460 N.2       1 H35        -0.2960
     15 C8         38.4570   23.3940   21.7250 C.2       1 H35         0.1072
     16 N9         38.1320   22.1000   21.8240 N.pl3     1 H35        -0.2361
     17 H1         39.0028   25.8433   29.4494 H         1 H35         0.0219
     18 H2         40.5582   27.9379   29.2961 H         1 H35         0.0296
     19 H3         42.2222   27.6100   27.2987 H         1 H35         0.0854
     20 H4         38.7537   23.5027   28.0337 H         1 H35         0.0719
     21 H5         40.3795   22.9977   27.4606 H         1 H35         0.0719
     22 H6         39.0931   24.8000   25.5096 H         1 H35         0.1884
     23 H7         37.9736   19.6453   25.6250 H         1 H35         0.0996
     24 H8         38.5013   23.9648   20.7986 H         1 H35         0.1346
     25 H9         37.8735   21.4761   21.0463 H         1 H35         0.2393
@<TRIPOS>BOND
     1    1    2 1  
     2    1    5 2  
     3    2    3 2  
     4    3    4 1  
     5    4    5 1  
     6    5    6 1  
     7    6    7 1  
     8    7    8 1  
     9    8    9 ar 
    10    8   13 ar 
    11    9   10 ar 
    12   10   11 ar 
    13   11   12 ar 
    14   12   13 ar 
    15   12   16 1  
    16   13   14 1  
    17   14   15 2  
    18   15   16 1  
    19    1   17 1  
    20    2   18 1  
    21    3   19 1  
    22    6   20 1  
    23    6   21 1  
    24    7   22 1  
    25   10   23 1  
    26   15   24 1  
    27   16   25 1  
@<TRIPOS>SUBSTRUCTURE
     1 H35         1

