### 
### Created by X-TOOL on Mon Sep 10 21:12:56 2018
### 

@<TRIPOS>MOLECULE
2uyi_ligand
   49    51     1     0     0
SMALL
GAST_HUCK


@<TRIPOS>ATOM
      1 O1         20.1950   14.2710   32.2420 O.2       1 K02        -0.3767
      2 C13        19.1890   13.6690   31.8280 C.2       1 K02         0.2421
      3 C14        18.1660   13.0830   32.7770 C.2       1 K02         0.1074
      4 S2         18.5230   13.1810   34.4630 S.3       1 K02        -0.0253
      5 C15        17.1290   12.3700   35.0060 C.2       1 K02         0.0009
      6 C16        16.4480   11.9850   33.8530 C.2       1 K02        -0.0665
      7 C17        17.0160   12.3470   32.6400 C.2       1 K02        -0.0545
      8 N2         19.0430   13.4500   30.5040 N.am      1 K02        -0.2156
      9 C12        19.7880   14.0760   29.5600 C.2       1 K02         0.1423
     10 S1         21.3750   13.6300   29.2690 S.3       1 K02        -0.0188
     11 C6         21.5700   14.7720   28.0240 C.2       1 K02        -0.0092
     12 C5         20.4070   15.5060   27.8360 C.2       1 K02        -0.0710
     13 C11        20.3650   16.5920   26.7720 C.3       1 K02        -0.0392
     14 C9         21.7590   17.0090   26.3250 C.3       1 K02        -0.0384
     15 C10        21.5640   17.6830   24.9630 C.3       1 K02        -0.0612
     16 C8         22.8310   15.9090   26.1650 C.3       1 K02        -0.0434
     17 C7         22.9000   14.8640   27.2900 C.3       1 K02        -0.0256
     18 C4         19.3800   15.1060   28.7010 C.2       1 K02         0.0409
     19 C3         18.0390   15.7960   28.6870 C.2       1 K02         0.1662
     20 O2         17.3490   15.7420   27.7190 O.2       1 K02        -0.4121
     21 N1         17.5480   16.5000   29.7230 N.am      1 K02        -0.2816
     22 C2         16.1140   16.8740   29.7860 C.3       1 K02         0.0292
     23 C1         15.4030   15.8340   30.6310 C.3       1 K02        -0.0449
     24 C18        18.3730   16.9170   30.8810 C.3       1 K02         0.0292
     25 C19        18.5690   18.3970   30.8620 C.3       1 K02        -0.0449
     26 H1         16.8316   12.1898   36.0380 H         1 K02         0.0800
     27 H2         15.5144   11.4265   33.9016 H         1 K02         0.0437
     28 H3         16.5913   12.0741   31.6750 H         1 K02         0.0514
     29 H4         18.3508   12.7933   30.2046 H         1 K02         0.2358
     30 H5         19.8463   17.4709   27.1824 H         1 K02         0.0351
     31 H6         19.8113   16.2134   25.9002 H         1 K02         0.0351
     32 H7         22.1431   17.7385   27.0532 H         1 K02         0.0314
     33 H8         22.5386   18.0135   24.5746 H         1 K02         0.0234
     34 H9         20.9002   18.5528   25.0760 H         1 K02         0.0234
     35 H10        21.1133   16.9666   24.2605 H         1 K02         0.0234
     36 H11        23.8123   16.4022   26.1038 H         1 K02         0.0286
     37 H12        22.6287   15.3768   25.2238 H         1 K02         0.0286
     38 H13        23.1412   13.8824   26.8561 H         1 K02         0.0373
     39 H14        23.6862   15.1530   28.0030 H         1 K02         0.0373
     40 H15        15.6860   16.8898   28.7728 H         1 K02         0.0517
     41 H16        16.0058   17.8676   30.2453 H         1 K02         0.0517
     42 H17        14.3338   16.0839   30.6972 H         1 K02         0.0249
     43 H18        15.8396   15.8209   31.6405 H         1 K02         0.0249
     44 H19        15.5199   14.8431   30.1680 H         1 K02         0.0249
     45 H20        19.3525   16.4192   30.8285 H         1 K02         0.0517
     46 H21        17.8647   16.6289   31.8130 H         1 K02         0.0517
     47 H22        19.1821   18.6967   31.7247 H         1 K02         0.0249
     48 H23        17.5908   18.8972   30.9159 H         1 K02         0.0249
     49 H24        19.0786   18.6875   29.9315 H         1 K02         0.0249
@<TRIPOS>BOND
     1    1    2 2  
     2    2    3 1  
     3    2    8 am 
     4    3    4 1  
     5    3    7 2  
     6    4    5 1  
     7    5    6 2  
     8    6    7 1  
     9    8    9 1  
    10    9   10 1  
    11    9   18 2  
    12   10   11 1  
    13   11   12 2  
    14   11   17 1  
    15   12   13 1  
    16   12   18 1  
    17   13   14 1  
    18   14   15 1  
    19   14   16 1  
    20   16   17 1  
    21   18   19 1  
    22   19   20 2  
    23   19   21 am 
    24   21   22 1  
    25   21   24 1  
    26   22   23 1  
    27   24   25 1  
    28    5   26 1  
    29    6   27 1  
    30    7   28 1  
    31    8   29 1  
    32   13   30 1  
    33   13   31 1  
    34   14   32 1  
    35   15   33 1  
    36   15   34 1  
    37   15   35 1  
    38   16   36 1  
    39   16   37 1  
    40   17   38 1  
    41   17   39 1  
    42   22   40 1  
    43   22   41 1  
    44   23   42 1  
    45   23   43 1  
    46   23   44 1  
    47   24   45 1  
    48   24   46 1  
    49   25   47 1  
    50   25   48 1  
    51   25   49 1  
@<TRIPOS>SUBSTRUCTURE
     1 K02         1

