### 
### Created by X-TOOL on Mon Sep 10 21:12:56 2018
### 

@<TRIPOS>MOLECULE
2uym_ligand
   52    54     1     0     0
SMALL
GAST_HUCK


@<TRIPOS>ATOM
      1 O12        31.1390   14.3270   12.6180 O.2       1 K03        -0.3767
      2 C11        30.6700   13.8940   13.6450 C.2       1 K03         0.2421
      3 C13        31.5810   13.2950   14.6720 C.2       1 K03         0.1074
      4 S17        33.3590   13.4870   14.5000 S.3       1 K03        -0.0253
      5 C16        33.6980   12.5870   15.9980 C.2       1 K03         0.0009
      6 C15        32.4640   12.2050   16.5280 C.2       1 K03        -0.0665
      7 C14        31.3110   12.5740   15.8260 C.2       1 K03        -0.0545
      8 N10        29.3480   13.9360   13.8890 N.am      1 K03        -0.2156
      9 C9         28.4510   14.3570   12.9410 C.2       1 K03         0.1423
     10 S18        28.3580   13.6670   11.3060 S.3       1 K03        -0.0188
     11 C19        27.0370   14.7930   10.9010 C.2       1 K03        -0.0092
     12 C26        26.7190   15.6320   11.9710 C.2       1 K03        -0.0707
     13 C25        25.6250   16.6670   11.7970 C.3       1 K03        -0.0366
     14 C22        25.2640   16.8910   10.3040 C.3       1 K03        -0.0295
     15 C24        26.2900   17.7950    9.6270 C.3       1 K03        -0.0586
     16 C23        23.9570   17.6560   10.2870 C.3       1 K03        -0.0586
     17 C21        25.1390   15.5680    9.5210 C.3       1 K03        -0.0408
     18 C20        26.4380   14.7300    9.5160 C.3       1 K03        -0.0254
     19 C8         27.5330   15.3930   13.1200 C.2       1 K03         0.0409
     20 C6         27.3970   16.1320   14.4270 C.2       1 K03         0.1662
     21 O7         26.3360   16.0160   15.0300 O.2       1 K03        -0.4121
     22 N3         28.3660   16.8550   15.0080 N.am      1 K03        -0.2816
     23 C4         29.6470   17.2030   14.4030 C.3       1 K03         0.0292
     24 C5         29.6060   18.6120   13.8560 C.3       1 K03        -0.0449
     25 C2         28.1520   17.3220   16.3850 C.3       1 K03         0.0292
     26 C1         29.2960   16.9990   17.3190 C.3       1 K03        -0.0449
     27 H1         34.6793   12.3751   16.4200 H         1 K03         0.0800
     28 H2         32.4009   11.6391   17.4563 H         1 K03         0.0437
     29 H3         30.3035   12.3207   16.1526 H         1 K03         0.0514
     30 H4         29.0099   13.6524   14.7864 H         1 K03         0.2358
     31 H5         25.9674   17.6203   12.2258 H         1 K03         0.0354
     32 H6         24.7262   16.3262   12.3317 H         1 K03         0.0354
     33 H7         26.0129   17.9384    8.5722 H         1 K03         0.0236
     34 H8         27.2845   17.3284    9.6847 H         1 K03         0.0236
     35 H9         26.3122   18.7699   10.1360 H         1 K03         0.0236
     36 H10        23.1721   17.0515   10.7650 H         1 K03         0.0236
     37 H11        23.6716   17.8712    9.2467 H         1 K03         0.0236
     38 H12        24.0780   18.6009   10.8370 H         1 K03         0.0236
     39 H13        24.8723   15.8032    8.4801 H         1 K03         0.0288
     40 H14        24.3388   14.9672    9.9778 H         1 K03         0.0288
     41 H15        26.2083   13.6863    9.2553 H         1 K03         0.0373
     42 H16        27.1466   15.1435    8.7833 H         1 K03         0.0373
     43 H17        29.8630   16.5021   13.5832 H         1 K03         0.0517
     44 H18        30.4383   17.1325   15.1638 H         1 K03         0.0517
     45 H19        30.5781   18.8582   13.4040 H         1 K03         0.0249
     46 H20        29.3927   19.3166   14.6733 H         1 K03         0.0249
     47 H21        28.8174   18.6862   13.0927 H         1 K03         0.0249
     48 H22        27.2399   16.8470   16.7754 H         1 K03         0.0517
     49 H23        28.0173   18.4135   16.3649 H         1 K03         0.0517
     50 H24        29.0653   17.3773   18.3258 H         1 K03         0.0249
     51 H25        30.2162   17.4756   16.9502 H         1 K03         0.0249
     52 H26        29.4388   15.9091   17.3607 H         1 K03         0.0249
@<TRIPOS>BOND
     1    1    2 2  
     2    2    3 1  
     3    2    8 am 
     4    3    4 1  
     5    3    7 2  
     6    4    5 1  
     7    5    6 2  
     8    6    7 1  
     9    8    9 1  
    10    9   10 1  
    11    9   19 2  
    12   10   11 1  
    13   11   12 2  
    14   11   18 1  
    15   12   13 1  
    16   12   19 1  
    17   13   14 1  
    18   14   15 1  
    19   14   16 1  
    20   14   17 1  
    21   17   18 1  
    22   19   20 1  
    23   20   21 2  
    24   20   22 am 
    25   22   23 1  
    26   22   25 1  
    27   23   24 1  
    28   25   26 1  
    29    5   27 1  
    30    6   28 1  
    31    7   29 1  
    32    8   30 1  
    33   13   31 1  
    34   13   32 1  
    35   15   33 1  
    36   15   34 1  
    37   15   35 1  
    38   16   36 1  
    39   16   37 1  
    40   16   38 1  
    41   17   39 1  
    42   17   40 1  
    43   18   41 1  
    44   18   42 1  
    45   23   43 1  
    46   23   44 1  
    47   24   45 1  
    48   24   46 1  
    49   24   47 1  
    50   25   48 1  
    51   25   49 1  
    52   26   50 1  
    53   26   51 1  
    54   26   52 1  
@<TRIPOS>SUBSTRUCTURE
     1 K03         1

