### 
### Created by X-TOOL on Mon Sep 10 21:12:55 2018
### 

@<TRIPOS>MOLECULE
2uyn_ligand
   12    11     1     0     0
SMALL
GAST_HUCK


@<TRIPOS>ATOM
      1 C4         -0.6220   19.0560   22.4850 C.3       1 2KT        -0.0488
      2 C3          0.0780   18.6560   23.7600 C.3       1 2KT         0.0279
      3 C2          1.1630   17.8700   23.6290 C.2       1 2KT         0.1712
      4 O3          1.5420   17.4830   22.4430 O.2       1 2KT        -0.3577
      5 C1          1.9430   17.4260   24.7670 C.2       1 2KT         0.1248
      6 O1          1.3260   16.9420   25.7270 O.co2     1 2KT        -0.5464
      7 O2          3.1950   17.5340   24.7070 O.co2     1 2KT        -0.5464
      8 H1         -1.4862   19.6927   22.7254 H         1 2KT         0.0255
      9 H2         -0.9665   18.1544   21.9574 H         1 2KT         0.0255
     10 H3          0.0761   19.6126   21.8425 H         1 2KT         0.0255
     11 H4         -0.6497   18.1192   24.3864 H         1 2KT         0.0495
     12 H5          0.3929   19.5775   24.2715 H         1 2KT         0.0495
@<TRIPOS>BOND
     1    1    2 1  
     2    2    3 1  
     3    3    4 2  
     4    3    5 1  
     5    5    6 ar 
     6    5    7 ar 
     7    1    8 1  
     8    1    9 1  
     9    1   10 1  
    10    2   11 1  
    11    2   12 1  
@<TRIPOS>SUBSTRUCTURE
     1 2KT         1

