### 
### Created by X-TOOL on Mon Sep 10 21:12:55 2018
### 

@<TRIPOS>MOLECULE
2uyq_ligand
   28    30     1     0     0
SMALL
GAST_HUCK


@<TRIPOS>ATOM
      1 C4'        -9.4620  -26.8210   -3.5750 C.3       1 SAM         0.0797
      2 O4'        -8.4550  -27.7650   -3.1920 O.3       1 SAM        -0.3424
      3 C3'        -8.8400  -25.4410   -3.3670 C.3       1 SAM         0.1096
      4 O3'        -9.2770  -24.9060   -2.1380 O.3       1 SAM        -0.3868
      5 C2'        -7.3440  -25.6910   -3.2510 C.3       1 SAM         0.1381
      6 O2'        -6.6570  -24.6720   -2.5170 O.3       1 SAM        -0.3836
      7 C1'        -7.4070  -27.0390   -2.5520 C.3       1 SAM         0.2006
      8 N9         -6.1070  -27.7180   -2.5790 N.pl3     1 SAM        -0.1919
      9 C8         -5.5020  -28.2500   -3.6850 C.2       1 SAM         0.1123
     10 N7         -4.3120  -28.7550   -3.2890 N.2       1 SAM        -0.2958
     11 C5         -4.1590  -28.5670   -1.9440 C.ar      1 SAM         0.1045
     12 C6         -3.1390  -28.9000   -1.0450 C.ar      1 SAM         0.1298
     13 N6         -2.0350  -29.5350   -1.4640 N.pl3     1 SAM        -0.3152
     14 N1         -3.2860  -28.5700    0.2920 N.ar      1 SAM        -0.2698
     15 C2         -4.4150  -27.9040    0.7510 C.ar      1 SAM         0.0533
     16 N3         -5.4180  -27.5860   -0.1490 N.ar      1 SAM        -0.2714
     17 C4         -5.2910  -27.9080   -1.4760 C.ar      1 SAM         0.1613
     18 H1        -10.3557  -26.9372   -2.9443 H         1 SAM         0.0588
     19 H2         -9.7373  -26.9618   -4.6306 H         1 SAM         0.0588
     20 H3         -9.0788  -24.7626   -4.1993 H         1 SAM         0.0644
     21 H4         -9.0119  -25.4823   -1.4308 H         1 SAM         0.2100
     22 H5         -6.8730  -25.7790   -4.2411 H         1 SAM         0.0676
     23 H6         -7.0098  -24.6254   -1.6361 H         1 SAM         0.2101
     24 H7         -7.6794  -26.8859   -1.4973 H         1 SAM         0.0996
     25 H8         -5.9045  -28.2640   -4.6968 H         1 SAM         0.1349
     26 H9         -1.2920  -29.7741   -0.7919 H         1 SAM         0.1820
     27 H10        -1.9298  -29.7837   -2.4580 H         1 SAM         0.1820
     28 H11        -4.5095  -27.6373    1.7974 H         1 SAM         0.0996
@<TRIPOS>BOND
     1    1    2 1  
     2    1    3 1  
     3    2    7 1  
     4    3    4 1  
     5    3    5 1  
     6    5    6 1  
     7    5    7 1  
     8    7    8 1  
     9    8    9 1  
    10    8   17 1  
    11    9   10 2  
    12   10   11 1  
    13   11   12 ar 
    14   11   17 ar 
    15   12   13 1  
    16   12   14 ar 
    17   14   15 ar 
    18   15   16 ar 
    19   16   17 ar 
    20    1   18 1  
    21    1   19 1  
    22    3   20 1  
    23    4   21 1  
    24    5   22 1  
    25    6   23 1  
    26    7   24 1  
    27    9   25 1  
    28   13   26 1  
    29   13   27 1  
    30   15   28 1  
@<TRIPOS>SUBSTRUCTURE
     1 SAM         1

