### 
### Created by X-TOOL on Mon Sep 10 21:12:57 2018
### 

@<TRIPOS>MOLECULE
2uyw_ligand
   31    32     1     0     0
SMALL
GAST_HUCK


@<TRIPOS>ATOM
      1 C11         5.0870   35.2290   64.9790 C.2       1 BTN         0.0348
      2 O11         3.9130   35.4610   65.3690 O.co2     1 BTN        -0.5690
      3 O12         5.8660   36.2030   64.7920 O.co2     1 BTN        -0.5690
      4 C10         5.5620   33.8030   64.7880 C.3       1 BTN         0.0002
      5 C9          6.9520   33.6270   64.1850 C.3       1 BTN        -0.0414
      6 C8          6.9030   33.5700   62.6440 C.3       1 BTN        -0.0505
      7 C7          8.2790   33.4050   62.0230 C.3       1 BTN        -0.0389
      8 C2          8.2790   33.1810   60.5070 C.3       1 BTN         0.0302
      9 S1          7.6530   31.6780   60.0190 S.3       1 BTN        -0.1527
     10 C6          8.2530   31.9720   58.3370 C.3       1 BTN         0.0190
     11 C5          9.6140   32.6440   58.5050 C.3       1 BTN         0.0750
     12 N1         10.6330   31.6320   58.5340 N.am      1 BTN        -0.2671
     13 C3         11.2530   31.6210   59.7220 C.2       1 BTN         0.2580
     14 O3         12.2740   30.7130   60.0050 O.2       1 BTN        -0.4008
     15 N2         10.7480   32.5180   60.5490 N.am      1 BTN        -0.2668
     16 C4          9.6830   33.2830   59.8820 C.3       1 BTN         0.0775
     17 H1          4.8436   33.2965   64.1267 H         1 BTN         0.0430
     18 H2          5.5604   33.3147   65.7737 H         1 BTN         0.0430
     19 H3          7.3883   32.6905   64.5625 H         1 BTN         0.0283
     20 H4          7.5829   34.4747   64.4903 H         1 BTN         0.0283
     21 H5          6.4574   34.5038   62.2706 H         1 BTN         0.0267
     22 H6          6.2757   32.7182   62.3425 H         1 BTN         0.0267
     23 H7          8.7662   32.5399   62.4964 H         1 BTN         0.0277
     24 H8          8.8607   34.3144   62.2342 H         1 BTN         0.0277
     25 H9          7.6487   33.9701   60.0711 H         1 BTN         0.0435
     26 H10         7.5624   32.6320   57.7916 H         1 BTN         0.0399
     27 H11         8.3575   31.0213   57.7937 H         1 BTN         0.0399
     28 H12         9.7897   33.3781   57.7048 H         1 BTN         0.0584
     29 H13        10.8497   31.0204   57.7731 H         1 BTN         0.1849
     30 H14        11.0466   32.6573   61.4932 H         1 BTN         0.1849
     31 H15         9.9698   34.3432   59.8218 H         1 BTN         0.0587
@<TRIPOS>BOND
     1    1    2 ar 
     2    1    3 ar 
     3    1    4 1  
     4    4    5 1  
     5    5    6 1  
     6    6    7 1  
     7    7    8 1  
     8    8    9 1  
     9    8   16 1  
    10    9   10 1  
    11   10   11 1  
    12   11   12 1  
    13   11   16 1  
    14   12   13 am 
    15   13   14 2  
    16   13   15 am 
    17   15   16 1  
    18    4   17 1  
    19    4   18 1  
    20    5   19 1  
    21    5   20 1  
    22    6   21 1  
    23    6   22 1  
    24    7   23 1  
    25    7   24 1  
    26    8   25 1  
    27   10   26 1  
    28   10   27 1  
    29   11   28 1  
    30   12   29 1  
    31   15   30 1  
    32   16   31 1  
@<TRIPOS>SUBSTRUCTURE
     1 BTN         1

