### 
### Created by X-TOOL on Mon Sep 10 21:12:55 2018
### 

@<TRIPOS>MOLECULE
2uz9_ligand
   15    16     1     0     0
SMALL
GAST_HUCK


@<TRIPOS>ATOM
      1 N9         -2.4870    8.4560  -29.7040 N.2       1 XAN        -0.2861
      2 C4         -1.7010    7.4710  -30.1220 C.2       1 XAN         0.1352
      3 N3         -0.3860    7.3260  -30.2860 N.am      1 XAN        -0.2138
      4 C2          0.1410    6.1680  -30.7390 C.2       1 XAN         0.3131
      5 O2          1.3810    6.1100  -30.8660 O.2       1 XAN        -0.3876
      6 N1         -0.6180    5.0860  -31.0700 N.am      1 XAN        -0.1850
      7 C6         -1.9570    5.0950  -30.9450 C.2       1 XAN         0.2273
      8 O6         -2.6510    4.1020  -31.2350 O.2       1 XAN        -0.4009
      9 C5         -2.5830    6.3380  -30.4380 C.2       1 XAN         0.1599
     10 N7         -3.8260    6.7430  -30.1820 N.pl3     1 XAN        -0.2658
     11 C8         -3.7620    8.0180  -29.7410 C.2       1 XAN         0.0953
     12 H1          0.2222    8.0897  -30.0693 H         1 XAN         0.2252
     13 H2         -0.1672    4.2628  -31.4152 H         1 XAN         0.2255
     14 H3         -4.6829    6.1837  -30.2994 H         1 XAN         0.2315
     15 H4         -4.6266    8.6142  -29.4530 H         1 XAN         0.1261
@<TRIPOS>BOND
     1    1    2 1  
     2    1   11 2  
     3    2    3 1  
     4    2    9 2  
     5    3    4 am 
     6    4    5 2  
     7    4    6 am 
     8    6    7 am 
     9    7    8 2  
    10    7    9 1  
    11    9   10 1  
    12   10   11 1  
    13    3   12 1  
    14    6   13 1  
    15   10   14 1  
    16   11   15 1  
@<TRIPOS>SUBSTRUCTURE
     1 XAN         1

