### 
### Created by X-TOOL on Mon Sep 10 21:13:00 2018
### 

@<TRIPOS>MOLECULE
2uzj_ligand
   54    53     1     0     0
SMALL
GAST_HUCK


@<TRIPOS>ATOM
      1 C1         12.3660    7.4960   11.6140 C.2       1 E64         0.0396
      2 O1         12.8680    8.6460   11.4410 O.co2     1 E64        -0.5688
      3 O2         12.5430    6.5390   10.8260 O.co2     1 E64        -0.5688
      4 C2         11.5370    7.2210   12.8600 C.3       1 E64         0.0436
      5 C3         10.4330    8.2540   13.0320 C.3       1 E64         0.1549
      6 O3         11.0380    9.5280   13.2050 O.3       1 E64        -0.3697
      7 C4          9.4910    8.0150   14.1920 C.2       1 E64         0.2089
      8 O4          9.1790    6.8800   14.5810 O.2       1 E64        -0.3940
      9 N1          9.0200    9.1320   14.7540 N.am      1 E64        -0.2634
     10 C6          8.0510    9.1360   15.8470 C.3       1 E64         0.1311
     11 C7          8.4330   10.3320   16.7050 C.3       1 E64        -0.0101
     12 C8          9.0940    9.9740   18.0180 C.3       1 E64        -0.0425
     13 C9          9.8870   11.1540   18.5720 C.3       1 E64        -0.0625
     14 C10         9.9230    8.6890   17.9490 C.3       1 E64        -0.0625
     15 C11         6.7030    9.4550   15.2740 C.2       1 E64         0.2017
     16 O5          6.6180   10.3050   14.3890 O.2       1 E64        -0.3945
     17 N2          5.6410    8.7970   15.7260 N.am      1 E64        -0.2851
     18 C12         4.2750    9.0100   15.2520 C.3       1 E64         0.0311
     19 C13         3.4120    8.0090   16.0240 C.3       1 E64        -0.0296
     20 C14         3.1500    6.6930   15.2870 C.3       1 E64        -0.0180
     21 C15         2.6750    6.8380   13.8330 C.3       1 E64         0.0626
     22 N3          1.2590    6.4600   13.7050 N.pl3     1 E64        -0.2723
     23 C16         0.5330    5.4160   14.1550 C.cat     1 E64         0.2882
     24 N4          1.0640    4.4390   14.9040 N.pl3     1 E64        -0.2849
     25 N5         -0.7650    5.3370   13.8570 N.pl3     1 E64        -0.2849
     26 H1         12.1948    7.2503   13.7411 H         1 E64         0.0481
     27 H2         11.0828    6.2228   12.7745 H         1 E64         0.0481
     28 H3          9.8336    8.2605   12.1097 H         1 E64         0.0856
     29 H4         10.3618   10.1863   13.3141 H         1 E64         0.2135
     30 H5          9.3480   10.0111   14.4083 H         1 E64         0.1883
     31 H6          8.0499    8.1905   16.4091 H         1 E64         0.0800
     32 H7          7.5193   10.9037   16.9246 H         1 E64         0.0315
     33 H8          9.1290   10.9599   16.1295 H         1 E64         0.0315
     34 H9          8.2817    9.7769   18.7330 H         1 E64         0.0298
     35 H10        10.3556   10.8659   19.5246 H         1 E64         0.0232
     36 H11         9.2100   12.0048   18.7390 H         1 E64         0.0232
     37 H12        10.6671   11.4420   17.8520 H         1 E64         0.0232
     38 H13         9.3041    7.8747   17.5441 H         1 E64         0.0232
     39 H14        10.2677    8.4203   18.9584 H         1 E64         0.0232
     40 H15        10.7928    8.8485   17.2948 H         1 E64         0.0232
     41 H16         5.7860    8.1101   16.4381 H         1 E64         0.1851
     42 H17         4.2095    8.8198   14.1706 H         1 E64         0.0520
     43 H18         3.9511   10.0397   15.4635 H         1 E64         0.0520
     44 H19         2.4421    8.4831   16.2351 H         1 E64         0.0286
     45 H20         3.9204    7.7765   16.9713 H         1 E64         0.0286
     46 H21         2.3786    6.1399   15.8429 H         1 E64         0.0300
     47 H22         4.0852    6.1138   15.2828 H         1 E64         0.0300
     48 H23         3.2820    6.1851   13.1886 H         1 E64         0.0689
     49 H24         2.7989    7.8840   13.5159 H         1 E64         0.0689
     50 H25         0.7059    7.1340   13.1567 H         1 E64         0.2642
     51 H26         0.4737    3.6592   15.2271 H         1 E64         0.2615
     52 H27         2.0622    4.4682   15.1563 H         1 E64         0.2615
     53 H28        -1.2073    6.0695   13.2836 H         1 E64         0.2615
     54 H29        -1.3249    4.5435   14.2003 H         1 E64         0.2615
@<TRIPOS>BOND
     1    1    2 ar 
     2    1    3 ar 
     3    1    4 1  
     4    4    5 1  
     5    5    6 1  
     6    5    7 1  
     7    7    8 2  
     8    7    9 am 
     9    9   10 1  
    10   10   11 1  
    11   10   15 1  
    12   11   12 1  
    13   12   13 1  
    14   12   14 1  
    15   15   16 2  
    16   15   17 am 
    17   17   18 1  
    18   18   19 1  
    19   19   20 1  
    20   20   21 1  
    21   21   22 1  
    22   22   23 ar 
    23   23   24 ar 
    24   23   25 ar 
    25    4   26 1  
    26    4   27 1  
    27    5   28 1  
    28    6   29 1  
    29    9   30 1  
    30   10   31 1  
    31   11   32 1  
    32   11   33 1  
    33   12   34 1  
    34   13   35 1  
    35   13   36 1  
    36   13   37 1  
    37   14   38 1  
    38   14   39 1  
    39   14   40 1  
    40   17   41 1  
    41   18   42 1  
    42   18   43 1  
    43   19   44 1  
    44   19   45 1  
    45   20   46 1  
    46   20   47 1  
    47   21   48 1  
    48   21   49 1  
    49   22   50 1  
    50   24   51 1  
    51   24   52 1  
    52   25   53 1  
    53   25   54 1  
@<TRIPOS>SUBSTRUCTURE
     1 E64         1

