### 
### Created by X-TOOL on Mon Sep 10 21:12:56 2018
### 

@<TRIPOS>MOLECULE
2uzo_ligand
   33    35     1     0     0
SMALL
GAST_HUCK


@<TRIPOS>ATOM
      1 O4          6.4560  -11.5500    7.4290 O.2       1 C62        -0.1508
      2 S2          6.8920  -10.1480    7.7320 S.o2      1 C62         0.0647
      3 O3          5.7300   -9.3600    8.2290 O.2       1 C62        -0.1508
      4 N6          7.4760   -9.4520    6.3660 N.am      1 C62        -0.2612
      5 C16         8.1490  -10.1720    8.9860 C.ar      1 C62         0.1053
      6 C15         9.1570   -9.2210    8.9690 C.ar      1 C62        -0.0373
      7 C14        10.1260   -9.2180    9.9640 C.ar      1 C62        -0.0526
      8 C13        10.0950  -10.1700   10.9880 C.ar      1 C62         0.0107
      9 C18         9.0770  -11.1160   11.0280 C.ar      1 C62        -0.0526
     10 C17         8.0970  -11.1200   10.0250 C.ar      1 C62        -0.0373
     11 C4         11.1330  -10.1420   12.0130 C.2       1 C62         0.1227
     12 O2         12.2860   -9.4300   11.9350 O.3       1 C62        -0.2561
     13 C3         11.1140  -10.7680   13.2160 C.2       1 C62        -0.0483
     14 C2         12.2570  -10.4320   13.8540 C.2       1 C62        -0.0496
     15 C1         12.9620   -9.5880   13.0320 C.2       1 C62         0.1144
     16 C6         14.2460   -8.9760   13.3250 C.2       1 C62        -0.0014
     17 C7         14.6760   -7.8310   12.6130 C.2       1 C62         0.1150
     18 S1         13.7070   -6.9050   11.5770 S.3       1 C62         0.0395
     19 C9         14.9500   -5.8580   11.2450 C.2       1 C62         0.2813
     20 N2         16.0930   -6.1880   11.9120 N.am      1 C62        -0.1889
     21 C8         15.9580   -7.3060   12.6900 C.2       1 C62         0.2406
     22 O1         16.8650   -7.7910   13.3690 O.2       1 C62        -0.3779
     23 O5         14.8490   -4.8900   10.4880 O.2       1 C62        -0.3708
     24 H1          8.2619   -9.8544    5.8965 H         1 C62         0.1634
     25 H2          7.0461   -8.6253    6.0029 H         1 C62         0.1634
     26 H3          9.1891   -8.4794    8.1790 H         1 C62         0.0630
     27 H4         10.9123   -8.4720    9.9467 H         1 C62         0.0603
     28 H5          9.0411  -11.8455   11.8290 H         1 C62         0.0603
     29 H6          7.2992  -11.8534   10.0499 H         1 C62         0.0630
     30 H7         10.3271  -11.4180   13.5957 H         1 C62         0.0415
     31 H8         12.5638  -10.7700   14.8427 H         1 C62         0.0409
     32 H9         14.8831   -9.4016   14.0989 H         1 C62         0.0600
     33 H10        16.9431   -5.6663   11.8400 H         1 C62         0.2252
@<TRIPOS>BOND
     1    1    2 2  
     2    2    3 2  
     3    2    4 am 
     4    2    5 1  
     5    5    6 ar 
     6    5   10 ar 
     7    6    7 ar 
     8    7    8 ar 
     9    8    9 ar 
    10    8   11 1  
    11    9   10 ar 
    12   11   12 1  
    13   11   13 2  
    14   12   15 1  
    15   13   14 1  
    16   14   15 2  
    17   15   16 1  
    18   16   17 2  
    19   17   18 1  
    20   17   21 1  
    21   18   19 1  
    22   19   20 am 
    23   19   23 2  
    24   20   21 am 
    25   21   22 2  
    26    4   24 1  
    27    4   25 1  
    28    6   26 1  
    29    7   27 1  
    30    9   28 1  
    31   10   29 1  
    32   13   30 1  
    33   14   31 1  
    34   16   32 1  
    35   20   33 1  
@<TRIPOS>SUBSTRUCTURE
     1 C62         1

