### 
### Created by X-TOOL on Mon Sep 10 21:12:56 2018
### 

@<TRIPOS>MOLECULE
2uzv_ligand
   70    74     1     0     0
SMALL
GAST_HUCK


@<TRIPOS>ATOM
      1 C1         15.8390    7.8210    2.6620 C.ar      1 SS5        -0.0465
      2 C2         16.0990    6.5570    3.2560 C.ar      1 SS5        -0.0712
      3 C3         17.1640    6.4120    4.1710 C.ar      1 SS5        -0.0772
      4 C4         17.9860    7.5360    4.5020 C.ar      1 SS5        -0.0401
      5 C5         17.7320    8.8240    3.9050 C.ar      1 SS5         0.0844
      6 C6         16.6610    8.9280    3.0000 C.ar      1 SS5        -0.0320
      7 C7         14.7300    8.0470    1.6700 C.3       1 SS5         0.0240
      8 O8         18.4530   10.0330    4.1220 O.3       1 SS5        -0.3195
      9 C9         13.3670    8.3610    2.2770 C.3       1 SS5         0.0135
     10 C10        12.3820    8.6650    1.1510 C.3       1 SS5         0.1164
     11 O11        11.1130    9.0080    1.6850 O.3       1 SS5        -0.3048
     12 N12        12.8660    7.2070    3.0130 N.4       1 SS5         0.2241
     13 C13        10.1090    9.3610    0.7670 C.ar      1 SS5         0.1190
     14 C14        10.3140    9.6830   -0.6150 C.ar      1 SS5         0.0391
     15 N15         9.2920   10.0160   -1.4290 N.ar      1 SS5        -0.3066
     16 C16         8.0170   10.0520   -0.9430 C.ar      1 SS5         0.0072
     17 C17         7.7000    9.7550    0.4060 C.ar      1 SS5         0.0004
     18 C18         8.7860    9.4100    1.2430 C.ar      1 SS5        -0.0068
     19 C19         5.1790    9.5660    0.0360 C.ar      1 SS5        -0.0528
     20 C20         3.8350    9.5690    0.4860 C.ar      1 SS5        -0.0618
     21 C21         3.5590    9.7880    1.8270 C.ar      1 SS5        -0.0369
     22 C22         4.6400   10.0180    2.7730 C.ar      1 SS5         0.0502
     23 C23         5.9640   10.0140    2.3130 C.ar      1 SS5        -0.0331
     24 C24         6.2750    9.7850    0.9210 C.ar      1 SS5        -0.0121
     25 N25         2.4360    9.8550    2.5940 N.2       1 SS5        -0.3955
     26 N26         2.7140   10.0970    3.8830 N.pl3     1 SS5        -0.2570
     27 C27         4.0270   10.2120    4.0830 C.2       1 SS5         0.1388
     28 C28         4.6560   10.4840    5.4310 C.3       1 SS5         0.0342
     29 C29        19.5570   10.0170    5.0160 C.3       1 SS5         0.0731
     30 C30        20.2370   11.4000    5.1820 C.3       1 SS5        -0.0132
     31 C31        21.5490   11.5040    4.3630 C.3       1 SS5        -0.0478
     32 C32        22.2310   12.8840    4.5410 C.3       1 SS5        -0.0527
     33 C33        21.2700   14.0560    4.2160 C.3       1 SS5        -0.0530
     34 C34        19.9310   13.9550    4.9800 C.3       1 SS5        -0.0527
     35 C35        19.2740   12.5690    4.8040 C.3       1 SS5        -0.0478
     36 H          15.4758    5.6987    3.0051 H         1 SS5         0.0464
     37 H          17.3609    5.4416    4.6267 H         1 SS5         0.0572
     38 H          18.8076    7.4180    5.2084 H         1 SS5         0.0486
     39 H          16.4541    9.8947    2.5408 H         1 SS5         0.0478
     40 H          14.6165    7.1178    1.1116 H         1 SS5         0.0480
     41 H          15.0147    8.9154    1.0760 H         1 SS5         0.0480
     42 H          13.4683    9.2127    2.9497 H         1 SS5         0.0901
     43 H          12.2761    7.7806    0.5228 H         1 SS5         0.0675
     44 H          12.7595    9.5030    0.5650 H         1 SS5         0.0675
     45 H          11.9548    7.4301    3.4135 H         1 SS5         0.1999
     46 H          12.7748    6.4138    2.3782 H         1 SS5         0.1999
     47 H          13.5191    6.9723    3.7606 H         1 SS5         0.1999
     48 H          11.3258    9.6579   -1.0195 H         1 SS5         0.0746
     49 H           7.2076   10.3208   -1.6218 H         1 SS5         0.0736
     50 H           8.5922    9.1747    2.2895 H         1 SS5         0.0660
     51 H           5.3811    9.3906   -1.0206 H         1 SS5         0.0632
     52 H           3.0215    9.3998   -0.2195 H         1 SS5         0.0617
     53 H           6.7754   10.1872    3.0199 H         1 SS5         0.0647
     54 H           2.0108   10.1822    4.6169 H         1 SS5         0.2720
     55 H           5.3235    9.6626    5.6914 H         1 SS5         0.0591
     56 H           5.2229   11.4139    5.3850 H         1 SS5         0.0591
     57 H           3.8735   10.5709    6.1848 H         1 SS5         0.0591
     58 H          20.3005    9.3330    4.6068 H         1 SS5         0.0616
     59 H          19.1824    9.7162    5.9944 H         1 SS5         0.0616
     60 H          20.4889   11.4918    6.2385 H         1 SS5         0.0327
     61 H          21.3055   11.3758    3.3083 H         1 SS5         0.0269
     62 H          22.2354   10.7346    4.7166 H         1 SS5         0.0269
     63 H          23.0758   12.9367    3.8542 H         1 SS5         0.0265
     64 H          22.5417   12.9778    5.5815 H         1 SS5         0.0265
     65 H          21.0507   14.0241    3.1488 H         1 SS5         0.0265
     66 H          21.7583   14.9833    4.5157 H         1 SS5         0.0265
     67 H          19.2518   14.7092    4.5825 H         1 SS5         0.0265
     68 H          20.1293   14.1081    6.0408 H         1 SS5         0.0265
     69 H          18.4090   12.5200    5.4654 H         1 SS5         0.0269
     70 H          19.0027   12.4558    3.7544 H         1 SS5         0.0269
@<TRIPOS>BOND
     1    1    2 ar 
     2    1    6 ar 
     3    7    1 1  
     4    2    3 ar 
     5    3    4 ar 
     6    5    4 ar 
     7    6    5 ar 
     8    5    8 1  
     9    9    7 1  
    10    8   29 1  
    11   10    9 1  
    12    9   12 1  
    13   11   10 1  
    14   13   11 1  
    15   13   14 ar 
    16   18   13 ar 
    17   15   14 ar 
    18   16   15 ar 
    19   17   16 ar 
    20   17   18 ar 
    21   24   17 1  
    22   19   20 ar 
    23   19   24 ar 
    24   20   21 ar 
    25   21   22 ar 
    26   21   25 2  
    27   22   23 ar 
    28   22   27 2  
    29   23   24 ar 
    30   25   26 1  
    31   26   27 1  
    32   27   28 1  
    33   29   30 1  
    34   30   31 1  
    35   30   35 1  
    36   31   32 1  
    37   32   33 1  
    38   33   34 1  
    39   34   35 1  
    40    2   36 1  
    41    3   37 1  
    42    4   38 1  
    43    6   39 1  
    44    7   40 1  
    45    7   41 1  
    46    9   42 1  
    47   10   43 1  
    48   10   44 1  
    49   12   45 1  
    50   12   46 1  
    51   12   47 1  
    52   14   48 1  
    53   16   49 1  
    54   18   50 1  
    55   19   51 1  
    56   20   52 1  
    57   23   53 1  
    58   26   54 1  
    59   28   55 1  
    60   28   56 1  
    61   28   57 1  
    62   29   58 1  
    63   29   59 1  
    64   30   60 1  
    65   31   61 1  
    66   31   62 1  
    67   32   63 1  
    68   32   64 1  
    69   33   65 1  
    70   33   66 1  
    71   34   67 1  
    72   34   68 1  
    73   35   69 1  
    74   35   70 1  
@<TRIPOS>SUBSTRUCTURE
     1 SS5         1

