### 
### Created by X-TOOL on Mon Sep 10 21:12:55 2018
### 

@<TRIPOS>MOLECULE
2v00_ligand
   29    30     1     0     0
SMALL
GAST_HUCK


@<TRIPOS>ATOM
      1 N1         -0.1850    5.8160    9.0300 N.am      1 V15        -0.1828
      2 C2          0.7630    4.9060    9.4190 C.2       1 V15         0.2430
      3 C3         -1.4590    5.6870    9.4980 C.2       1 V15         0.1868
      4 C4         -1.7870    4.5980   10.3450 C.2       1 V15        -0.0134
      5 C5         -0.7950    3.7090   10.6850 C.2       1 V15        -0.0129
      6 N6          0.4490    3.9140   10.2220 N.2       1 V15        -0.2880
      7 C8         -2.9240    0.3220   10.5550 C.ar      1 V15        -0.0601
      8 C9         -3.7390   -0.2850    9.6130 C.ar      1 V15        -0.0686
      9 C10        -4.9320    0.3280    9.2390 C.ar      1 V15        -0.0687
     10 C11        -5.3010    1.5450    9.7980 C.ar      1 V15        -0.0686
     11 C12        -4.4790    2.1540   10.7390 C.ar      1 V15        -0.0601
     12 N14         2.0730    5.0420    9.0150 N.pl3     1 V15        -0.2764
     13 C15        -1.0030    2.5100   11.5770 C.3       1 V15         0.0000
     14 C7         -3.2810    1.5500   11.1110 C.ar      1 V15        -0.0405
     15 C16        -2.4140    2.2460   12.1290 C.3       1 V15        -0.0061
     16 O15        -2.3150    6.5040    9.1830 O.2       1 V15        -0.4228
     17 H1          0.0544    6.5643    8.4114 H         1 V15         0.2550
     18 H2         -2.8020    4.4688   10.7178 H         1 V15         0.0229
     19 H3         -2.0031   -0.1608   10.8616 H         1 V15         0.0557
     20 H4         -3.4497   -1.2311    9.1700 H         1 V15         0.0599
     21 H5         -5.5761   -0.1469    8.5078 H         1 V15         0.0559
     22 H6         -6.2292    2.0193    9.5006 H         1 V15         0.0599
     23 H7         -4.7706    3.0989   11.1831 H         1 V15         0.0557
     24 H8          2.7780    4.3527    9.3128 H         1 V15         0.1918
     25 H9          2.3475    5.8330    8.4151 H         1 V15         0.1918
     26 H10        -0.3323    2.6269   12.4410 H         1 V15         0.0499
     27 H11        -0.7074    1.6207   11.0010 H         1 V15         0.0499
     28 H12        -2.8785    3.2061   12.3983 H         1 V15         0.0454
     29 H13        -2.3352    1.6127   13.0249 H         1 V15         0.0454
@<TRIPOS>BOND
     1    2    1 am 
     2    3    1 am 
     3    6    2 2  
     4    2   12 1  
     5    4    3 1  
     6    3   16 2  
     7    5    4 2  
     8    5    6 1  
     9   13    5 1  
    10    7    8 ar 
    11   14    7 ar 
    12    8    9 ar 
    13   10    9 ar 
    14   11   10 ar 
    15   14   11 ar 
    16   15   13 1  
    17   14   15 1  
    18    1   17 1  
    19    4   18 1  
    20    7   19 1  
    21    8   20 1  
    22    9   21 1  
    23   10   22 1  
    24   11   23 1  
    25   12   24 1  
    26   12   25 1  
    27   13   26 1  
    28   13   27 1  
    29   15   28 1  
    30   15   29 1  
@<TRIPOS>SUBSTRUCTURE
     1 V15         1

