### 
### Created by X-TOOL on Mon Sep 10 21:12:56 2018
### 

@<TRIPOS>MOLECULE
2v0z_ligand
   93    93     1     0     0
SMALL
GAST_HUCK


@<TRIPOS>ATOM
      1 C1         15.0150   42.2060   70.2320 C.3       1 C41         0.0364
      2 O2         15.4670   43.5420   70.3270 O.3       1 C41        -0.3829
      3 C3         14.5690   44.3930   69.5720 C.3       1 C41         0.0497
      4 C4         14.2460   45.6780   70.3420 C.3       1 C41        -0.0019
      5 C5         13.7670   45.3640   71.7650 C.3       1 C41         0.0699
      6 O6         13.5730   46.5520   72.5430 O.3       1 C41        -0.3233
      7 C7         12.4480   47.3610   72.3100 C.ar      1 C41         0.1135
      8 C8         11.3440   46.9530   71.6000 C.ar      1 C41        -0.0398
      9 C9         10.2990   47.8670   71.4030 C.ar      1 C41        -0.0623
     10 C10        10.3860   49.1860   71.9330 C.ar      1 C41        -0.0801
     11 C11        11.4920   49.5980   72.6540 C.ar      1 C41        -0.0479
     12 C12        12.5320   48.6720   72.8450 C.ar      1 C41         0.1122
     13 O13        13.7160   48.9420   73.5900 O.3       1 C41        -0.3294
     14 C14        13.9310   50.2470   74.1580 C.3       1 C41         0.0554
     15 C15         9.0560   47.4570   70.6110 C.3       1 C41        -0.0234
     16 C16         9.3830   46.9610   69.1900 C.3       1 C41        -0.0254
     17 C17        10.2440   48.0040   68.4170 C.3       1 C41        -0.0421
     18 C18        10.7340   47.4340   67.0790 C.3       1 C41        -0.0623
     19 C19         9.4810   49.3390   68.2340 C.3       1 C41        -0.0623
     20 C20         8.0620   46.6810   68.4600 C.3       1 C41        -0.0027
     21 C21         7.2830   45.4640   68.9730 C.3       1 C41         0.0027
     22 N22         8.1090   44.2510   68.7700 N.4       1 C41         0.2226
     23 C23         5.9490   45.3180   68.2140 C.3       1 C41         0.0999
     24 O24         6.2230   44.8010   66.9080 O.3       1 C41        -0.3861
     25 C25         4.9930   44.3330   68.9230 C.3       1 C41        -0.0016
     26 C26         3.6730   44.0650   68.1510 C.3       1 C41         0.0534
     27 C27         2.6600   43.2060   68.9760 C.3       1 C41        -0.0269
     28 C28         1.3860   42.9090   68.1490 C.3       1 C41        -0.0603
     29 C29         3.2960   41.8970   69.4400 C.3       1 C41        -0.0603
     30 C30         3.0420   45.3990   67.7650 C.2       1 C41         0.1793
     31 O31         2.7040   46.2240   68.6280 O.2       1 C41        -0.3968
     32 N32         2.9320   45.6220   66.4630 N.am      1 C41        -0.2873
     33 C33         2.4060   46.8560   65.8820 C.3       1 C41         0.0429
     34 C34         1.1490   46.6710   65.0450 C.3       1 C41         0.0654
     35 C35         1.3890   45.6960   63.8770 C.3       1 C41        -0.0513
     36 C36         0.7810   48.0300   64.4790 C.3       1 C41        -0.0513
     37 C37         0.1120   46.2500   65.9150 C.2       1 C41         0.2007
     38 O38        -0.3810   45.1300   65.7570 O.2       1 C41        -0.3445
     39 N39        -0.2300   47.0350   66.9330 N.am      1 C41        -0.2997
     40 H1         15.6892   41.5495   70.8017 H         1 C41         0.0523
     41 H2         15.0066   41.8959   69.1767 H         1 C41         0.0523
     42 H3         13.9976   42.1329   70.6438 H         1 C41         0.0523
     43 H4         13.6344   43.8462   69.3782 H         1 C41         0.0560
     44 H5         15.0442   44.6574   68.6158 H         1 C41         0.0560
     45 H6         13.4550   46.2265   69.8097 H         1 C41         0.0313
     46 H7         15.1509   46.3009   70.3969 H         1 C41         0.0313
     47 H8         14.5195   44.7338   72.2616 H         1 C41         0.0610
     48 H9         12.8133   44.8190   71.7061 H         1 C41         0.0610
     49 H10        11.2826   45.9469   71.2012 H         1 C41         0.0450
     50 H11         9.5699   49.8802   71.7682 H         1 C41         0.0436
     51 H12        11.5547   50.6018   73.0584 H         1 C41         0.0493
     52 H13        14.8925   50.2605   74.6921 H         1 C41         0.0570
     53 H14        13.1177   50.4794   74.8612 H         1 C41         0.0570
     54 H15        13.9472   50.9984   73.3548 H         1 C41         0.0570
     55 H16         8.3875   48.3270   70.5331 H         1 C41         0.0407
     56 H17         8.5447   46.6491   71.1550 H         1 C41         0.0407
     57 H18         9.9555   46.0245   69.2620 H         1 C41         0.0325
     58 H19        11.1334   48.2165   69.0284 H         1 C41         0.0300
     59 H20        11.3376   48.1911   66.5570 H         1 C41         0.0232
     60 H21         9.8683   47.1627   66.4570 H         1 C41         0.0232
     61 H22        11.3473   46.5398   67.2640 H         1 C41         0.0232
     62 H23         9.1496   49.7094   69.2153 H         1 C41         0.0232
     63 H24         8.6051   49.1753   67.5890 H         1 C41         0.0232
     64 H25        10.1462   50.0806   67.7678 H         1 C41         0.0232
     65 H26         8.2882   46.5175   67.3960 H         1 C41         0.0325
     66 H27         7.4190   47.5671   68.5662 H         1 C41         0.0325
     67 H28         7.0751   45.5908   70.0457 H         1 C41         0.0876
     68 H29         7.6071   43.4430   69.1038 H         1 C41         0.1998
     69 H30         8.9734   44.3439   69.2801 H         1 C41         0.1998
     70 H31         8.3084   44.1407   67.7881 H         1 C41         0.1998
     71 H32         5.4661   46.3032   68.1357 H         1 C41         0.0651
     72 H33         6.7959   45.4009   66.4449 H         1 C41         0.2100
     73 H34         4.7382   44.7482   69.9092 H         1 C41         0.0319
     74 H35         5.5179   43.3751   69.0529 H         1 C41         0.0319
     75 H36         3.9180   43.5121   67.2322 H         1 C41         0.0541
     76 H37         2.3684   43.7827   69.8661 H         1 C41         0.0322
     77 H38         0.6910   42.3047   68.7505 H         1 C41         0.0234
     78 H39         1.6603   42.3551   67.2391 H         1 C41         0.0234
     79 H40         0.9011   43.8560   67.8696 H         1 C41         0.0234
     80 H41         4.2002   42.1165   70.0267 H         1 C41         0.0234
     81 H42         3.5661   41.2896   68.5636 H         1 C41         0.0234
     82 H43         2.5798   41.3423   70.0640 H         1 C41         0.0234
     83 H44         3.2279   44.8996   65.8380 H         1 C41         0.1849
     84 H45         3.1851   47.2936   65.2405 H         1 C41         0.0511
     85 H46         2.1737   47.5508   66.7025 H         1 C41         0.0511
     86 H47         0.4622   45.5861   63.2948 H         1 C41         0.0222
     87 H48         1.6910   44.7156   64.2739 H         1 C41         0.0222
     88 H49         2.1851   46.0900   63.2281 H         1 C41         0.0222
     89 H50         0.6069   48.7360   65.3044 H         1 C41         0.0222
     90 H51        -0.1336   47.9400   63.8745 H         1 C41         0.0222
     91 H52         1.6029   48.3992   63.8480 H         1 C41         0.0222
     92 H53        -0.9592   46.7549   67.5574 H         1 C41         0.1820
     93 H54         0.2421   47.9052   67.0739 H         1 C41         0.1820
@<TRIPOS>BOND
     1    1    2 1  
     2    2    3 1  
     3    3    4 1  
     4    4    5 1  
     5    5    6 1  
     6    6    7 1  
     7    7    8 ar 
     8    7   12 ar 
     9    8    9 ar 
    10    9   10 ar 
    11    9   15 1  
    12   10   11 ar 
    13   11   12 ar 
    14   12   13 1  
    15   13   14 1  
    16   15   16 1  
    17   16   17 1  
    18   16   20 1  
    19   17   18 1  
    20   17   19 1  
    21   20   21 1  
    22   21   22 1  
    23   21   23 1  
    24   23   24 1  
    25   23   25 1  
    26   25   26 1  
    27   26   27 1  
    28   26   30 1  
    29   27   28 1  
    30   27   29 1  
    31   30   31 2  
    32   30   32 am 
    33   32   33 1  
    34   33   34 1  
    35   34   35 1  
    36   34   36 1  
    37   34   37 1  
    38   37   38 2  
    39   37   39 am 
    40    1   40 1  
    41    1   41 1  
    42    1   42 1  
    43    3   43 1  
    44    3   44 1  
    45    4   45 1  
    46    4   46 1  
    47    5   47 1  
    48    5   48 1  
    49    8   49 1  
    50   10   50 1  
    51   11   51 1  
    52   14   52 1  
    53   14   53 1  
    54   14   54 1  
    55   15   55 1  
    56   15   56 1  
    57   16   57 1  
    58   17   58 1  
    59   18   59 1  
    60   18   60 1  
    61   18   61 1  
    62   19   62 1  
    63   19   63 1  
    64   19   64 1  
    65   20   65 1  
    66   20   66 1  
    67   21   67 1  
    68   22   68 1  
    69   22   69 1  
    70   22   70 1  
    71   23   71 1  
    72   24   72 1  
    73   25   73 1  
    74   25   74 1  
    75   26   75 1  
    76   27   76 1  
    77   28   77 1  
    78   28   78 1  
    79   28   79 1  
    80   29   80 1  
    81   29   81 1  
    82   29   82 1  
    83   32   83 1  
    84   33   84 1  
    85   33   85 1  
    86   35   86 1  
    87   35   87 1  
    88   35   88 1  
    89   36   89 1  
    90   36   90 1  
    91   36   91 1  
    92   39   92 1  
    93   39   93 1  
@<TRIPOS>SUBSTRUCTURE
     1 C41         1

