### 
### Created by X-TOOL on Mon Sep 10 21:12:56 2018
### 

@<TRIPOS>MOLECULE
2v10_ligand
   81    81     1     0     0
SMALL
GAST_HUCK


@<TRIPOS>ATOM
      1 C2         15.8790   43.9080   69.8030 C.3       1 C61         0.0364
      2 O3         15.9160   45.0720   70.5930 O.3       1 C61        -0.3829
      3 C4         14.5790   45.5250   70.7430 C.3       1 C61         0.0497
      4 C5         14.4880   46.3440   72.0490 C.3       1 C61        -0.0019
      5 C6         13.2840   47.2610   71.9710 C.3       1 C61         0.0699
      6 O7         13.2370   48.1260   73.0990 O.3       1 C61        -0.3233
      7 O8         13.2170   50.5430   74.6170 O.3       1 C61        -0.3294
      8 C9         12.9850   50.8150   76.0330 C.3       1 C61         0.0554
      9 C10        11.1500   48.8150   72.0110 C.ar      1 C61        -0.0398
     10 C11        12.1830   49.0900   72.9270 C.ar      1 C61         0.1135
     11 C12        12.1670   50.2660   73.6800 C.ar      1 C61         0.1122
     12 C13        11.1220   51.1730   73.5130 C.ar      1 C61        -0.0479
     13 C14        10.0940   50.9030   72.5870 C.ar      1 C61        -0.0801
     14 C15        10.1070   49.7130   71.8460 C.ar      1 C61        -0.0623
     15 C16         9.0290   49.3830   70.8280 C.3       1 C61        -0.0234
     16 C17         9.7250   48.8990   69.5560 C.3       1 C61        -0.0254
     17 C18        10.1090   50.1360   68.7190 C.3       1 C61        -0.0421
     18 C19        10.7610   49.6390   67.6240 C.3       1 C61        -0.0623
     19 C20         8.8630   50.8840   68.3510 C.3       1 C61        -0.0623
     20 C21         8.7830   47.9670   68.8090 C.3       1 C61        -0.0027
     21 C22         7.9910   47.1110   69.8190 C.3       1 C61         0.0027
     22 N23         8.8850   46.1350   70.4350 N.4       1 C61         0.2226
     23 C24         6.8440   46.3770   69.0900 C.3       1 C61         0.0999
     24 O25         7.3560   45.4270   68.1170 O.3       1 C61        -0.3861
     25 C26         5.9280   45.6420   70.0680 C.3       1 C61        -0.0016
     26 C27         5.0050   44.7760   69.2370 C.3       1 C61         0.0541
     27 C28         4.2640   43.6990   70.1740 C.3       1 C61        -0.0448
     28 C29         3.8940   45.5660   68.5060 C.2       1 C61         0.2043
     29 O30         3.0710   46.2540   69.1210 O.2       1 C61        -0.3852
     30 N31         3.8460   45.4150   67.1940 N.am      1 C61        -0.2507
     31 C32         2.8010   45.9830   66.3790 C.2       1 C61         0.0091
     32 C33         2.6410   47.4500   66.3660 C.2       1 C61        -0.0939
     33 C34         1.5180   47.8620   65.3930 C.3       1 C61        -0.0509
     34 C35         1.8600   49.1950   64.6810 C.3       1 C61        -0.0625
     35 H1         16.9013   43.5263   69.6645 H         1 C61         0.0523
     36 H2         15.4398   44.1441   68.8225 H         1 C61         0.0523
     37 H3         15.2671   43.1438   70.3045 H         1 C61         0.0523
     38 H4         13.8980   44.6628   70.7965 H         1 C61         0.0560
     39 H5         14.3026   46.1581   69.8870 H         1 C61         0.0560
     40 H6         15.4016   46.9440   72.1729 H         1 C61         0.0313
     41 H7         14.3780   45.6624   72.9053 H         1 C61         0.0313
     42 H8         12.3679   46.6527   71.9441 H         1 C61         0.0610
     43 H9         13.3496   47.8659   71.0546 H         1 C61         0.0610
     44 H10        13.9474   50.9955   76.5342 H         1 C61         0.0570
     45 H11        12.4872   49.9501   76.4958 H         1 C61         0.0570
     46 H12        12.3458   51.7043   76.1356 H         1 C61         0.0570
     47 H13        11.1703   47.8982   71.4329 H         1 C61         0.0450
     48 H14        11.0997   52.0868   74.0957 H         1 C61         0.0493
     49 H15         9.2910   51.6177   72.4475 H         1 C61         0.0436
     50 H16         8.4318   50.2807   70.6100 H         1 C61         0.0407
     51 H17         8.3726   48.5922   71.2201 H         1 C61         0.0407
     52 H18        10.6388   48.3463   69.8194 H         1 C61         0.0325
     53 H19        10.7772   50.7995   69.2875 H         1 C61         0.0300
     54 H20        11.0693   50.4699   66.9724 H         1 C61         0.0232
     55 H21        10.0880   48.9685   67.0695 H         1 C61         0.0232
     56 H22        11.6501   49.0790   67.9495 H         1 C61         0.0232
     57 H23         8.3788   51.2613   69.2638 H         1 C61         0.0232
     58 H24         8.1733   50.2099   67.8220 H         1 C61         0.0232
     59 H25         9.1226   51.7298   67.6973 H         1 C61         0.0232
     60 H26         9.3670   47.3080   68.1497 H         1 C61         0.0325
     61 H27         8.0822   48.5622   68.2052 H         1 C61         0.0325
     62 H28         7.5693   47.7627   70.5984 H         1 C61         0.0876
     63 H29         8.3680   45.5754   71.0950 H         1 C61         0.1998
     64 H30         9.6298   46.6168   70.9138 H         1 C61         0.1998
     65 H31         9.2745   45.5388   69.7216 H         1 C61         0.1998
     66 H32         6.2463   47.1313   68.5572 H         1 C61         0.0651
     67 H33         7.8784   45.8876   67.4709 H         1 C61         0.2100
     68 H34         5.3424   46.3651   70.6546 H         1 C61         0.0319
     69 H35         6.5245   45.0158   70.7478 H         1 C61         0.0319
     70 H36         5.6151   44.2508   68.4873 H         1 C61         0.0541
     71 H37         3.5968   43.0762   69.5599 H         1 C61         0.0257
     72 H38         3.6739   44.2237   70.9398 H         1 C61         0.0257
     73 H39         5.0144   43.0605   70.6630 H         1 C61         0.0257
     74 H40         4.5657   44.8837   66.7471 H         1 C61         0.2237
     75 H41         2.1459   45.3451   65.7875 H         1 C61         0.0798
     76 H42         3.2331   48.1443   66.9603 H         1 C61         0.0216
     77 H43         0.5814   47.9854   65.9565 H         1 C61         0.0330
     78 H44         1.3899   47.0733   64.6371 H         1 C61         0.0330
     79 H45         1.0436   49.4641   63.9947 H         1 C61         0.0243
     80 H46         2.7938   49.0776   64.1117 H         1 C61         0.0243
     81 H47         1.9853   49.9897   65.4311 H         1 C61         0.0243
@<TRIPOS>BOND
     1    2    1 1  
     2    3    2 1  
     3    4    3 1  
     4    5    4 1  
     5    6    5 1  
     6   10    6 1  
     7    7    8 1  
     8   11    7 1  
     9   10    9 ar 
    10    9   14 ar 
    11   10   11 ar 
    12   11   12 ar 
    13   12   13 ar 
    14   13   14 ar 
    15   14   15 1  
    16   15   16 1  
    17   16   17 1  
    18   16   20 1  
    19   17   18 1  
    20   17   19 1  
    21   20   21 1  
    22   21   22 1  
    23   21   23 1  
    24   23   24 1  
    25   23   25 1  
    26   25   26 1  
    27   26   27 1  
    28   26   28 1  
    29   28   29 2  
    30   28   30 am 
    31   30   31 1  
    32   31   32 2  
    33   32   33 1  
    34   33   34 1  
    35    1   35 1  
    36    1   36 1  
    37    1   37 1  
    38    3   38 1  
    39    3   39 1  
    40    4   40 1  
    41    4   41 1  
    42    5   42 1  
    43    5   43 1  
    44    8   44 1  
    45    8   45 1  
    46    8   46 1  
    47    9   47 1  
    48   12   48 1  
    49   13   49 1  
    50   15   50 1  
    51   15   51 1  
    52   16   52 1  
    53   17   53 1  
    54   18   54 1  
    55   18   55 1  
    56   18   56 1  
    57   19   57 1  
    58   19   58 1  
    59   19   59 1  
    60   20   60 1  
    61   20   61 1  
    62   21   62 1  
    63   22   63 1  
    64   22   64 1  
    65   22   65 1  
    66   23   66 1  
    67   24   67 1  
    68   25   68 1  
    69   25   69 1  
    70   26   70 1  
    71   27   71 1  
    72   27   72 1  
    73   27   73 1  
    74   30   74 1  
    75   31   75 1  
    76   32   76 1  
    77   33   77 1  
    78   33   78 1  
    79   34   79 1  
    80   34   80 1  
    81   34   81 1  
@<TRIPOS>SUBSTRUCTURE
     1 C61         1

