### 
### Created by X-TOOL on Mon Sep 10 21:12:56 2018
### 

@<TRIPOS>MOLECULE
2v11_ligand
   79    81     1     0     0
SMALL
GAST_HUCK


@<TRIPOS>ATOM
      1 C1         15.0980   46.6280   70.8630 C.ar      1 C80        -0.0577
      2 C2         15.6330   45.8010   69.8770 C.ar      1 C80        -0.0685
      3 C3         15.3530   44.4480   69.8410 C.ar      1 C80        -0.0687
      4 C4         14.5260   43.9220   70.8090 C.ar      1 C80        -0.0685
      5 C5         13.9920   44.7510   71.7950 C.ar      1 C80        -0.0577
      6 C6         14.2740   46.1030   71.8330 C.ar      1 C80        -0.0135
      7 C7         13.7260   46.9640   72.9610 C.3       1 C80         0.0884
      8 N8         12.8210   48.0430   72.5900 N.pl3     1 C80        -0.2440
      9 C16        11.8290   47.9420   71.7430 C.2       1 C80         0.0559
     10 C9         12.8690   49.2940   73.1280 C.ar      1 C80         0.0740
     11 C13        11.6110   51.3680   73.0890 C.ar      1 C80        -0.0729
     12 C14        11.7980   50.0680   72.6660 C.ar      1 C80        -0.0067
     13 C15        11.2070   49.1690   71.8180 C.2       1 C80         0.0628
     14 C10        13.7740   49.8320   74.0370 C.ar      1 C80        -0.0414
     15 C11        13.5850   51.1360   74.4660 C.ar      1 C80        -0.0756
     16 C12        12.5180   51.8890   73.9970 C.ar      1 C80        -0.0783
     17 C17        10.0360   49.6460   71.1980 C.2       1 C80         0.2360
     18 O18         9.1630   50.1370   71.9240 O.2       1 C80        -0.3761
     19 O19         9.8390   49.6510   69.9610 O.3       1 C80        -0.2828
     20 C20         9.7260   48.3690   69.3950 C.3       1 C80         0.0777
     21 C21         8.3020   48.0460   69.3880 C.3       1 C80        -0.0110
     22 C22         8.0580   48.1910   67.9210 C.3       1 C80        -0.0598
     23 C23         8.2130   46.6440   69.9150 C.3       1 C80        -0.0024
     24 C24         6.8700   45.9430   70.0740 C.3       1 C80         0.0026
     25 N25         7.0100   44.5790   70.5290 N.4       1 C80         0.2226
     26 C26         6.1410   45.8060   68.8060 C.3       1 C80         0.0998
     27 O27         6.9710   45.0670   67.9300 O.3       1 C80        -0.3861
     28 C28         4.7760   46.3900   68.5280 C.3       1 C80        -0.0021
     29 C29         3.6910   45.5860   67.8910 C.3       1 C80         0.0483
     30 C30         3.3020   44.4370   68.7760 C.3       1 C80        -0.0452
     31 C31         2.5390   46.5610   67.8030 C.2       1 C80         0.1789
     32 O32         1.8130   46.7350   68.7790 O.2       1 C80        -0.3968
     33 N33         2.3520   47.3480   66.7560 N.am      1 C80        -0.2867
     34 C34         1.7190   46.8670   65.5630 C.3       1 C80         0.0309
     35 C35         1.0820   48.0260   64.8790 C.3       1 C80        -0.0330
     36 C36         2.1650   48.9200   64.3010 C.3       1 C80        -0.0541
     37 C37         2.8290   48.3390   63.0020 C.3       1 C80        -0.0652
     38 H1         15.3311   47.6866   70.8662 H         1 C80         0.0557
     39 H2         16.2829   46.2282   69.1219 H         1 C80         0.0599
     40 H3         15.7746   43.8151   69.0685 H         1 C80         0.0559
     41 H4         14.2904   42.8639   70.8043 H         1 C80         0.0599
     42 H5         13.3405   44.3247   72.5492 H         1 C80         0.0557
     43 H6         14.5840   47.4148   73.4811 H         1 C80         0.0773
     44 H7         13.1855   46.3006   73.6522 H         1 C80         0.0773
     45 H8         11.5583   47.0881   71.1237 H         1 C80         0.1073
     46 H9         10.7815   51.9620   72.7227 H         1 C80         0.0538
     47 H10        14.6086   49.2442   74.4017 H         1 C80         0.0549
     48 H11        14.2783   51.5726   75.1758 H         1 C80         0.0533
     49 H12        12.3916   52.9066   74.3487 H         1 C80         0.0519
     50 H13        10.2795   47.6358   70.0000 H         1 C80         0.0613
     51 H14        10.1209   48.3701   68.3684 H         1 C80         0.0613
     52 H15         7.6780   48.7290   69.9831 H         1 C80         0.0325
     53 H16         7.0007   47.9803   67.7026 H         1 C80         0.0233
     54 H17         8.6943   47.4816   67.3716 H         1 C80         0.0233
     55 H18         8.2993   49.2178   67.6089 H         1 C80         0.0233
     56 H19         8.6781   46.6558   70.9118 H         1 C80         0.0324
     57 H20         8.8128   46.0181   69.2379 H         1 C80         0.0324
     58 H21         6.2668   46.5185   70.7916 H         1 C80         0.0876
     59 H22         6.0979   44.1594   70.6185 H         1 C80         0.1998
     60 H23         7.4735   44.5692   71.4240 H         1 C80         0.1998
     61 H24         7.5562   44.0567   69.8620 H         1 C80         0.1998
     62 H25         5.6367   44.8896   69.1465 H         1 C80         0.0651
     63 H26         7.7877   45.5345   67.7997 H         1 C80         0.2100
     64 H27         4.9394   47.2601   67.8752 H         1 C80         0.0319
     65 H28         4.3813   46.7279   69.4975 H         1 C80         0.0319
     66 H29         3.9908   45.2192   66.8983 H         1 C80         0.0536
     67 H30         2.5029   43.8560   68.2925 H         1 C80         0.0257
     68 H31         2.9420   44.8230   69.7411 H         1 C80         0.0257
     69 H32         4.1760   43.7903   68.9427 H         1 C80         0.0257
     70 H33         2.6588   48.2989   66.7977 H         1 C80         0.1851
     71 H34         0.9540   46.1201   65.8217 H         1 C80         0.0520
     72 H35         2.4691   46.4095   64.9012 H         1 C80         0.0520
     73 H36         0.4816   48.5963   65.6031 H         1 C80         0.0285
     74 H37         0.4324   47.6637   64.0686 H         1 C80         0.0285
     75 H38         2.9479   49.0550   65.0618 H         1 C80         0.0263
     76 H39         1.7183   49.8952   64.0574 H         1 C80         0.0263
     77 H40         3.5999   49.0358   62.6412 H         1 C80         0.0230
     78 H41         2.0614   48.2073   62.2252 H         1 C80         0.0230
     79 H42         3.2910   47.3670   63.2296 H         1 C80         0.0230
@<TRIPOS>BOND
     1    1    2 ar 
     2    1    6 ar 
     3    2    3 ar 
     4    3    4 ar 
     5    4    5 ar 
     6    5    6 ar 
     7    6    7 1  
     8    7    8 1  
     9    8    9 1  
    10    8   10 1  
    11    9   13 2  
    12   10   12 ar 
    13   10   14 ar 
    14   12   11 ar 
    15   11   16 ar 
    16   12   13 1  
    17   13   17 1  
    18   14   15 ar 
    19   15   16 ar 
    20   17   18 2  
    21   17   19 1  
    22   19   20 1  
    23   20   21 1  
    24   21   22 1  
    25   21   23 1  
    26   23   24 1  
    27   24   25 1  
    28   24   26 1  
    29   26   27 1  
    30   26   28 1  
    31   28   29 1  
    32   29   30 1  
    33   29   31 1  
    34   31   32 2  
    35   31   33 am 
    36   33   34 1  
    37   34   35 1  
    38   35   36 1  
    39   36   37 1  
    40    1   38 1  
    41    2   39 1  
    42    3   40 1  
    43    4   41 1  
    44    5   42 1  
    45    7   43 1  
    46    7   44 1  
    47    9   45 1  
    48   11   46 1  
    49   14   47 1  
    50   15   48 1  
    51   16   49 1  
    52   20   50 1  
    53   20   51 1  
    54   21   52 1  
    55   22   53 1  
    56   22   54 1  
    57   22   55 1  
    58   23   56 1  
    59   23   57 1  
    60   24   58 1  
    61   25   59 1  
    62   25   60 1  
    63   25   61 1  
    64   26   62 1  
    65   27   63 1  
    66   28   64 1  
    67   28   65 1  
    68   29   66 1  
    69   30   67 1  
    70   30   68 1  
    71   30   69 1  
    72   33   70 1  
    73   34   71 1  
    74   34   72 1  
    75   35   73 1  
    76   35   74 1  
    77   36   75 1  
    78   36   76 1  
    79   37   77 1  
    80   37   78 1  
    81   37   79 1  
@<TRIPOS>SUBSTRUCTURE
     1 C80         1

