### 
### Created by X-TOOL on Mon Sep 10 21:12:56 2018
### 

@<TRIPOS>MOLECULE
2v12_ligand
   83    83     1     0     0
SMALL
GAST_HUCK


@<TRIPOS>ATOM
      1 C1         15.5120   43.0430   70.2780 C.3       1 C39         0.0364
      2 O2         15.7370   44.3980   70.6010 O.3       1 C39        -0.3829
      3 C3         14.5810   45.1530   70.2710 C.3       1 C39         0.0498
      4 C4         13.8990   45.6740   71.5360 C.3       1 C39        -0.0013
      5 C5         13.6060   47.1680   71.4880 C.3       1 C39         0.0742
      6 O6         12.7030   47.5570   72.5150 O.3       1 C39        -0.3125
      7 C7         12.6810   48.8420   73.0370 C.ar      1 C39         0.1127
      8 C8         13.8730   49.2170   73.5950 C.ar      1 C39        -0.0268
      9 C9         14.0020   50.4830   74.0910 C.ar      1 C39        -0.0661
     10 C10        12.9530   51.3700   74.0240 C.ar      1 C39        -0.0671
     11 C11        11.7550   51.0270   73.4730 C.ar      1 C39        -0.0503
     12 C12        11.6170   49.7630   72.9910 C.ar      1 C39         0.0783
     13 C13        10.4590   49.4420   72.3170 C.2       1 C39         0.1993
     14 O14         9.3820   49.5780   72.8620 O.2       1 C39        -0.3909
     15 N15        10.5600   48.6870   71.2580 N.am      1 C39        -0.2877
     16 C16         9.4420   47.9010   70.8040 C.3       1 C39         0.0334
     17 C17         9.3920   47.9170   69.3100 C.3       1 C39        -0.0134
     18 C18         9.8000   49.2600   68.6800 C.3       1 C39        -0.0419
     19 C19        11.2950   49.4220   68.4040 C.3       1 C39        -0.0623
     20 C20         9.1750   50.5110   69.2950 C.3       1 C39        -0.0623
     21 C21         8.0000   47.6100   68.8320 C.3       1 C39        -0.0025
     22 C22         7.1500   46.4770   69.3220 C.3       1 C39         0.0026
     23 N23         7.9830   45.3270   69.5010 N.4       1 C39         0.2226
     24 C24         6.0900   46.0550   68.3240 C.3       1 C39         0.0998
     25 O25         6.7880   45.2180   67.4030 O.3       1 C39        -0.3861
     26 C26         4.9590   45.2790   68.9070 C.3       1 C39        -0.0021
     27 C27         3.7510   45.1450   68.0240 C.3       1 C39         0.0483
     28 C28         2.8100   44.1580   68.6530 C.3       1 C39        -0.0452
     29 C29         3.0170   46.4290   67.8480 C.2       1 C39         0.1789
     30 O30         3.1000   47.2770   68.7080 O.2       1 C39        -0.3968
     31 N31         2.2840   46.6730   66.8050 N.am      1 C39        -0.2867
     32 C32         2.4060   47.9420   66.1470 C.3       1 C39         0.0309
     33 C33         2.0210   47.7670   64.7100 C.3       1 C39        -0.0330
     34 C34         2.4030   48.9950   63.8990 C.3       1 C39        -0.0541
     35 C35         2.8940   48.6200   62.4640 C.3       1 C39        -0.0652
     36 H1         16.4048   42.4525   70.5316 H         1 C39         0.0523
     37 H2         15.3059   42.9520   69.2013 H         1 C39         0.0523
     38 H3         14.6500   42.6681   70.8493 H         1 C39         0.0523
     39 H4         13.8772   44.5134   69.7183 H         1 C39         0.0560
     40 H5         14.8739   46.0058   69.6410 H         1 C39         0.0560
     41 H6         14.5562   45.4741   72.3951 H         1 C39         0.0314
     42 H7         12.9489   45.1356   71.6680 H         1 C39         0.0314
     43 H8         13.1634   47.4139   70.5115 H         1 C39         0.0618
     44 H9         14.5486   47.7210   71.6131 H         1 C39         0.0618
     45 H10        14.7019   48.5201   73.6426 H         1 C39         0.0555
     46 H11        14.9387   50.7912   74.5411 H         1 C39         0.0625
     47 H12        13.0830   52.3703   74.4208 H         1 C39         0.0536
     48 H13        10.9387   51.7384   73.4206 H         1 C39         0.0640
     49 H14        11.4240   48.6536   70.7555 H         1 C39         0.1840
     50 H15         8.5096   48.3241   71.2061 H         1 C39         0.0522
     51 H16         9.5560   46.8649   71.1554 H         1 C39         0.0522
     52 H17        10.0788   47.1398   68.9435 H         1 C39         0.0325
     53 H18         9.3512   49.2125   67.6769 H         1 C39         0.0299
     54 H19        11.4803   50.4097   67.9566 H         1 C39         0.0232
     55 H20        11.6268   48.6366   67.7090 H         1 C39         0.0232
     56 H21        11.8535   49.3364   69.3478 H         1 C39         0.0232
     57 H22         8.1032   50.3368   69.4709 H         1 C39         0.0232
     58 H23         9.3004   51.3598   68.6067 H         1 C39         0.0232
     59 H24         9.6713   50.7371   70.2503 H         1 C39         0.0232
     60 H25         8.0900   47.4598   67.7460 H         1 C39         0.0324
     61 H26         7.4154   48.5207   69.0290 H         1 C39         0.0324
     62 H27         6.6747   46.7654   70.2712 H         1 C39         0.0876
     63 H28         7.4243   44.5555   69.8309 H         1 C39         0.1998
     64 H29         8.7016   45.5345   70.1767 H         1 C39         0.1998
     65 H30         8.4097   45.0810   68.6215 H         1 C39         0.1998
     66 H31         5.6855   46.9436   67.8173 H         1 C39         0.0651
     67 H32         7.4867   45.7141   66.9927 H         1 C39         0.2100
     68 H33         4.6472   45.7784   69.8362 H         1 C39         0.0319
     69 H34         5.3244   44.2677   69.1390 H         1 C39         0.0319
     70 H35         4.0712   44.7788   67.0374 H         1 C39         0.0536
     71 H36         1.9179   44.0468   68.0192 H         1 C39         0.0257
     72 H37         2.5103   44.5197   69.6477 H         1 C39         0.0257
     73 H38         3.3125   43.1846   68.7528 H         1 C39         0.0257
     74 H39         1.6426   45.9855   66.4645 H         1 C39         0.1851
     75 H40         3.4452   48.2965   66.2128 H         1 C39         0.0520
     76 H41         1.7379   48.6740   66.6243 H         1 C39         0.0520
     77 H42         0.9338   47.6139   64.6433 H         1 C39         0.0285
     78 H43         2.5408   46.8880   64.3011 H         1 C39         0.0285
     79 H44         3.2100   49.5290   64.4221 H         1 C39         0.0263
     80 H45         1.5244   49.6513   63.8133 H         1 C39         0.0263
     81 H46         3.1585   49.5363   61.9159 H         1 C39         0.0230
     82 H47         2.0918   48.0911   61.9285 H         1 C39         0.0230
     83 H48         3.7774   47.9687   62.5372 H         1 C39         0.0230
@<TRIPOS>BOND
     1    1    2 1  
     2    2    3 1  
     3    3    4 1  
     4    4    5 1  
     5    5    6 1  
     6    6    7 1  
     7    7    8 ar 
     8    7   12 ar 
     9    8    9 ar 
    10    9   10 ar 
    11   10   11 ar 
    12   11   12 ar 
    13   12   13 1  
    14   13   14 2  
    15   13   15 am 
    16   15   16 1  
    17   16   17 1  
    18   17   18 1  
    19   17   21 1  
    20   18   19 1  
    21   18   20 1  
    22   21   22 1  
    23   22   23 1  
    24   22   24 1  
    25   24   25 1  
    26   24   26 1  
    27   26   27 1  
    28   27   28 1  
    29   27   29 1  
    30   29   30 2  
    31   29   31 am 
    32   31   32 1  
    33   32   33 1  
    34   33   34 1  
    35   34   35 1  
    36    1   36 1  
    37    1   37 1  
    38    1   38 1  
    39    3   39 1  
    40    3   40 1  
    41    4   41 1  
    42    4   42 1  
    43    5   43 1  
    44    5   44 1  
    45    8   45 1  
    46    9   46 1  
    47   10   47 1  
    48   11   48 1  
    49   15   49 1  
    50   16   50 1  
    51   16   51 1  
    52   17   52 1  
    53   18   53 1  
    54   19   54 1  
    55   19   55 1  
    56   19   56 1  
    57   20   57 1  
    58   20   58 1  
    59   20   59 1  
    60   21   60 1  
    61   21   61 1  
    62   22   62 1  
    63   23   63 1  
    64   23   64 1  
    65   23   65 1  
    66   24   66 1  
    67   25   67 1  
    68   26   68 1  
    69   26   69 1  
    70   27   70 1  
    71   28   71 1  
    72   28   72 1  
    73   28   73 1  
    74   31   74 1  
    75   32   75 1  
    76   32   76 1  
    77   33   77 1  
    78   33   78 1  
    79   34   79 1  
    80   34   80 1  
    81   35   81 1  
    82   35   82 1  
    83   35   83 1  
@<TRIPOS>SUBSTRUCTURE
     1 C39         1

