### 
### Created by X-TOOL on Mon Sep 10 21:12:59 2018
### 

@<TRIPOS>MOLECULE
2v13_ligand
   77    77     1     0     0
SMALL
GAST_HUCK


@<TRIPOS>ATOM
      1 C1         86.2930   25.6350  -37.1600 C.3       1 C40         0.0364
      2 O2         85.7010   25.6730  -35.8710 O.3       1 C40        -0.3829
      3 C3         84.7080   24.6970  -36.0060 C.3       1 C40         0.0498
      4 C4         85.0570   23.5580  -35.0820 C.3       1 C40        -0.0013
      5 C5         83.6860   22.9810  -34.8030 C.3       1 C40         0.0742
      6 O6         83.7070   21.7090  -34.1790 O.3       1 C40        -0.3125
      7 C7         82.7110   21.3470  -33.2880 C.ar      1 C40         0.1127
      8 C8         82.6060   22.1810  -32.1870 C.ar      1 C40        -0.0268
      9 C9         81.5840   22.0740  -31.2900 C.ar      1 C40        -0.0661
     10 C10        80.6400   21.1290  -31.4950 C.ar      1 C40        -0.0671
     11 C11        80.7150   20.2900  -32.5850 C.ar      1 C40        -0.0503
     12 C12        81.7410   20.3720  -33.4870 C.ar      1 C40         0.0783
     13 C13        81.8070   19.4940  -34.5830 C.2       1 C40         0.1993
     14 O14        81.8310   18.2950  -34.3790 O.2       1 C40        -0.3909
     15 C16        82.9160   18.9620  -36.6150 C.3       1 C40         0.0329
     16 N15        82.2470   19.8980  -35.7450 N.am      1 C40        -0.2878
     17 C18        80.9610   19.8110  -38.0050 C.3       1 C40        -0.0604
     18 C17        82.4140   19.2530  -37.9850 C.3       1 C40        -0.0186
     19 C19        82.4300   17.9810  -38.7790 C.3       1 C40        -0.0030
     20 N21        84.7680   18.2490  -39.2870 N.4       1 C40         0.2226
     21 C20        83.7330   17.3190  -38.9240 C.3       1 C40         0.0026
     22 C22        83.5650   16.3020  -40.0360 C.3       1 C40         0.0998
     23 O23        83.9430   17.1050  -41.1570 O.3       1 C40        -0.3861
     24 C24        84.4860   15.0650  -39.9620 C.3       1 C40        -0.0021
     25 C25        84.5070   14.2200  -41.2130 C.3       1 C40         0.0483
     26 C26        85.6480   13.2880  -41.2340 C.3       1 C40        -0.0452
     27 C27        83.3200   13.3510  -41.4160 C.2       1 C40         0.1789
     28 O28        82.6970   12.9220  -40.4510 O.2       1 C40        -0.3968
     29 C30        81.7740   12.3730  -42.9820 C.3       1 C40         0.0309
     30 N29        83.0160   13.0480  -42.6590 N.am      1 C40        -0.2867
     31 C31        80.5630   13.2390  -42.6730 C.3       1 C40        -0.0330
     32 C32        79.2890   12.7330  -43.3300 C.3       1 C40        -0.0541
     33 C33        78.8740   11.3490  -42.7430 C.3       1 C40        -0.0652
     34 H1         87.1121   26.3675  -37.2090 H         1 C40         0.0523
     35 H2         85.5355   25.8808  -37.9188 H         1 C40         0.0523
     36 H3         86.6904   24.6273  -37.3515 H         1 C40         0.0523
     37 H4         84.6732   24.3390  -37.0455 H         1 C40         0.0560
     38 H5         83.7296   25.1171  -35.7299 H         1 C40         0.0560
     39 H6         85.5386   23.9182  -34.1610 H         1 C40         0.0314
     40 H7         85.7113   22.8240  -35.5750 H         1 C40         0.0314
     41 H8         83.1501   22.8874  -35.7590 H         1 C40         0.0618
     42 H9         83.1453   23.6784  -34.1463 H         1 C40         0.0618
     43 H10        83.3608   22.9437  -32.0332 H         1 C40         0.0555
     44 H11        81.5302   22.7330  -30.4310 H         1 C40         0.0625
     45 H12        79.8172   21.0304  -30.7962 H         1 C40         0.0536
     46 H13        79.9411   19.5453  -32.7321 H         1 C40         0.0640
     47 H14        82.6699   17.9290  -36.3282 H         1 C40         0.0521
     48 H15        84.0055   19.1061  -36.5675 H         1 C40         0.0521
     49 H16        82.1210   20.8485  -36.0289 H         1 C40         0.1840
     50 H17        80.6561   20.0027  -39.0444 H         1 C40         0.0233
     51 H18        80.9206   20.7492  -37.4321 H         1 C40         0.0233
     52 H19        80.2795   19.0755  -37.5527 H         1 C40         0.0233
     53 H20        83.0818   19.9908  -38.4537 H         1 C40         0.0319
     54 H21        82.0574   18.2114  -39.7880 H         1 C40         0.0324
     55 H22        81.7468   17.2717  -38.2889 H         1 C40         0.0324
     56 H23        85.6440   17.7585  -39.3768 H         1 C40         0.1998
     57 H24        84.8503   18.9557  -38.5730 H         1 C40         0.1998
     58 H25        84.5353   18.6846  -40.1657 H         1 C40         0.1998
     59 H26        84.0065   16.8190  -37.9832 H         1 C40         0.0876
     60 H27        82.5199   15.9650  -40.1008 H         1 C40         0.0651
     61 H28        83.3588   17.8513  -41.2219 H         1 C40         0.2100
     62 H29        84.1462   14.4339  -39.1276 H         1 C40         0.0319
     63 H30        85.5111   15.4120  -39.7654 H         1 C40         0.0319
     64 H31        84.5862   14.9093  -42.0666 H         1 C40         0.0536
     65 H32        85.6210   12.6962  -42.1608 H         1 C40         0.0257
     66 H33        85.5870   12.6141  -40.3668 H         1 C40         0.0257
     67 H34        86.5878   13.8579  -41.1901 H         1 C40         0.0257
     68 H35        81.7087   11.4465  -42.3926 H         1 C40         0.0520
     69 H36        81.7711   12.1266  -44.0540 H         1 C40         0.0520
     70 H37        83.6515   13.2869  -43.3932 H         1 C40         0.1851
     71 H38        80.7610   14.2598  -43.0318 H         1 C40         0.0285
     72 H39        80.4128   13.2560  -41.5834 H         1 C40         0.0285
     73 H40        79.4580   12.6295  -44.4120 H         1 C40         0.0263
     74 H41        78.4800   13.4569  -43.1527 H         1 C40         0.0263
     75 H42        77.9515   11.0046  -43.2332 H         1 C40         0.0230
     76 H43        78.6999   11.4468  -41.6613 H         1 C40         0.0230
     77 H44        79.6779   10.6194  -42.9205 H         1 C40         0.0230
@<TRIPOS>BOND
     1    1    2 1  
     2    2    3 1  
     3    3    4 1  
     4    4    5 1  
     5    5    6 1  
     6    6    7 1  
     7    7    8 ar 
     8    7   12 ar 
     9    8    9 ar 
    10    9   10 ar 
    11   10   11 ar 
    12   11   12 ar 
    13   12   13 1  
    14   13   14 2  
    15   13   16 am 
    16   16   15 1  
    17   15   18 1  
    18   18   17 1  
    19   18   19 1  
    20   19   21 1  
    21   21   20 1  
    22   21   22 1  
    23   22   23 1  
    24   22   24 1  
    25   24   25 1  
    26   25   26 1  
    27   25   27 1  
    28   27   28 2  
    29   27   30 am 
    30   30   29 1  
    31   29   31 1  
    32   31   32 1  
    33   32   33 1  
    34    1   34 1  
    35    1   35 1  
    36    1   36 1  
    37    3   37 1  
    38    3   38 1  
    39    4   39 1  
    40    4   40 1  
    41    5   41 1  
    42    5   42 1  
    43    8   43 1  
    44    9   44 1  
    45   10   45 1  
    46   11   46 1  
    47   15   47 1  
    48   15   48 1  
    49   16   49 1  
    50   17   50 1  
    51   17   51 1  
    52   17   52 1  
    53   18   53 1  
    54   19   54 1  
    55   19   55 1  
    56   20   56 1  
    57   20   57 1  
    58   20   58 1  
    59   21   59 1  
    60   22   60 1  
    61   23   61 1  
    62   24   62 1  
    63   24   63 1  
    64   25   64 1  
    65   26   65 1  
    66   26   66 1  
    67   26   67 1  
    68   29   68 1  
    69   29   69 1  
    70   30   70 1  
    71   31   71 1  
    72   31   72 1  
    73   32   73 1  
    74   32   74 1  
    75   33   75 1  
    76   33   76 1  
    77   33   77 1  
@<TRIPOS>SUBSTRUCTURE
     1 C40         1

