### 
### Created by X-TOOL on Mon Sep 10 21:12:58 2018
### 

@<TRIPOS>MOLECULE
2v16_ligand
   79    80     1     0     0
SMALL
GAST_HUCK


@<TRIPOS>ATOM
      1 C1         15.0460   43.6410   70.8210 C.3       1 C47         0.0658
      2 O2         15.0650   45.1600   70.7220 O.3       1 C47        -0.2798
      3 C3         14.0670   45.7280   71.5810 C.2       1 C47         0.2407
      4 O4         13.5100   44.9490   72.3930 O.2       1 C47        -0.3699
      5 C5         13.6110   47.1370   71.5470 C.3       1 C47         0.0926
      6 C6         14.0030   47.4790   72.9680 C.3       1 C47         0.0004
      7 C7         13.5000   48.8170   73.3360 C.ar      1 C47        -0.0182
      8 C8         14.2950   49.7790   74.0560 C.ar      1 C47        -0.0733
      9 C9         13.6730   51.1380   74.3230 C.ar      1 C47        -0.0840
     10 C10        12.4190   51.5220   73.8450 C.ar      1 C47        -0.0825
     11 C11        11.6820   50.6160   73.0600 C.ar      1 C47        -0.0473
     12 C12        12.2480   49.2420   72.7600 C.ar      1 C47         0.0720
     13 N13        11.5300   48.1680   71.9710 N.am      1 C47        -0.2202
     14 C14        12.1670   46.9630   71.6000 C.3       1 C47         0.0765
     15 C15        10.1710   48.3200   71.6290 C.2       1 C47         0.2049
     16 O16         9.5430   49.3240   72.0060 O.2       1 C47        -0.3855
     17 C17         9.4860   47.3020   70.7100 C.3       1 C47         0.0483
     18 C18         8.9280   48.0840   69.6230 C.3       1 C47        -0.0125
     19 C19         9.9140   48.9720   68.9730 C.3       1 C47        -0.0575
     20 C20         7.7560   49.0040   70.0320 C.3       1 C47        -0.0575
     21 C21         8.4640   47.1550   68.6220 C.3       1 C47        -0.0001
     22 C22         7.4430   46.2430   69.2840 C.3       1 C47         0.0029
     23 N23         8.2470   44.9030   69.5060 N.4       1 C47         0.2226
     24 C24         6.2660   45.9000   68.3560 C.3       1 C47         0.0998
     25 O25         6.9830   44.8730   67.5570 O.3       1 C47        -0.3861
     26 C26         5.1930   45.2640   69.3680 C.3       1 C47        -0.0021
     27 C27         4.0430   44.7720   68.4950 C.3       1 C47         0.0483
     28 C28         3.2760   43.6620   69.2780 C.3       1 C47        -0.0452
     29 C29         3.3150   46.0400   67.9720 C.2       1 C47         0.1789
     30 O30         3.5350   47.1020   68.4280 O.2       1 C47        -0.3968
     31 N31         2.5000   45.9940   66.9960 N.am      1 C47        -0.2867
     32 C32         1.9960   47.1240   66.2530 C.3       1 C47         0.0309
     33 C33         3.1300   47.8680   65.8800 C.3       1 C47        -0.0330
     34 C34         2.7920   48.4560   64.5710 C.3       1 C47        -0.0541
     35 C35         1.6740   49.4960   65.0320 C.3       1 C47        -0.0652
     36 H1         15.8160   43.2207   70.1573 H         1 C47         0.0577
     37 H2         14.0570   43.2662   70.5187 H         1 C47         0.0577
     38 H3         15.2514   43.3385   71.8585 H         1 C47         0.0577
     39 H4         13.9959   47.7866   70.7471 H         1 C47         0.0598
     40 H5         15.0996   47.4687   73.0533 H         1 C47         0.0426
     41 H6         13.5749   46.7310   73.6515 H         1 C47         0.0426
     42 H7         15.2974   49.5419   74.3937 H         1 C47         0.0513
     43 H8         14.2339   51.8497   74.9179 H         1 C47         0.0470
     44 H9         12.0191   52.5029   74.0749 H         1 C47         0.0520
     45 H10        10.7111   50.9001   72.6704 H         1 C47         0.0480
     46 H11        11.9244   46.1846   72.3384 H         1 C47         0.0614
     47 H12        11.8043   46.6538   70.6086 H         1 C47         0.0614
     48 H13         8.6894   46.7697   71.2504 H         1 C47         0.0512
     49 H14        10.2175   46.5756   70.3263 H         1 C47         0.0512
     50 H15         9.4248   49.5319   68.1624 H         1 C47         0.0236
     51 H16        10.7342   48.3678   68.5581 H         1 C47         0.0236
     52 H17        10.3170   49.6775   69.7145 H         1 C47         0.0236
     53 H18         6.9762   48.4064   70.5268 H         1 C47         0.0236
     54 H19         7.3365   49.4840   69.1356 H         1 C47         0.0236
     55 H20         8.1208   49.7765   70.7249 H         1 C47         0.0236
     56 H21         9.3076   46.5606   68.2413 H         1 C47         0.0327
     57 H22         7.9958   47.7018   67.7903 H         1 C47         0.0327
     58 H23         7.0771   46.6746   70.2273 H         1 C47         0.0876
     59 H24         7.6492   44.2216   69.9469 H         1 C47         0.1998
     60 H25         9.0437   45.0831   70.0966 H         1 C47         0.1998
     61 H26         8.5615   44.5485   68.6164 H         1 C47         0.1998
     62 H27         5.8548   46.7281   67.7601 H         1 C47         0.0651
     63 H28         7.7361   45.2701   67.1357 H         1 C47         0.2100
     64 H29         4.8371   46.0253   70.0778 H         1 C47         0.0319
     65 H30         5.6392   44.4255   69.9228 H         1 C47         0.0319
     66 H31         4.4618   44.2747   67.6077 H         1 C47         0.0536
     67 H32         2.4405   43.2921   68.6656 H         1 C47         0.0257
     68 H33         2.8851   44.0796   70.2176 H         1 C47         0.0257
     69 H34         3.9615   42.8316   69.5029 H         1 C47         0.0257
     70 H35         2.1782   45.0891   66.7173 H         1 C47         0.1851
     71 H36         1.3288   47.7309   66.8827 H         1 C47         0.0520
     72 H37         1.4494   46.7841   65.3610 H         1 C47         0.0520
     73 H38         4.0097   47.2133   65.7933 H         1 C47         0.0285
     74 H39         3.3325   48.6587   66.6174 H         1 C47         0.0285
     75 H40         2.3916   47.7047   63.8745 H         1 C47         0.0263
     76 H41         3.6557   48.9587   64.1113 H         1 C47         0.0263
     77 H42         1.2969   50.0419   64.1546 H         1 C47         0.0230
     78 H43         2.1091   50.2087   65.7480 H         1 C47         0.0230
     79 H44         0.8449   48.9547   65.5112 H         1 C47         0.0230
@<TRIPOS>BOND
     1    1    2 1  
     2    2    3 1  
     3    3    4 2  
     4    3    5 1  
     5    5    6 1  
     6    5   14 1  
     7    6    7 1  
     8    7    8 ar 
     9    7   12 ar 
    10    8    9 ar 
    11    9   10 ar 
    12   10   11 ar 
    13   11   12 ar 
    14   12   13 1  
    15   13   14 1  
    16   13   15 am 
    17   15   16 2  
    18   15   17 1  
    19   17   18 1  
    20   18   19 1  
    21   18   20 1  
    22   18   21 1  
    23   21   22 1  
    24   22   23 1  
    25   22   24 1  
    26   24   25 1  
    27   24   26 1  
    28   26   27 1  
    29   27   28 1  
    30   27   29 1  
    31   29   30 2  
    32   29   31 am 
    33   31   32 1  
    34   32   33 1  
    35   33   34 1  
    36   34   35 1  
    37    1   36 1  
    38    1   37 1  
    39    1   38 1  
    40    5   39 1  
    41    6   40 1  
    42    6   41 1  
    43    8   42 1  
    44    9   43 1  
    45   10   44 1  
    46   11   45 1  
    47   14   46 1  
    48   14   47 1  
    49   17   48 1  
    50   17   49 1  
    51   19   50 1  
    52   19   51 1  
    53   19   52 1  
    54   20   53 1  
    55   20   54 1  
    56   20   55 1  
    57   21   56 1  
    58   21   57 1  
    59   22   58 1  
    60   23   59 1  
    61   23   60 1  
    62   23   61 1  
    63   24   62 1  
    64   25   63 1  
    65   26   64 1  
    66   26   65 1  
    67   27   66 1  
    68   28   67 1  
    69   28   68 1  
    70   28   69 1  
    71   31   70 1  
    72   32   71 1  
    73   32   72 1  
    74   33   73 1  
    75   33   74 1  
    76   34   75 1  
    77   34   76 1  
    78   35   77 1  
    79   35   78 1  
    80   35   79 1  
@<TRIPOS>SUBSTRUCTURE
     1 C47         1

