### 
### Created by X-TOOL on Mon Sep 10 21:12:55 2018
### 

@<TRIPOS>MOLECULE
2v25_ligand
   15    14     1     0     0
SMALL
GAST_HUCK


@<TRIPOS>ATOM
      1 N           8.0530   33.3800   60.2420 N.4       1 ASP         0.2339
      2 CA          9.0090   34.3110   60.8800 C.3       1 ASP         0.0398
      3 C           8.3090   35.4180   61.6190 C.2       1 ASP         0.0862
      4 O           8.9810   36.2350   62.2620 O.co2     1 ASP        -0.5642
      5 CB         10.0090   34.8740   59.8490 C.3       1 ASP         0.0552
      6 CG          9.3400   35.6100   58.6880 C.2       1 ASP         0.0419
      7 OD1         8.1290   35.4850   58.5120 O.co2     1 ASP        -0.5687
      8 OD2        10.0320   36.3260   57.9200 O.co2     1 ASP        -0.5687
      9 OXT         7.0660   35.4740   61.5960 O.co2     1 ASP        -0.5642
     10 H1          8.5610   32.6556   59.7590 H         1 ASP         0.2011
     11 H2          7.4806   33.8850   59.5837 H         1 ASP         0.2011
     12 H3          7.4660   32.9648   60.9485 H         1 ASP         0.2011
     13 H4          9.5846   33.7351   61.6197 H         1 ASP         0.1043
     14 H5         10.5946   34.0377   59.4395 H         1 ASP         0.0505
     15 H6         10.6819   35.5754   60.3640 H         1 ASP         0.0505
@<TRIPOS>BOND
     1    1    2 1  
     2    2    3 1  
     3    2    5 1  
     4    3    4 ar 
     5    3    9 ar 
     6    5    6 1  
     7    6    7 ar 
     8    6    8 ar 
     9    1   10 1  
    10    1   11 1  
    11    1   12 1  
    12    2   13 1  
    13    5   14 1  
    14    5   15 1  
@<TRIPOS>SUBSTRUCTURE
     1 ASP         1

