### 
### Created by X-TOOL on Mon Sep 10 21:12:55 2018
### 

@<TRIPOS>MOLECULE
2v3d_ligand
   37    37     1     0     0
SMALL
GAST_HUCK


@<TRIPOS>ATOM
      1 O9         34.6420   34.2760   -1.1950 O.3       1 NBV        -0.3894
      2 C12        33.8390   33.4890   -0.2680 C.3       1 NBV         0.0894
      3 C11        34.6480   32.2880    0.3200 C.3       1 NBV         0.0319
      4 C10        35.8210   32.7510    1.1910 C.3       1 NBV         0.1281
      5 O1         35.4120   33.7460    2.1780 O.3       1 NBV        -0.3835
      6 C9         36.5240   31.5590    1.8670 C.3       1 NBV         0.1171
      7 O8         37.7380   31.9710    2.5030 O.3       1 NBV        -0.3862
      8 C8         36.9050   30.4670    0.8500 C.3       1 NBV         0.1231
      9 O7         37.1310   29.2710    1.6000 O.3       1 NBV        -0.3838
     10 N1         35.2190   31.4520   -0.7420 N.4       1 NBV         0.2428
     11 C7         35.8120   30.2110   -0.1820 C.3       1 NBV        -0.0023
     12 C13        34.2610   31.2750   -1.8520 C.3       1 NBV        -0.0314
     13 C14        34.8060   30.3340   -2.9390 C.3       1 NBV        -0.0128
     14 C15        34.1390   30.6730   -4.3020 C.3       1 NBV        -0.0511
     15 C16        34.5900   29.7200   -5.4350 C.3       1 NBV        -0.0651
     16 H1         35.4020   34.6201   -0.7406 H         1 NBV         0.2097
     17 H2         32.9588   33.0995   -0.8004 H         1 NBV         0.0614
     18 H3         33.5109   34.1366    0.5583 H         1 NBV         0.0614
     19 H4         33.9639   31.6807    0.9308 H         1 NBV         0.0901
     20 H5         36.5527   33.2314    0.5248 H         1 NBV         0.0678
     21 H6         36.1654   34.0056    2.6953 H         1 NBV         0.2102
     22 H7         35.8427   31.1338    2.6187 H         1 NBV         0.0649
     23 H8         37.5418   32.6241    3.1645 H         1 NBV         0.2100
     24 H9         37.8255   30.7634    0.3257 H         1 NBV         0.0674
     25 H10        36.3378   29.0371    2.0676 H         1 NBV         0.2101
     26 H11        35.9915   31.9692   -1.1315 H         1 NBV         0.2039
     27 H12        35.0111   29.6287    0.2971 H         1 NBV         0.0841
     28 H13        36.2444   29.6286   -1.0090 H         1 NBV         0.0841
     29 H14        34.0548   32.2568   -2.3031 H         1 NBV         0.0814
     30 H15        33.3278   30.8522   -1.4516 H         1 NBV         0.0814
     31 H16        34.5790   29.2921   -2.6691 H         1 NBV         0.0317
     32 H17        35.8953   30.4623   -3.0222 H         1 NBV         0.0317
     33 H18        34.4072   31.7030   -4.5797 H         1 NBV         0.0264
     34 H19        33.0475   30.5959   -4.1896 H         1 NBV         0.0264
     35 H20        34.0902   30.0033   -6.3731 H         1 NBV         0.0230
     36 H21        34.3203   28.6861   -5.1736 H         1 NBV         0.0230
     37 H22        35.6800   29.7933   -5.5637 H         1 NBV         0.0230
@<TRIPOS>BOND
     1    1    2 1  
     2    2    3 1  
     3    3    4 1  
     4    3   10 1  
     5    4    5 1  
     6    4    6 1  
     7    6    7 1  
     8    6    8 1  
     9    8    9 1  
    10    8   11 1  
    11   10   11 1  
    12   10   12 1  
    13   12   13 1  
    14   13   14 1  
    15   14   15 1  
    16    1   16 1  
    17    2   17 1  
    18    2   18 1  
    19    3   19 1  
    20    4   20 1  
    21    5   21 1  
    22    6   22 1  
    23    7   23 1  
    24    8   24 1  
    25    9   25 1  
    26   10   26 1  
    27   11   27 1  
    28   11   28 1  
    29   12   29 1  
    30   12   30 1  
    31   13   31 1  
    32   13   32 1  
    33   14   33 1  
    34   14   34 1  
    35   15   35 1  
    36   15   36 1  
    37   15   37 1  
@<TRIPOS>SUBSTRUCTURE
     1 NBV         1

