### 
### Created by X-TOOL on Mon Sep 10 21:12:55 2018
### 

@<TRIPOS>MOLECULE
2v3e_ligand
   52    52     1     0     0
SMALL
GAST_HUCK


@<TRIPOS>ATOM
      1 O6         34.7260   34.3490   -1.1620 O.3       1 NND        -0.3894
      2 C6         33.9040   33.5170   -0.2920 C.3       1 NND         0.0894
      3 C5         34.6920   32.3580    0.3880 C.3       1 NND         0.0319
      4 C4         35.9070   32.8280    1.2120 C.3       1 NND         0.1281
      5 O4         35.4740   33.8620    2.1000 O.3       1 NND        -0.3835
      6 O3         37.8040   32.0370    2.6250 O.3       1 NND        -0.3862
      7 C2         37.0430   30.5510    0.9240 C.3       1 NND         0.1231
      8 O2         37.2110   29.3030    1.6290 O.3       1 NND        -0.3838
      9 N1         35.2970   31.5030   -0.6430 N.4       1 NND         0.2428
     10 C8         34.4170   31.3610   -1.8130 C.3       1 NND        -0.0314
     11 C7         35.0870   30.4190   -2.7800 C.3       1 NND        -0.0125
     12 C1         35.9400   30.2900   -0.0960 C.3       1 NND        -0.0023
     13 C9         34.5410   30.7590   -4.1600 C.3       1 NND        -0.0483
     14 C10        35.1320   29.8940   -5.2710 C.3       1 NND        -0.0529
     15 C14        34.3960   30.3560   -6.5400 C.3       1 NND        -0.0531
     16 C13        35.2100   30.0240   -7.7850 C.3       1 NND        -0.0531
     17 C12        35.8160   31.2880   -8.3660 C.3       1 NND        -0.0533
     18 C16        38.1120   31.6660   -9.0960 C.3       1 NND        -0.0653
     19 C11        36.8370   30.9370   -9.4390 C.3       1 NND        -0.0559
     20 C31        36.6110   31.6420    1.9160 C.3       1 NND         0.1171
     21 H1         35.4265   34.7410   -0.6540 H         1 NND         0.2097
     22 H2         33.0929   33.0803   -0.8931 H         1 NND         0.0614
     23 H3         33.4748   34.1545    0.4950 H         1 NND         0.0614
     24 H4         34.0026   31.7830    1.0237 H         1 NND         0.0901
     25 H5         36.6389   33.2697    0.5198 H         1 NND         0.0678
     26 H6         36.2120   34.1638    2.6166 H         1 NND         0.2102
     27 H7         37.5785   32.6764    3.2905 H         1 NND         0.2100
     28 H8         37.9755   30.8485    0.4221 H         1 NND         0.0674
     29 H9         36.3935   29.0666    2.0513 H         1 NND         0.2101
     30 H10        36.0748   32.0394   -0.9943 H         1 NND         0.2039
     31 H11        34.2658   32.3411   -2.2890 H         1 NND         0.0814
     32 H12        33.4449   30.9501   -1.5028 H         1 NND         0.0814
     33 H13        34.8482   29.3765   -2.5228 H         1 NND         0.0317
     34 H14        36.1774   30.5619   -2.7566 H         1 NND         0.0317
     35 H15        35.1631   29.6811    0.3894 H         1 NND         0.0841
     36 H16        36.3764   29.7273   -0.9344 H         1 NND         0.0841
     37 H17        34.7714   31.8124   -4.3773 H         1 NND         0.0267
     38 H18        33.4503   30.6168   -4.1492 H         1 NND         0.0267
     39 H19        34.9439   28.8277   -5.0772 H         1 NND         0.0265
     40 H20        36.2147   30.0644   -5.3641 H         1 NND         0.0265
     41 H21        34.2388   31.4436   -6.4907 H         1 NND         0.0265
     42 H22        33.4226   29.8470   -6.5986 H         1 NND         0.0265
     43 H23        34.5539   29.5576   -8.5347 H         1 NND         0.0265
     44 H24        36.0156   29.3246   -7.5169 H         1 NND         0.0265
     45 H25        36.3119   31.8548   -7.5643 H         1 NND         0.0265
     46 H26        35.0188   31.9021   -8.8102 H         1 NND         0.0265
     47 H27        38.8791   31.4380   -9.8507 H         1 NND         0.0230
     48 H28        38.4644   31.3422   -8.1056 H         1 NND         0.0230
     49 H29        37.9224   32.7494   -9.0816 H         1 NND         0.0230
     50 H30        36.4726   31.2587  -10.4258 H         1 NND         0.0263
     51 H31        37.0146   29.8515   -9.4497 H         1 NND         0.0263
     52 H32        35.8984   31.2101    2.6340 H         1 NND         0.0649
@<TRIPOS>BOND
     1    2    1 1  
     2    3    2 1  
     3    4    3 1  
     4    3    9 1  
     5    4    5 1  
     6   20    4 1  
     7   20    6 1  
     8    7    8 1  
     9    7   12 1  
    10    7   20 1  
    11    9   10 1  
    12    9   12 1  
    13   10   11 1  
    14   11   13 1  
    15   13   14 1  
    16   14   15 1  
    17   15   16 1  
    18   16   17 1  
    19   17   19 1  
    20   19   18 1  
    21    1   21 1  
    22    2   22 1  
    23    2   23 1  
    24    3   24 1  
    25    4   25 1  
    26    5   26 1  
    27    6   27 1  
    28    7   28 1  
    29    8   29 1  
    30    9   30 1  
    31   10   31 1  
    32   10   32 1  
    33   11   33 1  
    34   11   34 1  
    35   12   35 1  
    36   12   36 1  
    37   13   37 1  
    38   13   38 1  
    39   14   39 1  
    40   14   40 1  
    41   15   41 1  
    42   15   42 1  
    43   16   43 1  
    44   16   44 1  
    45   17   45 1  
    46   17   46 1  
    47   18   47 1  
    48   18   48 1  
    49   18   49 1  
    50   19   50 1  
    51   19   51 1  
    52   20   52 1  
@<TRIPOS>SUBSTRUCTURE
     1 NND         1

