### 
### Created by X-TOOL on Mon Sep 10 21:12:55 2018
### 

@<TRIPOS>MOLECULE
2v3u_ligand
   14    13     1     0     0
SMALL
GAST_HUCK


@<TRIPOS>ATOM
      1 N          32.1550   33.6830   27.7210 N.4       1 DSN         0.2343
      2 CA         31.5070   32.4280   28.1870 C.3       1 DSN         0.0519
      3 C          32.3370   31.2060   27.8800 C.2       1 DSN         0.0867
      4 O          31.9790   30.1020   28.3270 O.co2     1 DSN        -0.5642
      5 OXT        33.3570   31.2980   27.1340 O.co2     1 DSN        -0.5642
      6 CB         31.2480   32.4560   29.7140 C.3       1 DSN         0.0987
      7 OG         32.4660   32.6110   30.4640 O.3       1 DSN        -0.3876
      8 H1         31.5661   34.4692   27.9471 H         1 DSN         0.2011
      9 H2         32.2905   33.6407   26.7230 H         1 DSN         0.2011
     10 H3         33.0476   33.7897   28.1770 H         1 DSN         0.2011
     11 H4         30.5419   32.3345   27.6675 H         1 DSN         0.1047
     12 H5         30.7663   31.5124   30.0100 H         1 DSN         0.0633
     13 H6         30.5788   33.2978   29.9454 H         1 DSN         0.0633
     14 H7         32.8860   33.4270   30.2186 H         1 DSN         0.2098
@<TRIPOS>BOND
     1    1    2 1  
     2    2    3 1  
     3    2    6 1  
     4    3    4 ar 
     5    3    5 ar 
     6    6    7 1  
     7    1    8 1  
     8    1    9 1  
     9    1   10 1  
    10    2   11 1  
    11    6   12 1  
    12    6   13 1  
    13    7   14 1  
@<TRIPOS>SUBSTRUCTURE
     1 DSN         1

