### 
### Created by X-TOOL on Mon Sep 10 21:13:00 2018
### 

@<TRIPOS>MOLECULE
2v57_ligand
   27    29     1     0     0
SMALL
GAST_HUCK


@<TRIPOS>ATOM
      1 C1          5.7110   -3.8290    4.7020 C.ar      1 PRL        -0.0483
      2 C2          6.4370   -3.0180    3.8200 C.ar      1 PRL        -0.0317
      3 C3          7.8300   -2.9470    3.9400 C.ar      1 PRL         0.0415
      4 C4          8.4930   -3.6860    4.9140 C.ar      1 PRL        -0.0313
      5 C5          8.5040   -6.6940    8.5770 C.ar      1 PRL        -0.0313
      6 C6          7.8300   -7.5120    9.4890 C.ar      1 PRL         0.0415
      7 C7          6.4510   -7.6270    9.4210 C.ar      1 PRL        -0.0317
      8 C8          5.7400   -6.9250    8.4610 C.ar      1 PRL        -0.0483
      9 C9          5.6840   -5.3820    6.5860 C.ar      1 PRL        -0.0279
     10 N10         8.4280   -5.1940    6.7350 N.ar      1 PRL        -0.3286
     11 C11         7.7690   -4.4840    5.7940 C.ar      1 PRL         0.0162
     12 C12         6.4010   -6.0980    7.5560 C.ar      1 PRL         0.0016
     13 C13         6.3790   -4.5650    5.6890 C.ar      1 PRL         0.0016
     14 C14         7.7810   -5.9940    7.6090 C.ar      1 PRL         0.0162
     15 N15         8.5350   -2.1670    3.0930 N.pl3     1 PRL        -0.3324
     16 N16         8.5080   -8.2100   10.4340 N.pl3     1 PRL        -0.3324
     17 H1          4.6316   -3.8870    4.6206 H         1 PRL         0.0666
     18 H2          5.9247   -2.4505    3.0515 H         1 PRL         0.0587
     19 H3          9.5735   -3.6402    4.9874 H         1 PRL         0.0438
     20 H4          9.5833   -6.6036    8.6213 H         1 PRL         0.0438
     21 H5          5.9269   -8.2679   10.1207 H         1 PRL         0.0587
     22 H6          4.6612   -7.0202    8.4140 H         1 PRL         0.0666
     23 H7          4.6042   -5.4611    6.5325 H         1 PRL         0.0848
     24 H8          8.0467   -1.6186    2.3707 H         1 PRL         0.1756
     25 H9          9.5611   -2.1203    3.1691 H         1 PRL         0.1756
     26 H10         9.5333   -8.1328   10.4946 H         1 PRL         0.1756
     27 H11         7.9975   -8.8172   11.0910 H         1 PRL         0.1756
@<TRIPOS>BOND
     1    1    2 ar 
     2   13    1 ar 
     3    2    3 ar 
     4    3    4 ar 
     5    3   15 1  
     6    4   11 ar 
     7    6    5 ar 
     8    5   14 ar 
     9    7    6 ar 
    10    6   16 1  
    11    8    7 ar 
    12   12    8 ar 
    13    9   12 ar 
    14    9   13 ar 
    15   11   10 ar 
    16   10   14 ar 
    17   11   13 ar 
    18   12   14 ar 
    19    1   17 1  
    20    2   18 1  
    21    4   19 1  
    22    5   20 1  
    23    7   21 1  
    24    8   22 1  
    25    9   23 1  
    26   15   24 1  
    27   15   25 1  
    28   16   26 1  
    29   16   27 1  
@<TRIPOS>SUBSTRUCTURE
     1 PRL         1

