### 
### Created by X-TOOL on Mon Sep 10 21:13:00 2018
### 

@<TRIPOS>MOLECULE
2v58_ligand
   29    31     1     0     0
SMALL
GAST_HUCK


@<TRIPOS>ATOM
      1 BR2         7.1360  -21.7170   26.4580 Br        1 LZJ        -0.0499
      2 C18         6.1620  -20.3930   25.5290 C.ar      1 LZJ         0.0207
      3 C17         6.6160  -19.0780   25.6060 C.ar      1 LZJ        -0.0507
      4 C16         5.9360  -18.0620   24.9470 C.ar      1 LZJ        -0.0576
      5 C15         4.7990  -18.3670   24.2080 C.ar      1 LZJ        -0.0507
      6 C14         4.3460  -19.6830   24.1290 C.ar      1 LZJ         0.0207
      7 BR1         2.7930  -20.0270   23.1150 Br        1 LZJ        -0.0499
      8 C12         5.0180  -20.7080   24.7930 C.ar      1 LZJ         0.0036
      9 C9          4.5310  -22.1190   24.6870 C.ar      1 LZJ         0.0419
     10 C10         3.3650  -22.5480   25.3290 C.ar      1 LZJ        -0.0217
     11 C5          2.9590  -23.8780   25.1790 C.ar      1 LZJ         0.0402
     12 C6          1.8060  -24.3650   25.7950 C.ar      1 LZJ         0.0325
     13 N1          1.4530  -25.6530   25.6290 N.ar      1 LZJ        -0.2457
     14 C8          5.2520  -23.0320   23.9090 C.ar      1 LZJ         0.1231
     15 N13         6.3830  -22.6610   23.2620 N.pl3     1 LZJ        -0.3134
     16 N7          4.8380  -24.3160   23.7820 N.ar      1 LZJ        -0.2719
     17 C4          3.7150  -24.7510   24.3980 C.ar      1 LZJ         0.0914
     18 N3          3.3240  -26.0390   24.2550 N.ar      1 LZJ        -0.2566
     19 C2          2.2000  -26.4890   24.8620 C.ar      1 LZJ         0.1834
     20 N11         1.8360  -27.7850   24.7050 N.pl3     1 LZJ        -0.3019
     21 H1          7.5041  -18.8468   26.1830 H         1 LZJ         0.0664
     22 H2          6.2893  -17.0390   25.0085 H         1 LZJ         0.0619
     23 H3          4.2628  -17.5791   23.6915 H         1 LZJ         0.0664
     24 H4          2.7848  -21.8603   25.9336 H         1 LZJ         0.0805
     25 H5          1.1965  -23.7083   26.4052 H         1 LZJ         0.1004
     26 H6          6.9001  -23.3472   22.6940 H         1 LZJ         0.1837
     27 H7          6.7258  -21.6927   23.3381 H         1 LZJ         0.1837
     28 H8          0.9834  -28.1394   25.1614 H         1 LZJ         0.1848
     29 H9          2.4120  -28.4156   24.1292 H         1 LZJ         0.1848
@<TRIPOS>BOND
     1    1    2 1  
     2    2    3 ar 
     3    2    8 ar 
     4    3    4 ar 
     5    4    5 ar 
     6    5    6 ar 
     7    6    7 1  
     8    6    8 ar 
     9    8    9 1  
    10    9   10 ar 
    11    9   14 ar 
    12   10   11 ar 
    13   11   12 ar 
    14   11   17 ar 
    15   12   13 ar 
    16   13   19 ar 
    17   14   15 1  
    18   14   16 ar 
    19   16   17 ar 
    20   17   18 ar 
    21   18   19 ar 
    22   19   20 1  
    23    3   21 1  
    24    4   22 1  
    25    5   23 1  
    26   10   24 1  
    27   12   25 1  
    28   15   26 1  
    29   15   27 1  
    30   20   28 1  
    31   20   29 1  
@<TRIPOS>SUBSTRUCTURE
     1 LZJ         1

