### 
### Created by X-TOOL on Mon Sep 10 21:13:01 2018
### 

@<TRIPOS>MOLECULE
2v59_ligand
   37    39     1     0     0
SMALL
GAST_HUCK


@<TRIPOS>ATOM
      1 N20         1.7550  -27.6250   24.7720 N.pl3     1 LZK        -0.3028
      2 C19         2.0570  -26.3060   24.8230 C.ar      1 LZK         0.1817
      3 N17         3.1760  -25.8710   24.2040 N.ar      1 LZK        -0.2586
      4 N18         1.2530  -25.4350   25.4900 N.ar      1 LZK        -0.2479
      5 C16         1.5510  -24.1250   25.5510 C.ar      1 LZK         0.0298
      6 C11         2.7020  -23.6590   24.9180 C.ar      1 LZK         0.0342
      7 C15         3.5160  -24.5660   24.2400 C.ar      1 LZK         0.0885
      8 N12         4.6420  -24.1490   23.6170 N.ar      1 LZK        -0.2744
      9 C6          5.0080  -22.8470   23.6290 C.ar      1 LZK         0.1182
     10 N13         6.1470  -22.4920   22.9830 N.pl3     1 LZK        -0.3147
     11 C5          3.0590  -22.3150   24.9540 C.ar      1 LZK        -0.0304
     12 C2          4.2270  -21.9060   24.3030 C.ar      1 LZK         0.0322
     13 C1          4.6160  -20.4660   24.3160 C.ar      1 LZK         0.0471
     14 C4          5.8060  -20.0590   24.9190 C.ar      1 LZK         0.0928
     15 O1          6.6120  -20.9990   25.5160 O.3       1 LZK        -0.3219
     16 C45         8.0100  -20.7950   25.6930 C.3       1 LZK         0.0598
     17 C3          3.7760  -19.5320   23.7100 C.ar      1 LZK         0.0928
     18 O7          2.6070  -19.9620   23.1190 O.3       1 LZK        -0.3219
     19 C43         1.5660  -19.0770   22.6980 C.3       1 LZK         0.0598
     20 C7          4.1330  -18.1790   23.7180 C.ar      1 LZK        -0.0429
     21 C14         5.3220  -17.7690   24.3230 C.ar      1 LZK        -0.0791
     22 C9          6.1600  -18.7060   24.9250 C.ar      1 LZK        -0.0429
     23 H1          2.3714  -28.2752   24.2639 H         1 LZK         0.1842
     24 H2          0.9089  -27.9781   25.2414 H         1 LZK         0.1842
     25 H3          0.9037  -23.4396   26.0861 H         1 LZK         0.0988
     26 H4          6.4496  -21.5075   22.9759 H         1 LZK         0.1831
     27 H5          6.7091  -23.2070   22.4996 H         1 LZK         0.1831
     28 H6          2.4410  -21.5955   25.4789 H         1 LZK         0.0737
     29 H7          8.4487  -21.6731   26.1895 H         1 LZK         0.0579
     30 H8          8.1746  -19.9023   26.3143 H         1 LZK         0.0579
     31 H9          8.4868  -20.6521   24.7121 H         1 LZK         0.0579
     32 H10         0.7437  -19.6609   22.2589 H         1 LZK         0.0579
     33 H11         1.9610  -18.3775   21.9466 H         1 LZK         0.0579
     34 H12         1.1924  -18.5118   23.5646 H         1 LZK         0.0579
     35 H13         3.4835  -17.4465   23.2525 H         1 LZK         0.0451
     36 H14         5.5943  -16.7197   24.3247 H         1 LZK         0.0561
     37 H15         7.0828  -18.3872   25.3961 H         1 LZK         0.0451
@<TRIPOS>BOND
     1    1    2 1  
     2    2    3 ar 
     3    2    4 ar 
     4    3    7 ar 
     5    4    5 ar 
     6    5    6 ar 
     7    6    7 ar 
     8    6   11 ar 
     9    7    8 ar 
    10    8    9 ar 
    11    9   10 1  
    12    9   12 ar 
    13   11   12 ar 
    14   12   13 1  
    15   13   14 ar 
    16   13   17 ar 
    17   14   15 1  
    18   14   22 ar 
    19   15   16 1  
    20   17   18 1  
    21   17   20 ar 
    22   18   19 1  
    23   20   21 ar 
    24   21   22 ar 
    25    1   23 1  
    26    1   24 1  
    27    5   25 1  
    28   10   26 1  
    29   10   27 1  
    30   11   28 1  
    31   16   29 1  
    32   16   30 1  
    33   16   31 1  
    34   19   32 1  
    35   19   33 1  
    36   19   34 1  
    37   20   35 1  
    38   21   36 1  
    39   22   37 1  
@<TRIPOS>SUBSTRUCTURE
     1 LZK         1

