### 
### Created by X-TOOL on Mon Sep 10 21:13:01 2018
### 

@<TRIPOS>MOLECULE
2v5a_ligand
   39    42     1     0     0
SMALL
GAST_HUCK


@<TRIPOS>ATOM
      1 N22         1.7200  -27.6580   24.5340 N.pl3     1 LZL        -0.3021
      2 C21         2.1640  -26.3900   24.6940 C.ar      1 LZL         0.1830
      3 N20         1.4840  -25.5340   25.5070 N.ar      1 LZL        -0.2461
      4 C15         1.8740  -24.2630   25.7090 C.ar      1 LZL         0.0320
      5 C9          3.0170  -23.8050   25.0650 C.ar      1 LZL         0.0391
      6 C4          3.4930  -22.5100   25.2230 C.ar      1 LZL        -0.0233
      7 N18         3.2820  -26.0060   24.0340 N.ar      1 LZL        -0.2570
      8 C12         3.7490  -24.7490   24.1780 C.ar      1 LZL         0.0908
      9 N6          4.8620  -24.3520   23.5300 N.ar      1 LZL        -0.2722
     10 C2          5.3590  -23.0970   23.6510 C.ar      1 LZL         0.1271
     11 N5          6.5270  -22.8100   22.9040 N.pl3     1 LZL        -0.2858
     12 C11         6.8340  -21.7940   21.9600 C.3       1 LZL         0.0337
     13 C17         8.1530  -22.0120   21.6090 C.3       1 LZL        -0.0301
     14 C16         8.2920  -23.3580   21.7350 C.3       1 LZL        -0.0301
     15 C10         7.6640  -23.6770   22.9380 C.3       1 LZL         0.0337
     16 C1          4.6420  -22.1170   24.5370 C.ar      1 LZL         0.0395
     17 C3          5.1360  -20.7340   24.7420 C.ar      1 LZL        -0.0141
     18 C8          4.4470  -19.6250   24.2530 C.ar      1 LZL        -0.0556
     19 C14         4.9560  -18.3460   24.4780 C.ar      1 LZL        -0.0625
     20 C19         6.1410  -18.1860   25.1960 C.ar      1 LZL        -0.0629
     21 C13         6.8260  -19.2920   25.6930 C.ar      1 LZL        -0.0625
     22 C7          6.3180  -20.5700   25.4700 C.ar      1 LZL        -0.0556
     23 H1          0.8716  -27.9725   25.0261 H         1 LZL         0.1846
     24 H2          2.2304  -28.3088   23.9201 H         1 LZL         0.1846
     25 H3          1.3077  -23.6084   26.3616 H         1 LZL         0.1001
     26 H4          2.9771  -21.8121   25.8725 H         1 LZL         0.0792
     27 H5          6.7147  -20.7984   22.4123 H         1 LZL         0.0530
     28 H6          6.1815  -21.8768   21.0783 H         1 LZL         0.0530
     29 H7          8.8347  -21.4802   22.2890 H         1 LZL         0.0286
     30 H8          8.3435  -21.6915   20.5741 H         1 LZL         0.0286
     31 H9          9.3560  -23.6348   21.7696 H         1 LZL         0.0286
     32 H10         7.8053  -23.8767   20.8959 H         1 LZL         0.0286
     33 H11         7.3624  -24.7345   22.9659 H         1 LZL         0.0530
     34 H12         8.3113  -23.4574   23.7998 H         1 LZL         0.0530
     35 H13         3.5226  -19.7557   23.7021 H         1 LZL         0.0612
     36 H14         4.4315  -17.4779   24.0955 H         1 LZL         0.0614
     37 H15         6.5329  -17.1902   25.3690 H         1 LZL         0.0608
     38 H16         7.7471  -19.1596   26.2489 H         1 LZL         0.0614
     39 H17         6.8390  -21.4366   25.8608 H         1 LZL         0.0612
@<TRIPOS>BOND
     1    1    2 1  
     2    2    3 ar 
     3    2    7 ar 
     4    3    4 ar 
     5    4    5 ar 
     6    5    6 ar 
     7    5    8 ar 
     8    6   16 ar 
     9    7    8 ar 
    10    8    9 ar 
    11    9   10 ar 
    12   10   11 1  
    13   10   16 ar 
    14   11   12 1  
    15   11   15 1  
    16   12   13 1  
    17   13   14 1  
    18   14   15 1  
    19   16   17 1  
    20   17   18 ar 
    21   17   22 ar 
    22   18   19 ar 
    23   19   20 ar 
    24   20   21 ar 
    25   21   22 ar 
    26    1   23 1  
    27    1   24 1  
    28    4   25 1  
    29    6   26 1  
    30   12   27 1  
    31   12   28 1  
    32   13   29 1  
    33   13   30 1  
    34   14   31 1  
    35   14   32 1  
    36   15   33 1  
    37   15   34 1  
    38   18   35 1  
    39   19   36 1  
    40   20   37 1  
    41   21   38 1  
    42   22   39 1  
@<TRIPOS>SUBSTRUCTURE
     1 LZL         1

