### 
### Created by X-TOOL on Mon Sep 10 21:12:55 2018
### 

@<TRIPOS>MOLECULE
2v5x_ligand
   87    91     1     0     0
SMALL
GAST_HUCK


@<TRIPOS>ATOM
      1 CBI        12.8710   10.8500   52.5410 C.3       1 V5X        -0.0123
      2 CBJ        13.3400   11.1680   51.0980 C.2       1 V5X         0.0352
      3 NBQ        13.7750   12.3620   50.6780 N.pl3     1 V5X        -0.2859
      4 CBR        14.1020   12.2680   49.3900 C.ar      1 V5X         0.0470
      5 CBS        14.6020   13.2090   48.4780 C.ar      1 V5X        -0.0535
      6 CBT        14.8600   12.8110   47.1600 C.ar      1 V5X        -0.0492
      7 CBN        14.6240   11.4860   46.7570 C.ar      1 V5X         0.0688
      8 OBO        14.8820   11.0600   45.4830 O.3       1 V5X        -0.3311
      9 CBP        14.0240   11.6760   44.5110 C.3       1 V5X         0.0566
     10 CBM        14.1310   10.5550   47.6720 C.ar      1 V5X        -0.0536
     11 CBL        13.8690   10.9480   48.9830 C.ar      1 V5X        -0.0395
     12 CBK        13.3930   10.2400   50.0720 C.2       1 V5X        -0.0338
     13 CBH        13.0080    8.7490   50.1170 C.3       1 V5X         0.0474
     14 CBF        14.2620    7.8750   49.9790 C.2       1 V5X         0.1808
     15 OBG        14.6390    7.4580   48.8820 O.2       1 V5X        -0.3960
     16 N          14.8500    7.6470   51.1510 N.am      1 V5X        -0.2650
     17 CA         16.0760    6.8570   51.4960 C.3       1 V5X         0.1308
     18 CB         17.3990    7.5650   51.1300 C.3       1 V5X        -0.0124
     19 CAV        18.6020    6.6210   51.3370 C.3       1 V5X        -0.0487
     20 CAW        19.7730    7.2020   52.1240 C.3       1 V5X        -0.0508
     21 CAX        21.0910    6.4620   51.8400 C.3       1 V5X        -0.0361
     22 CAY        22.2620    7.0480   52.6290 C.3       1 V5X         0.0389
     23 CAZ        23.6310    6.8460   51.9410 C.2       1 V5X         0.1988
     24 OBE        24.1670    5.7340   51.8260 O.2       1 V5X        -0.3970
     25 NBA        24.1910    7.9640   51.5220 N.am      1 V5X        -0.1642
     26 OBB        25.4090    7.9740   50.9050 O.3       1 V5X        -0.2717
     27 C          16.1010    5.3230   51.1720 C.2       1 V5X         0.2018
     28 O          16.6290    4.8140   50.1810 O.2       1 V5X        -0.3945
     29 NAR        15.5710    4.5850   52.1180 N.am      1 V5X        -0.2836
     30 CAQ        15.5330    3.1120   52.0510 C.3       1 V5X         0.0366
     31 CAP        15.0790    2.4370   50.7300 C.3       1 V5X        -0.0110
     32 CAL        15.1580    0.9330   51.0480 C.2       1 V5X        -0.0288
     33 CAM        14.5320    0.4030   52.1720 C.ar      1 V5X        -0.0144
     34 CAN        13.7410    1.0020   53.1640 C.ar      1 V5X        -0.0722
     35 CAO        13.2170    0.2430   54.1990 C.ar      1 V5X        -0.0779
     36 CAK        13.5100   -1.1140   54.2040 C.ar      1 V5X        -0.0756
     37 CAJ        14.2970   -1.7110   53.2160 C.ar      1 V5X        -0.0429
     38 CAI        14.8160   -0.9550   52.1810 C.ar      1 V5X         0.0620
     39 NAH        15.5920   -1.2490   51.1220 N.pl3     1 V5X        -0.2821
     40 CAG        15.8540   -0.1240   50.4250 C.2       1 V5X         0.0625
     41 CAF        16.5460    0.0000   49.2030 C.ar      1 V5X        -0.0047
     42 CAE        16.6150   -1.1090   48.3580 C.ar      1 V5X        -0.0571
     43 CAD        17.2180   -1.0330   47.1050 C.ar      1 V5X        -0.0651
     44 CAA        17.7480    0.1730   46.6570 C.ar      1 V5X        -0.0654
     45 CAB        17.6610    1.2980   47.4770 C.ar      1 V5X        -0.0651
     46 CAC        17.0480    1.2130   48.7320 C.ar      1 V5X        -0.0571
     47 H1         12.5682    9.7944   52.6039 H         1 V5X         0.0409
     48 H2         12.0162   11.4925   52.7987 H         1 V5X         0.0409
     49 H3         13.6958   11.0374   53.2443 H         1 V5X         0.0409
     50 H4         13.8453   13.2124   51.2549 H         1 V5X         0.2195
     51 H5         14.7864   14.2309   48.7891 H         1 V5X         0.0515
     52 H6         15.2444   13.5304   46.4460 H         1 V5X         0.0453
     53 H7         14.2748   11.2982   43.5088 H         1 V5X         0.0573
     54 H8         14.1639   12.7667   44.5373 H         1 V5X         0.0573
     55 H9         12.9759   11.4350   44.7420 H         1 V5X         0.0573
     56 H10        13.9527    9.5309   47.3645 H         1 V5X         0.0406
     57 H11        12.3171    8.5267   49.2904 H         1 V5X         0.0553
     58 H12        12.5155    8.5294   51.0757 H         1 V5X         0.0553
     59 H13        14.3975    8.0750   51.9333 H         1 V5X         0.1883
     60 H14        16.0679    6.8724   52.5959 H         1 V5X         0.0800
     61 H15        17.5223    8.4516   51.7694 H         1 V5X         0.0312
     62 H16        17.3619    7.8757   50.0754 H         1 V5X         0.0312
     63 H17        18.9749    6.3266   50.3449 H         1 V5X         0.0267
     64 H18        18.2437    5.7300   51.8733 H         1 V5X         0.0267
     65 H19        19.5494    7.1267   53.1984 H         1 V5X         0.0267
     66 H20        19.8947    8.2598   51.8481 H         1 V5X         0.0267
     67 H21        21.3149    6.5363   50.7656 H         1 V5X         0.0289
     68 H22        20.9707    5.4043   52.1173 H         1 V5X         0.0289
     69 H23        22.2937    6.5640   53.6163 H         1 V5X         0.0502
     70 H24        22.0916    8.1274   52.7551 H         1 V5X         0.0502
     71 H25        23.7096    8.8296   51.6602 H         1 V5X         0.2216
     72 H26        25.3671    7.4472   50.1155 H         1 V5X         0.2490
     73 H27        15.1768    5.0393   52.9169 H         1 V5X         0.1853
     74 H28        14.8486    2.7696   52.8411 H         1 V5X         0.0537
     75 H29        16.5500    2.7519   52.2654 H         1 V5X         0.0537
     76 H30        15.7542    2.6996   49.9022 H         1 V5X         0.0392
     77 H31        14.0508    2.7306   50.4718 H         1 V5X         0.0392
     78 H32        13.5381    2.0660   53.1208 H         1 V5X         0.0550
     79 H33        12.6037    0.6907   54.9726 H         1 V5X         0.0513
     80 H34        13.1145   -1.7318   55.0021 H         1 V5X         0.0540
     81 H35        14.5022   -2.7744   53.2611 H         1 V5X         0.0541
     82 H36        15.9341   -2.1900   50.8802 H         1 V5X         0.2187
     83 H37        16.1894   -2.0510   48.6846 H         1 V5X         0.0592
     84 H38        17.2746   -1.9151   46.4775 H         1 V5X         0.0608
     85 H39        18.2219    0.2374   45.6842 H         1 V5X         0.0587
     86 H40        18.0706    2.2434   47.1402 H         1 V5X         0.0608
     87 H41        16.9621    2.1019   49.3464 H         1 V5X         0.0592
@<TRIPOS>BOND
     1    1    2 1  
     2    2    3 1  
     3    2   12 2  
     4    3    4 1  
     5    4    5 ar 
     6    4   11 ar 
     7    5    6 ar 
     8    6    7 ar 
     9    7    8 1  
    10    7   10 ar 
    11    8    9 1  
    12   10   11 ar 
    13   11   12 1  
    14   12   13 1  
    15   13   14 1  
    16   14   15 2  
    17   14   16 am 
    18   16   17 1  
    19   17   18 1  
    20   17   27 1  
    21   18   19 1  
    22   19   20 1  
    23   20   21 1  
    24   21   22 1  
    25   22   23 1  
    26   23   24 2  
    27   23   25 am 
    28   25   26 1  
    29   27   28 2  
    30   27   29 am 
    31   29   30 1  
    32   30   31 1  
    33   31   32 1  
    34   32   33 1  
    35   32   40 2  
    36   33   34 ar 
    37   33   38 ar 
    38   34   35 ar 
    39   35   36 ar 
    40   36   37 ar 
    41   37   38 ar 
    42   38   39 1  
    43   39   40 1  
    44   40   41 1  
    45   41   42 ar 
    46   41   46 ar 
    47   42   43 ar 
    48   43   44 ar 
    49   44   45 ar 
    50   45   46 ar 
    51    1   47 1  
    52    1   48 1  
    53    1   49 1  
    54    3   50 1  
    55    5   51 1  
    56    6   52 1  
    57    9   53 1  
    58    9   54 1  
    59    9   55 1  
    60   10   56 1  
    61   13   57 1  
    62   13   58 1  
    63   16   59 1  
    64   17   60 1  
    65   18   61 1  
    66   18   62 1  
    67   19   63 1  
    68   19   64 1  
    69   20   65 1  
    70   20   66 1  
    71   21   67 1  
    72   21   68 1  
    73   22   69 1  
    74   22   70 1  
    75   25   71 1  
    76   26   72 1  
    77   29   73 1  
    78   30   74 1  
    79   30   75 1  
    80   31   76 1  
    81   31   77 1  
    82   34   78 1  
    83   35   79 1  
    84   36   80 1  
    85   37   81 1  
    86   39   82 1  
    87   42   83 1  
    88   43   84 1  
    89   44   85 1  
    90   45   86 1  
    91   46   87 1  
@<TRIPOS>SUBSTRUCTURE
     1 V5X         1

