### 
### Created by X-TOOL on Mon Sep 10 21:12:57 2018
### 

@<TRIPOS>MOLECULE
2v6n_ligand
   22    22     1     0     0
SMALL
GAST_HUCK


@<TRIPOS>ATOM
      1 CAG       -19.2470  -40.3620  -20.4190 C.3       1 XP1         0.0164
      2 NAF       -18.6060  -41.2770  -19.4380 N.pl3     1 XP1        -0.3117
      3 CAK       -18.8750  -41.0490  -18.0070 C.3       1 XP1         0.0164
      4 CAE       -17.7690  -42.3060  -19.7860 C.ar      1 XP1         0.0458
      5 CAJ       -17.4520  -42.5650  -21.1180 C.ar      1 XP1        -0.0375
      6 CAI       -16.5990  -43.6260  -21.4510 C.ar      1 XP1        -0.0547
      7 CAD       -16.0400  -44.4240  -20.4350 C.ar      1 XP1         0.0164
      8 CAC       -15.1010  -45.5650  -20.8110 C.2       1 XP1         0.1168
      9 OAH       -14.6400  -46.3000  -19.9350 O.2       1 XP1        -0.3692
     10 CAA       -16.3300  -44.1800  -19.0840 C.ar      1 XP1        -0.0547
     11 CAB       -17.2040  -43.1270  -18.7800 C.ar      1 XP1        -0.0375
     12 H1        -19.8673  -39.6276  -19.8843 H         1 XP1         0.0480
     13 H2        -19.8786  -40.9448  -21.1056 H         1 XP1         0.0480
     14 H3        -18.4694  -39.8366  -20.9928 H         1 XP1         0.0480
     15 H4        -18.3364  -41.7987  -17.4087 H         1 XP1         0.0480
     16 H5        -19.9552  -41.1366  -17.8184 H         1 XP1         0.0480
     17 H6        -18.5341  -40.0417  -17.7257 H         1 XP1         0.0480
     18 H7        -17.8678  -41.9419  -21.9016 H         1 XP1         0.0532
     19 H8        -16.3699  -43.8320  -22.4903 H         1 XP1         0.0640
     20 H9        -14.8372  -45.7309  -21.8545 H         1 XP1         0.1311
     21 H10       -15.8919  -44.7868  -18.2999 H         1 XP1         0.0640
     22 H11       -17.4550  -42.9353  -17.7430 H         1 XP1         0.0532
@<TRIPOS>BOND
     1    1    2 1  
     2    2    3 1  
     3    2    4 1  
     4    4    5 ar 
     5    4   11 ar 
     6    5    6 ar 
     7    6    7 ar 
     8    7    8 1  
     9    7   10 ar 
    10    8    9 2  
    11   10   11 ar 
    12    1   12 1  
    13    1   13 1  
    14    1   14 1  
    15    3   15 1  
    16    3   16 1  
    17    3   17 1  
    18    5   18 1  
    19    6   19 1  
    20    8   20 1  
    21   10   21 1  
    22   11   22 1  
@<TRIPOS>SUBSTRUCTURE
     1 XP1         1

