### 
### Created by X-TOOL on Mon Sep 10 21:12:57 2018
### 

@<TRIPOS>MOLECULE
2v77_ligand
   34    33     1     0     0
SMALL
GAST_HUCK


@<TRIPOS>ATOM
      1 O42       115.0920   41.3610   43.7370 O.co2     1 PAY        -0.5690
      2 O41       114.1920   43.3080   44.2840 O.co2     1 PAY        -0.5690
      3 C4        115.1260   42.4690   44.3390 C.2       1 PAY         0.0349
      4 C41       116.3410   42.8290   45.1670 C.3       1 PAY         0.0020
      5 C32       116.7840   41.6810   46.1300 C.3       1 PAY        -0.0269
      6 C31       115.8290   41.4420   47.3460 C.3       1 PAY         0.0150
      7 C3        116.1300   40.1030   48.0050 C.2       1 PAY         0.0381
      8 O31       116.8650   40.0480   49.0260 O.co2     1 PAY        -0.5687
      9 O32       115.6020   39.0830   47.4850 O.co2     1 PAY        -0.5687
     10 C22       115.8490   42.6700   48.3550 C.3       1 PAY        -0.0240
     11 C21       114.9670   42.5080   49.6410 C.3       1 PAY         0.0153
     12 C2        113.5710   42.0430   49.3000 C.2       1 PAY         0.0381
     13 O21       112.7300   42.8520   48.8230 O.co2     1 PAY        -0.5687
     14 O22       113.3210   40.8160   49.5010 O.co2     1 PAY        -0.5687
     15 C12       115.0040   43.8260   50.5140 C.3       1 PAY        -0.0243
     16 C11       114.0620   43.8150   51.7720 C.3       1 PAY         0.0107
     17 C10       114.0210   45.2180   52.4390 C.3       1 PAY        -0.0506
     18 C1        114.5170   42.8040   52.8150 C.2       1 PAY         0.0377
     19 O12       115.4500   43.1130   53.6070 O.co2     1 PAY        -0.5687
     20 O11       113.9350   41.6880   52.8510 O.co2     1 PAY        -0.5687
     21 H1        116.1046   43.7194   45.7681 H         1 PAY         0.0432
     22 H2        117.1744   43.0569   44.4862 H         1 PAY         0.0432
     23 H3        117.7818   41.9282   46.5215 H         1 PAY         0.0303
     24 H4        116.8387   40.7485   45.5491 H         1 PAY         0.0303
     25 H5        114.8052   41.3782   46.9489 H         1 PAY         0.0468
     26 H6        115.4951   43.5590   47.8124 H         1 PAY         0.0306
     27 H7        116.8893   42.8265   48.6763 H         1 PAY         0.0306
     28 H8        115.4227   41.7127   50.2492 H         1 PAY         0.0468
     29 H9        114.7071   44.6688   49.8726 H         1 PAY         0.0306
     30 H10       116.0366   43.9761   50.8621 H         1 PAY         0.0306
     31 H11       113.0480   43.5472   51.4402 H         1 PAY         0.0464
     32 H12       113.3573   45.1879   53.3157 H         1 PAY         0.0250
     33 H13       113.6417   45.9563   51.7171 H         1 PAY         0.0250
     34 H14       115.0349   45.5029   52.7564 H         1 PAY         0.0250
@<TRIPOS>BOND
     1    1    3 ar 
     2    3    2 ar 
     3    3    4 1  
     4    4    5 1  
     5    5    6 1  
     6    6    7 1  
     7    6   10 1  
     8    7    8 ar 
     9    7    9 ar 
    10   10   11 1  
    11   11   12 1  
    12   11   15 1  
    13   12   13 ar 
    14   12   14 ar 
    15   15   16 1  
    16   16   17 1  
    17   16   18 1  
    18   18   19 ar 
    19   18   20 ar 
    20    4   21 1  
    21    4   22 1  
    22    5   23 1  
    23    5   24 1  
    24    6   25 1  
    25   10   26 1  
    26   10   27 1  
    27   11   28 1  
    28   15   29 1  
    29   15   30 1  
    30   16   31 1  
    31   17   32 1  
    32   17   33 1  
    33   17   34 1  
@<TRIPOS>SUBSTRUCTURE
     1 PAY         1

