### 
### Created by X-TOOL on Mon Sep 10 21:12:56 2018
### 

@<TRIPOS>MOLECULE
2v7a_ligand
   66    70     1     0     0
SMALL
GAST_HUCK


@<TRIPOS>ATOM
      1 N1        -41.5340  -46.3820  -10.4830 N.am      1 627        -0.2534
      2 N2        -38.9440  -47.7120  -12.6370 N.pl3     1 627        -0.2433
      3 C3        -40.4680  -49.3270  -12.4040 C.2       1 627         0.1027
      4 N4        -39.2690  -49.0590  -12.9530 N.2       1 627        -0.2404
      5 N5        -41.0120  -50.5850  -12.5470 N.am      1 627        -0.2391
      6 C6        -42.2820  -50.9100  -12.3700 C.2       1 627         0.2181
      7 C7        -42.6550  -52.3300  -12.5570 C.ar      1 627         0.0412
      8 O8        -43.1600  -50.1190  -12.0800 O.2       1 627        -0.3816
      9 C9        -43.8250  -52.7650  -11.9540 C.ar      1 627        -0.0531
     10 C10       -44.2500  -54.0700  -12.0910 C.ar      1 627        -0.0381
     11 C11       -42.2860  -54.4960  -13.4390 C.ar      1 627        -0.0381
     12 C12       -41.8650  -53.1850  -13.3110 C.ar      1 627        -0.0531
     13 C13       -39.9680  -47.2170  -11.9130 C.2       1 627         0.0786
     14 C14       -40.9620  -48.2280  -11.7300 C.2       1 627         0.0146
     15 C15       -42.0890  -47.7140  -10.8900 C.3       1 627         0.0514
     16 C16       -40.3240  -45.9500  -11.2150 C.3       1 627         0.0897
     17 N17       -43.9090  -56.2660  -12.9770 N.pl3     1 627        -0.2958
     18 C18       -44.8070  -56.7740  -12.2280 C.3       1 627         0.0680
     19 C19       -44.5700  -57.9900  -11.7140 C.3       1 627        -0.0118
     20 N20       -43.6110  -58.8840  -12.3120 N.4       1 627         0.2359
     21 C21       -42.6240  -58.1950  -13.1890 C.3       1 627        -0.0118
     22 C22       -43.2910  -57.0970  -14.0150 C.3       1 627         0.0680
     23 C23       -42.8610  -59.6260  -11.2800 C.3       1 627        -0.0430
     24 C24       -43.4780  -54.9360  -12.8330 C.ar      1 627         0.0460
     25 C25       -42.0550  -45.5900   -9.5330 C.2       1 627         0.2222
     26 O26       -41.5580  -44.5040   -9.2400 O.2       1 627        -0.3907
     27 C27       -43.5290  -48.3090   -7.7100 C.ar      1 627        -0.0555
     28 C28       -43.1140  -49.2810   -6.8010 C.ar      1 627        -0.0680
     29 C29       -42.8400  -47.0760   -7.7950 C.ar      1 627         0.0044
     30 C31       -42.0120  -49.0070   -5.9660 C.ar      1 627        -0.0684
     31 C33       -41.7460  -46.8220   -6.9410 C.ar      1 627        -0.0555
     32 C20       -43.2740  -46.0540   -8.7970 C.3       1 627         0.1804
     33 C35       -41.3300  -47.7880   -6.0390 C.ar      1 627        -0.0680
     34 C36       -45.1420  -45.2110   -7.5230 C.3       1 627         0.0424
     35 O34       -43.9080  -44.9170   -8.2070 O.3       1 627        -0.3473
     36 H1        -38.0876  -47.2088  -12.9097 H         1 627         0.2389
     37 H2        -40.3882  -51.3213  -12.8092 H         1 627         0.2188
     38 H3        -44.4140  -52.0699  -11.3667 H         1 627         0.0636
     39 H4        -45.1697  -54.4059  -11.6258 H         1 627         0.0530
     40 H5        -41.6896  -55.1949  -14.0142 H         1 627         0.0530
     41 H6        -40.9522  -52.8387  -13.7821 H         1 627         0.0636
     42 H7        -43.0156  -47.6078  -11.4732 H         1 627         0.0576
     43 H8        -42.2755  -48.3603  -10.0197 H         1 627         0.0576
     44 H9        -39.5275  -45.6257  -10.5291 H         1 627         0.0708
     45 H10       -40.5462  -45.1417  -11.9272 H         1 627         0.0708
     46 H11       -45.7311  -56.8414  -12.8209 H         1 627         0.0569
     47 H12       -44.9616  -56.0845  -11.3850 H         1 627         0.0569
     48 H13       -45.5332  -58.5213  -11.7156 H         1 627         0.0834
     49 H14       -44.2411  -57.8302  -10.6766 H         1 627         0.0834
     50 H15       -44.1229  -59.5451  -12.8750 H         1 627         0.2032
     51 H16       -42.1729  -58.9320  -13.8696 H         1 627         0.0834
     52 H17       -41.8393  -57.7460  -12.5624 H         1 627         0.0834
     53 H18       -42.5498  -56.5270  -14.5944 H         1 627         0.0569
     54 H19       -44.0475  -57.5135  -14.6963 H         1 627         0.0569
     55 H20       -43.5674  -60.1460  -10.6162 H         1 627         0.0778
     56 H21       -42.2543  -58.9226  -10.6908 H         1 627         0.0778
     57 H22       -42.2024  -60.3624  -11.7637 H         1 627         0.0778
     58 H23       -44.3811  -48.4981   -8.3529 H         1 627         0.0562
     59 H24       -43.6304  -50.2320   -6.7374 H         1 627         0.0600
     60 H25       -41.6866  -49.7559   -5.2531 H         1 627         0.0561
     61 H26       -41.2303  -45.8698   -6.9906 H         1 627         0.0562
     62 H27       -43.9774  -46.5235   -9.5005 H         1 627         0.1000
     63 H28       -40.4801  -47.5999   -5.3930 H         1 627         0.0600
     64 H29       -45.5580  -44.2836   -7.1023 H         1 627         0.0528
     65 H30       -44.9495  -45.9278   -6.7112 H         1 627         0.0528
     66 H31       -45.8605  -45.6458   -8.2334 H         1 627         0.0528
@<TRIPOS>BOND
     1    1   15 1  
     2    1   16 1  
     3   25    1 am 
     4    2    4 1  
     5   13    2 1  
     6    3    4 2  
     7    3    5 1  
     8   14    3 1  
     9    5    6 am 
    10    6    7 1  
    11    6    8 2  
    12    7    9 ar 
    13    7   12 ar 
    14    9   10 ar 
    15   10   24 ar 
    16   12   11 ar 
    17   11   24 ar 
    18   13   14 2  
    19   16   13 1  
    20   15   14 1  
    21   17   18 1  
    22   17   22 1  
    23   24   17 1  
    24   18   19 1  
    25   19   20 1  
    26   21   20 1  
    27   20   23 1  
    28   22   21 1  
    29   25   26 2  
    30   32   25 1  
    31   27   28 ar 
    32   29   27 ar 
    33   28   30 ar 
    34   29   31 ar 
    35   29   32 1  
    36   30   33 ar 
    37   31   33 ar 
    38   32   35 1  
    39   35   34 1  
    40    2   36 1  
    41    5   37 1  
    42    9   38 1  
    43   10   39 1  
    44   11   40 1  
    45   12   41 1  
    46   15   42 1  
    47   15   43 1  
    48   16   44 1  
    49   16   45 1  
    50   18   46 1  
    51   18   47 1  
    52   19   48 1  
    53   19   49 1  
    54   20   50 1  
    55   21   51 1  
    56   21   52 1  
    57   22   53 1  
    58   22   54 1  
    59   23   55 1  
    60   23   56 1  
    61   23   57 1  
    62   27   58 1  
    63   28   59 1  
    64   30   60 1  
    65   31   61 1  
    66   32   62 1  
    67   33   63 1  
    68   34   64 1  
    69   34   65 1  
    70   34   66 1  
@<TRIPOS>SUBSTRUCTURE
     1 627         1

