### 
### Created by X-TOOL on Mon Sep 10 21:12:55 2018
### 

@<TRIPOS>MOLECULE
2v88_ligand
  136   135     1     0     0
SMALL
GAST_HUCK


@<TRIPOS>ATOM
      1 N          -7.6580   -1.0980    7.8710 N.4       1 ALA         0.2377
      2 CA         -8.4980   -1.7120    6.8010 C.3       1 ALA         0.0621
      3 C          -8.7720   -3.1780    7.0950 C.2       1 ALA         0.2264
      4 O          -7.9210   -3.8810    7.6320 O.2       1 ALA        -0.3907
      5 CB         -7.8030   -1.5770    5.4480 C.3       1 ALA        -0.0040
      6 N          -9.9740   -3.6320    6.7460 N.am      1 2MR        -0.2610
      7 CA        -10.3470   -5.0260    6.9540 C.3       1 2MR         0.1312
      8 CB        -11.8480   -5.2180    6.7500 C.3       1 2MR        -0.0092
      9 CG        -12.6930   -5.1700    8.0130 C.3       1 2MR        -0.0156
     10 CD        -14.0100   -4.4560    7.7380 C.3       1 2MR         0.0627
     11 NE        -14.9350   -5.2470    6.9210 N.pl3     1 2MR        -0.2721
     12 CZ        -16.0640   -4.8740    6.2320 C.cat     1 2MR         0.2920
     13 NH1       -16.6890   -5.8540    5.5750 N.pl3     1 2MR        -0.2748
     14 CQ1       -17.9270   -5.5620    4.7940 C.3       1 2MR         0.0514
     15 NH2       -16.6080   -3.6050    6.1530 N.pl3     1 2MR        -0.2748
     16 CQ2       -16.1090   -2.3940    6.7790 C.3       1 2MR         0.0514
     17 C          -9.5720   -5.8880    5.9730 C.2       1 2MR         0.2040
     18 O          -9.3960   -5.5090    4.8250 O.2       1 2MR        -0.3944
     19 N          -9.1090   -7.0460    6.4270 N.am      1 THR        -0.2613
     20 CA         -8.3470   -7.9350    5.5640 C.3       1 THR         0.1565
     21 C          -8.5620   -9.4010    5.9100 C.2       1 THR         0.2065
     22 O          -9.1560   -9.7250    6.9290 O.2       1 THR        -0.3943
     23 CB         -6.8290   -7.6570    5.6650 C.3       1 THR         0.0924
     24 OG1        -6.3960   -7.8840    7.0130 O.3       1 THR        -0.3874
     25 CG2        -6.5090   -6.2180    5.2520 C.3       1 THR        -0.0346
     26 N          -8.0590  -10.2700    5.0370 N.am      1 MLY        -0.2637
     27 CA         -8.1390  -11.7160    5.2110 C.3       1 MLY         0.1310
     28 CB         -9.1220  -12.3150    4.2160 C.3       1 MLY        -0.0122
     29 CG        -10.5810  -11.9440    4.4300 C.3       1 MLY        -0.0440
     30 CD        -11.3820  -12.3620    3.2080 C.3       1 MLY        -0.0123
     31 CE        -12.8810  -12.3280    3.4440 C.3       1 MLY        -0.0324
     32 NZ        -13.6730  -12.7460    2.2340 N.4       1 MLY         0.2309
     33 CH1       -13.7600  -11.7600    1.1160 C.3       1 MLY        -0.0433
     34 CH2       -13.3580  -14.1050    1.6730 C.3       1 MLY        -0.0433
     35 C          -6.7650  -12.3420    4.9700 C.2       1 MLY         0.2039
     36 O          -6.0280  -11.9180    4.0940 O.2       1 MLY        -0.3944
     37 N          -6.4430  -13.3670    5.7470 N.am      1 GLN        -0.2636
     38 CA         -5.1740  -14.0680    5.6130 C.3       1 GLN         0.1330
     39 C          -3.9630  -13.1640    5.8200 C.2       1 GLN         0.2041
     40 O          -2.9700  -13.2870    5.1150 O.2       1 GLN        -0.3944
     41 CB         -5.0730  -14.7320    4.2340 C.3       1 GLN         0.0045
     42 CG         -6.2130  -15.6870    3.9100 C.3       1 GLN         0.0412
     43 CD         -6.4010  -16.7430    4.9820 C.2       1 GLN         0.1737
     44 OE1        -5.4370  -17.3280    5.4660 O.2       1 GLN        -0.3973
     45 NE2        -7.6520  -16.9970    5.3490 N.am      1 GLN        -0.3009
     46 N          -4.0480  -12.2520    6.7810 N.am      1 THR        -0.2613
     47 CA         -2.9230  -11.3730    7.0680 C.3       1 THR         0.1565
     48 C          -2.4000  -11.6520    8.4720 C.2       1 THR         0.2065
     49 O          -1.5350  -10.9470    8.9660 O.2       1 THR        -0.3943
     50 CB         -3.3090   -9.8860    6.9700 C.3       1 THR         0.0924
     51 OG1        -4.4550   -9.6400    7.7840 O.3       1 THR        -0.3874
     52 CG2        -3.6130   -9.5040    5.5320 C.3       1 THR        -0.0346
     53 N          -2.9360  -12.6910    9.1040 N.am      1 ALA        -0.2639
     54 CA         -2.5180  -13.0670   10.4520 C.3       1 ALA         0.1282
     55 C          -1.2560  -13.9130   10.3790 C.2       1 ALA         0.2031
     56 O          -1.2630  -14.9890    9.8020 O.2       1 ALA        -0.3944
     57 CB         -3.6260  -13.8440   11.1420 C.3       1 ALA        -0.0244
     58 N          -0.1770  -13.4180   10.9760 N.am      1 ALA        -0.2698
     59 CA          1.1010  -14.1220   10.9630 C.3       1 ALA         0.0916
     60 C           0.9310  -15.6260   11.1560 C.2       1 ALA         0.0598
     61 O           0.0330  -16.0310   11.9260 O.co2     1 ALA        -0.5666
     62 CB          2.0180  -13.5540   12.0480 C.3       1 ALA        -0.0300
     63 OXT         1.7090  -16.3860   10.5420 O.co2     1 ALA        -0.5666
     64 H1         -7.4914   -0.1282    7.6524 H         1 ALA         0.2015
     65 H2         -6.7776   -1.5855    7.9283 H         1 ALA         0.2015
     66 H3         -8.1376   -1.1655    8.7550 H         1 ALA         0.2015
     67 H4         -9.4584   -1.1773    6.7606 H         1 ALA         0.1095
     68 H5         -8.4296   -2.0322    4.6669 H         1 ALA         0.0310
     69 H6         -6.8303   -2.0895    5.4826 H         1 ALA         0.0310
     70 H7         -7.6485   -0.5121    5.2198 H         1 ALA         0.0310
     71 H8        -10.6340   -3.0044    6.3330 H         1 2MR         0.1884
     72 H9        -10.0865   -5.3206    7.9813 H         1 2MR         0.0800
     73 H10       -12.0027   -6.1986    6.2762 H         1 2MR         0.0313
     74 H11       -12.2023   -4.4248    6.0753 H         1 2MR         0.0313
     75 H12       -12.1435   -4.6292    8.7975 H         1 2MR         0.0301
     76 H13       -12.8998   -6.1961    8.3511 H         1 2MR         0.0301
     77 H14       -13.7943   -3.5152    7.2104 H         1 2MR         0.0689
     78 H15       -14.4951   -4.2341    8.7000 H         1 2MR         0.0689
     79 H16       -14.7000   -6.2475    6.8520 H         1 2MR         0.2642
     80 H17       -16.3160   -6.8136    5.6072 H         1 2MR         0.2639
     81 H18       -18.2930   -6.4883    4.3271 H         1 2MR         0.0652
     82 H19       -17.7013   -4.8218    4.0122 H         1 2MR         0.0652
     83 H20       -18.6991   -5.1608    5.4670 H         1 2MR         0.0652
     84 H21       -17.4629   -3.5083    5.5866 H         1 2MR         0.2639
     85 H22       -16.7670   -1.5507    6.5223 H         1 2MR         0.0652
     86 H23       -15.0906   -2.1875    6.4181 H         1 2MR         0.0652
     87 H24       -16.0914   -2.5261    7.8709 H         1 2MR         0.0652
     88 H25        -9.2863   -7.3108    7.3749 H         1 THR         0.1884
     89 H26        -8.6735   -7.7641    4.5276 H         1 THR         0.0826
     90 H27        -6.2948   -8.3456    4.9939 H         1 THR         0.0639
     91 H28        -6.8666   -7.3018    7.5979 H         1 THR         0.2101
     92 H29        -5.4255   -6.0458    5.3323 H         1 THR         0.0257
     93 H30        -7.0413   -5.5194    5.9143 H         1 THR         0.0257
     94 H31        -6.8301   -6.0548    4.2127 H         1 THR         0.0257
     95 H32        -7.6035   -9.9141    4.2210 H         1 MLY         0.1883
     96 H33        -8.4718  -11.9396    6.2353 H         1 MLY         0.0800
     97 H34        -9.0390  -13.4102    4.2757 H         1 MLY         0.0312
     98 H35        -8.8316  -11.9795    3.2095 H         1 MLY         0.0312
     99 H36       -10.6679  -10.8569    4.5737 H         1 MLY         0.0269
    100 H37       -10.9671  -12.4635    5.3194 H         1 MLY         0.0269
    101 H38       -11.0933  -13.3872    2.9329 H         1 MLY         0.0317
    102 H39       -11.1415  -11.6787    2.3802 H         1 MLY         0.0317
    103 H40       -13.1705  -11.3023    3.7160 H         1 MLY         0.0814
    104 H41       -13.1215  -13.0091    4.2736 H         1 MLY         0.0814
    105 H42       -14.6151  -12.8220    2.5843 H         1 MLY         0.2028
    106 H43       -14.3617  -12.1845    0.2988 H         1 MLY         0.0777
    107 H44       -12.7487  -11.5335    0.7473 H         1 MLY         0.0777
    108 H45       -14.2338  -10.8357    1.4783 H         1 MLY         0.0777
    109 H46       -13.2931  -14.8344    2.4938 H         1 MLY         0.0777
    110 H47       -12.3971  -14.0675    1.1389 H         1 MLY         0.0777
    111 H48       -14.1534  -14.4073    0.9759 H         1 MLY         0.0777
    112 H49        -7.0915  -13.6677    6.4463 H         1 GLN         0.1883
    113 H50        -5.1445  -14.8544    6.3816 H         1 GLN         0.0801
    114 H51        -4.1296  -15.2961    4.1922 H         1 GLN         0.0337
    115 H52        -5.0607  -13.9398    3.4709 H         1 GLN         0.0337
    116 H53        -5.9948  -16.1873    2.9550 H         1 GLN         0.0504
    117 H54        -7.1437  -15.1082    3.8165 H         1 GLN         0.0504
    118 H55        -7.8372  -17.6838    6.0519 H         1 GLN         0.1814
    119 H56        -8.4086  -16.5015    4.9224 H         1 GLN         0.1814
    120 H57        -4.8912  -12.1680    7.3120 H         1 THR         0.1884
    121 H58        -2.1256  -11.5781    6.3386 H         1 THR         0.0826
    122 H59        -2.4699   -9.2738    7.3321 H         1 THR         0.0639
    123 H60        -4.6937   -8.7224    7.7239 H         1 THR         0.2101
    124 H61        -3.8859   -8.4394    5.4853 H         1 THR         0.0257
    125 H62        -4.4495  -10.1136    5.1596 H         1 THR         0.0257
    126 H63        -2.7238   -9.6821    4.9094 H         1 THR         0.0257
    127 H64        -3.6432  -13.2288    8.6451 H         1 ALA         0.1883
    128 H65        -2.3065  -12.1554   11.0301 H         1 ALA         0.0797
    129 H66        -3.3021  -14.1225   12.1557 H         1 ALA         0.0277
    130 H67        -3.8496  -14.7538   10.5656 H         1 ALA         0.0277
    131 H68        -4.5286  -13.2184   11.2045 H         1 ALA         0.0277
    132 H69        -0.2427  -12.5385   11.4473 H         1 ALA         0.1875
    133 H70         1.5734  -13.9550    9.9837 H         1 ALA         0.0723
    134 H71         2.9791  -14.0888   12.0327 H         1 ALA         0.0270
    135 H72         1.5436  -13.6806   13.0323 H         1 ALA         0.0270
    136 H73         2.1907  -12.4842   11.8591 H         1 ALA         0.0270
@<TRIPOS>BOND
     1    1    2 1  
     2    2    3 1  
     3    2    5 1  
     4    3    4 2  
     5    3    6 am 
     6    6    7 1  
     7    7    8 1  
     8    7   17 1  
     9    8    9 1  
    10    9   10 1  
    11   10   11 1  
    12   11   12 ar 
    13   12   13 ar 
    14   12   15 ar 
    15   13   14 1  
    16   15   16 1  
    17   17   18 2  
    18   17   19 am 
    19   19   20 1  
    20   20   21 1  
    21   20   23 1  
    22   21   22 2  
    23   21   26 am 
    24   23   24 1  
    25   23   25 1  
    26   26   27 1  
    27   27   28 1  
    28   27   35 1  
    29   28   29 1  
    30   29   30 1  
    31   30   31 1  
    32   31   32 1  
    33   32   33 1  
    34   32   34 1  
    35   35   36 2  
    36   35   37 am 
    37   37   38 1  
    38   38   39 1  
    39   38   41 1  
    40   39   40 2  
    41   39   46 am 
    42   41   42 1  
    43   42   43 1  
    44   43   44 2  
    45   43   45 am 
    46   46   47 1  
    47   47   48 1  
    48   47   50 1  
    49   48   49 2  
    50   48   53 am 
    51   50   51 1  
    52   50   52 1  
    53   53   54 1  
    54   54   55 1  
    55   54   57 1  
    56   55   56 2  
    57   55   58 am 
    58   58   59 1  
    59   59   60 1  
    60   59   62 1  
    61   60   61 ar 
    62   60   63 ar 
    63    1   64 1  
    64    1   65 1  
    65    1   66 1  
    66    2   67 1  
    67    5   68 1  
    68    5   69 1  
    69    5   70 1  
    70    6   71 1  
    71    7   72 1  
    72    8   73 1  
    73    8   74 1  
    74    9   75 1  
    75    9   76 1  
    76   10   77 1  
    77   10   78 1  
    78   11   79 1  
    79   13   80 1  
    80   14   81 1  
    81   14   82 1  
    82   14   83 1  
    83   15   84 1  
    84   16   85 1  
    85   16   86 1  
    86   16   87 1  
    87   19   88 1  
    88   20   89 1  
    89   23   90 1  
    90   24   91 1  
    91   25   92 1  
    92   25   93 1  
    93   25   94 1  
    94   26   95 1  
    95   27   96 1  
    96   28   97 1  
    97   28   98 1  
    98   29   99 1  
    99   29  100 1  
   100   30  101 1  
   101   30  102 1  
   102   31  103 1  
   103   31  104 1  
   104   32  105 1  
   105   33  106 1  
   106   33  107 1  
   107   33  108 1  
   108   34  109 1  
   109   34  110 1  
   110   34  111 1  
   111   37  112 1  
   112   38  113 1  
   113   41  114 1  
   114   41  115 1  
   115   42  116 1  
   116   42  117 1  
   117   45  118 1  
   118   45  119 1  
   119   46  120 1  
   120   47  121 1  
   121   50  122 1  
   122   51  123 1  
   123   52  124 1  
   124   52  125 1  
   125   52  126 1  
   126   53  127 1  
   127   54  128 1  
   128   57  129 1  
   129   57  130 1  
   130   57  131 1  
   131   58  132 1  
   132   59  133 1  
   133   62  134 1  
   134   62  135 1  
   135   62  136 1  
@<TRIPOS>SUBSTRUCTURE
     1 ALA         1

