### 
### Created by X-TOOL on Mon Sep 10 21:12:56 2018
### 

@<TRIPOS>MOLECULE
2va5_ligand
   33    35     1     0     0
SMALL
GAST_HUCK


@<TRIPOS>ATOM
      1 N1         66.8150   49.0860    5.6170 N.pl3     1 C8C        -0.2764
      2 C2         67.6180   48.9380    6.6930 C.2       1 C8C         0.2430
      3 C4         68.1700   47.7090    8.5350 C.2       1 C8C         0.1868
      4 C5         69.1850   48.6060    8.8140 C.2       1 C8C        -0.0134
      5 C6         69.3650   49.6820    7.9650 C.2       1 C8C        -0.0130
      6 C7         70.4490   50.6960    8.2230 C.3       1 C8C        -0.0010
      7 C8         71.3950   50.8690    7.0530 C.3       1 C8C        -0.0113
      8 C9         72.2010   49.6380    6.7190 C.ar      1 C8C        -0.0543
      9 C10        73.1700   49.1700    7.6010 C.ar      1 C8C        -0.0752
     10 C11        73.9390   48.0610    7.2970 C.ar      1 C8C        -0.0792
     11 C12        73.7530   47.4270    6.0760 C.ar      1 C8C        -0.0332
     12 C13        74.3400   46.3100    5.4600 C.2       1 C8C        -0.0680
     13 C14        73.7310   46.1380    4.2190 C.2       1 C8C         0.0181
     14 N15        72.8110   47.1010    4.0620 N.pl3     1 C8C        -0.2830
     15 C16        72.8030   47.9030    5.1820 C.ar      1 C8C         0.0565
     16 C17        72.0260   49.0090    5.4910 C.ar      1 C8C        -0.0425
     17 N18        68.5780   49.8700    6.8950 N.2       1 C8C        -0.2880
     18 N3         67.3780   47.8660    7.4680 N.am      1 C8C        -0.1828
     19 O5         67.9590   46.6400    9.3490 O.2       1 C8C        -0.4228
     20 H1         66.9464   49.8867    4.9826 H         1 C8C         0.1918
     21 H2         66.0713   48.3981    5.4309 H         1 C8C         0.1918
     22 H3         69.8275   48.4679    9.6823 H         1 C8C         0.0229
     23 H4         71.0310   50.3707    9.0979 H         1 C8C         0.0497
     24 H5         69.9766   51.6661    8.4369 H         1 C8C         0.0497
     25 H6         72.0940   51.6838    7.2927 H         1 C8C         0.0440
     26 H7         70.8019   51.1430    6.1680 H         1 C8C         0.0440
     27 H8         73.3251   49.6835    8.5430 H         1 C8C         0.0472
     28 H9         74.6758   47.6925    8.0016 H         1 C8C         0.0528
     29 H10        75.1307   45.6887    5.8780 H         1 C8C         0.0276
     30 H11        73.9626   45.3547    3.4988 H         1 C8C         0.0905
     31 H12        72.2072   47.2216    3.2363 H         1 C8C         0.2255
     32 H13        71.2916   49.3787    4.7846 H         1 C8C         0.0470
     33 H14        66.6450   47.2190    7.2578 H         1 C8C         0.2550
@<TRIPOS>BOND
     1    2    1 1  
     2    2   17 2  
     3   18    2 am 
     4    3    4 1  
     5    3   18 am 
     6    3   19 2  
     7    4    5 2  
     8    5    6 1  
     9    5   17 1  
    10    6    7 1  
    11    7    8 1  
    12    8    9 ar 
    13    8   16 ar 
    14    9   10 ar 
    15   10   11 ar 
    16   11   12 1  
    17   11   15 ar 
    18   12   13 2  
    19   13   14 1  
    20   14   15 1  
    21   15   16 ar 
    22    1   20 1  
    23    1   21 1  
    24    4   22 1  
    25    6   23 1  
    26    6   24 1  
    27    7   25 1  
    28    7   26 1  
    29    9   27 1  
    30   10   28 1  
    31   12   29 1  
    32   13   30 1  
    33   14   31 1  
    34   16   32 1  
    35   18   33 1  
@<TRIPOS>SUBSTRUCTURE
     1 C8C         1

