### 
### Created by X-TOOL on Mon Sep 10 21:12:56 2018
### 

@<TRIPOS>MOLECULE
2va6_ligand
   46    48     1     0     0
SMALL
GAST_HUCK


@<TRIPOS>ATOM
      1 C1         71.3950   46.1950    1.0770 C.3       1 H24         0.0593
      2 O2         71.2020   47.1960    2.0940 O.3       1 H24        -0.3214
      3 C3         71.9160   47.0710    3.2590 C.ar      1 H24         0.0911
      4 C4         72.9540   46.1640    3.4370 C.ar      1 H24        -0.0329
      5 C5         73.6110   46.0870    4.6440 C.ar      1 H24        -0.0697
      6 C6         73.2240   46.8950    5.6950 C.ar      1 H24        -0.0644
      7 C7         72.1820   47.8100    5.5450 C.ar      1 H24        -0.0200
      8 C8         71.5200   47.8750    4.3220 C.ar      1 H24        -0.0253
      9 C9         71.7470   48.6410    6.7040 C.ar      1 H24         0.0088
     10 C10        72.6880   49.1000    7.6140 C.ar      1 H24        -0.0264
     11 C11        72.2980   49.8250    8.7160 C.ar      1 H24        -0.0316
     12 C12        70.9650   50.0730    8.9460 C.ar      1 H24        -0.0349
     13 C13        69.9970   49.6180    8.0630 C.ar      1 H24         0.0007
     14 C14        68.5260   49.9240    8.3880 C.3       1 H24         0.1168
     15 C15        68.3640   51.4040    8.7510 C.3       1 H24        -0.0386
     16 C18        68.0830   49.0930    9.5980 C.3       1 H24         0.0613
     17 C19        67.7070   47.6880    9.2360 C.2       1 H24         0.1759
     18 O20        68.1030   46.7320    9.8790 O.2       1 H24        -0.3979
     19 N21        66.9550   47.5510    8.1180 N.am      1 H24        -0.2142
     20 C22        66.4060   46.2200    7.8170 C.3       1 H24         0.0243
     21 C23        66.8320   48.6430    7.2040 C.cat     1 H24         0.3230
     22 N24        65.8730   48.6290    6.2740 N.pl3     1 H24        -0.2547
     23 N25        67.6470   49.6740    7.2170 N.pl3     1 H24        -0.2662
     24 C26        70.3970   48.8890    6.9490 C.ar      1 H24        -0.0274
     25 H1         70.7606   46.4273    0.2089 H         1 H24         0.0577
     26 H2         71.1212   45.2078    1.4775 H         1 H24         0.0577
     27 H3         72.4505   46.1853    0.7676 H         1 H24         0.0577
     28 H4         73.2477   45.5138    2.6209 H         1 H24         0.0545
     29 H5         74.4329   45.3915    4.7698 H         1 H24         0.0590
     30 H6         73.7359   46.8172    6.6474 H         1 H24         0.0532
     31 H7         70.6881   48.5588    4.1973 H         1 H24         0.0544
     32 H8         73.7387   48.8857    7.4555 H         1 H24         0.0862
     33 H9         73.0442   50.2023    9.4058 H         1 H24         0.0698
     34 H10        70.6676   50.6302    9.8270 H         1 H24         0.0852
     35 H11        67.3086   51.6116    8.9815 H         1 H24         0.0183
     36 H12        68.6833   52.0268    7.9024 H         1 H24         0.0183
     37 H13        68.9837   51.6360    9.6297 H         1 H24         0.0183
     38 H14        67.2119   49.5815   10.0590 H         1 H24         0.0455
     39 H15        68.9103   49.0591   10.3221 H         1 H24         0.0455
     40 H16        66.6152   45.5390    8.6552 H         1 H24         0.0483
     41 H17        66.8737   45.8289    6.9014 H         1 H24         0.0483
     42 H18        65.3186   46.2966    7.6694 H         1 H24         0.0483
     43 H19        65.7834   49.4153    5.6148 H         1 H24         0.3198
     44 H20        65.2233   47.8319    6.2162 H         1 H24         0.3198
     45 H21        67.6764   50.3130    6.4097 H         1 H24         0.3125
     46 H22        69.6498   48.5085    6.2620 H         1 H24         0.0858
@<TRIPOS>BOND
     1    1    2 1  
     2    2    3 1  
     3    3    4 ar 
     4    3    8 ar 
     5    4    5 ar 
     6    5    6 ar 
     7    6    7 ar 
     8    7    8 ar 
     9    7    9 1  
    10    9   10 ar 
    11    9   24 ar 
    12   10   11 ar 
    13   11   12 ar 
    14   12   13 ar 
    15   13   14 1  
    16   13   24 ar 
    17   14   15 1  
    18   14   16 1  
    19   14   23 1  
    20   16   17 1  
    21   17   18 2  
    22   17   19 am 
    23   19   20 1  
    24   19   21 ar 
    25   21   22 ar 
    26   21   23 ar 
    27    1   25 1  
    28    1   26 1  
    29    1   27 1  
    30    4   28 1  
    31    5   29 1  
    32    6   30 1  
    33    8   31 1  
    34   10   32 1  
    35   11   33 1  
    36   12   34 1  
    37   15   35 1  
    38   15   36 1  
    39   15   37 1  
    40   16   38 1  
    41   16   39 1  
    42   20   40 1  
    43   20   41 1  
    44   20   42 1  
    45   22   43 1  
    46   22   44 1  
    47   23   45 1  
    48   24   46 1  
@<TRIPOS>SUBSTRUCTURE
     1 H24         1

