### 
### Created by X-TOOL on Mon Sep 10 21:12:56 2018
### 

@<TRIPOS>MOLECULE
2va7_ligand
   52    54     1     0     0
SMALL
GAST_HUCK


@<TRIPOS>ATOM
      1 C1         70.7570   46.1140    0.7280 C.3       1 C27         0.0593
      2 O2         70.8660   46.8500    1.9530 O.3       1 C27        -0.3214
      3 C3         71.7430   46.3930    2.9030 C.ar      1 C27         0.0911
      4 C4         72.6030   45.3040    2.9600 C.ar      1 C27        -0.0329
      5 C5         73.3800   45.0890    4.0740 C.ar      1 C27        -0.0697
      6 C6         73.3040   45.9500    5.1480 C.ar      1 C27        -0.0651
      7 C7         72.4450   47.0470    5.1190 C.ar      1 C27        -0.0286
      8 C8         71.6730   47.2550    3.9800 C.ar      1 C27        -0.0260
      9 C9         72.3680   47.9900    6.2730 C.ar      1 C27        -0.0274
     10 C10        73.4870   48.2410    7.0660 C.ar      1 C27        -0.0610
     11 C11        73.4010   49.0940    8.1500 C.ar      1 C27        -0.0677
     12 C12        72.2130   49.7290    8.4410 C.ar      1 C27        -0.0601
     13 C13        71.0800   49.4940    7.6690 C.ar      1 C27        -0.0424
     14 C14        69.7800   50.1910    7.9790 C.3       1 C27        -0.0145
     15 C15        68.9200   49.4170    8.9590 C.3       1 C27         0.0061
     16 C16        67.4550   49.9190    9.1190 C.3       1 C27         0.1251
     17 C17        67.4330   51.4000    9.5280 C.3       1 C27        -0.0151
     18 C18        66.7620   49.0590   10.1800 C.3       1 C27         0.0841
     19 C19        66.5340   47.6540    9.7110 C.2       1 C27         0.1842
     20 O20        66.5570   46.7110   10.4760 O.2       1 C27        -0.3970
     21 N21        66.2730   47.4990    8.3750 N.am      1 C27        -0.2129
     22 C22        66.1580   46.1340    7.8410 C.3       1 C27         0.0244
     23 C23        66.1720   48.6270    7.5270 C.cat     1 C27         0.3311
     24 N24        66.7210   49.7830    7.8310 N.pl3     1 C27        -0.2342
     25 N25        65.5550   48.4870    6.3540 N.pl3     1 C27        -0.2541
     26 C26        71.1710   48.6210    6.5930 C.ar      1 C27        -0.0531
     27 H1         70.0198   46.6005    0.0723 H         1 C27         0.0577
     28 H2         70.4321   45.0859    0.9456 H         1 C27         0.0577
     29 H3         71.7354   46.0908    0.2258 H         1 C27         0.0577
     30 H4         72.6621   44.6195    2.1215 H         1 C27         0.0545
     31 H5         74.0538   44.2405    4.1078 H         1 C27         0.0590
     32 H6         73.9182   45.7720    6.0233 H         1 C27         0.0532
     33 H7         71.0054   48.1080    3.9373 H         1 C27         0.0544
     34 H8         74.4313   47.7636    6.8306 H         1 C27         0.0567
     35 H9         74.2712   49.2642    8.7736 H         1 C27         0.0600
     36 H10        72.1611   50.4165    9.2775 H         1 C27         0.0559
     37 H11        69.2175   50.3194    7.0425 H         1 C27         0.0427
     38 H12        70.0039   51.1777    8.4105 H         1 C27         0.0427
     39 H13        69.4037   49.4678    9.9456 H         1 C27         0.0337
     40 H14        68.8831   48.3705    8.6222 H         1 C27         0.0337
     41 H15        66.3909   51.7352    9.6358 H         1 C27         0.0280
     42 H16        67.9334   52.0014    8.7548 H         1 C27         0.0280
     43 H17        67.9588   51.5236   10.4862 H         1 C27         0.0280
     44 H18        65.7902   49.5128   10.4241 H         1 C27         0.0552
     45 H19        67.3916   49.0334   11.0816 H         1 C27         0.0552
     46 H20        66.2648   45.4091    8.6615 H         1 C27         0.0483
     47 H21        66.9493   45.9638    7.0961 H         1 C27         0.0483
     48 H22        65.1739   46.0078    7.3660 H         1 C27         0.0483
     49 H23        66.6441   50.5830    7.1868 H         1 C27         0.3231
     50 H24        65.1213   47.5867    6.1045 H         1 C27         0.3199
     51 H25        65.5119   49.2791    5.6970 H         1 C27         0.3199
     52 H26        70.2910   48.4275    5.9903 H         1 C27         0.0560
@<TRIPOS>BOND
     1    1    2 1  
     2    2    3 1  
     3    3    4 ar 
     4    3    8 ar 
     5    4    5 ar 
     6    5    6 ar 
     7    6    7 ar 
     8    7    8 ar 
     9    7    9 1  
    10    9   10 ar 
    11    9   26 ar 
    12   10   11 ar 
    13   11   12 ar 
    14   12   13 ar 
    15   13   14 1  
    16   13   26 ar 
    17   14   15 1  
    18   15   16 1  
    19   16   17 1  
    20   16   18 1  
    21   16   24 1  
    22   18   19 1  
    23   19   20 2  
    24   19   21 am 
    25   21   22 1  
    26   21   23 ar 
    27   23   24 ar 
    28   23   25 ar 
    29    1   27 1  
    30    1   28 1  
    31    1   29 1  
    32    4   30 1  
    33    5   31 1  
    34    6   32 1  
    35    8   33 1  
    36   10   34 1  
    37   11   35 1  
    38   12   36 1  
    39   14   37 1  
    40   14   38 1  
    41   15   39 1  
    42   15   40 1  
    43   17   41 1  
    44   17   42 1  
    45   17   43 1  
    46   18   44 1  
    47   18   45 1  
    48   22   46 1  
    49   22   47 1  
    50   22   48 1  
    51   24   49 1  
    52   25   50 1  
    53   25   51 1  
    54   26   52 1  
@<TRIPOS>SUBSTRUCTURE
     1 C27         1

