### 
### Created by X-TOOL on Mon Sep 10 21:12:55 2018
### 

@<TRIPOS>MOLECULE
2vb8_ligand
   28    28     1     0     0
SMALL
GAST_HUCK


@<TRIPOS>ATOM
      1 S1         38.3000   70.7100   60.5360 S.3       1 TLM        -0.1420
      2 C1         38.5160   71.3010   62.1040 C.2       1 TLM         0.1938
      3 C2         39.5890   72.0580   62.3000 C.2       1 TLM         0.0642
      4 C3         40.3110   72.2630   61.1950 C.2       1 TLM         0.0431
      5 C4         39.7000   71.6830   59.9460 C.3       1 TLM        -0.0011
      6 C5         40.7670   70.8000   59.2740 C.2       1 TLM        -0.1178
      7 C6         40.5880   69.8660   58.2960 C.2       1 TLM        -0.0181
      8 C7         41.7650   69.0970   57.8030 C.2       1 TLM        -0.0071
      9 C8         41.7200   68.1390   56.8690 C.2       1 TLM        -0.0529
     10 O1         37.6930   71.0280   62.9700 O.2       1 TLM        -0.3545
     11 C9         39.9210   72.6500   63.6480 C.3       1 TLM        -0.0054
     12 O2         41.4700   72.9310   61.1720 O.3       1 TLM        -0.3496
     13 C10        39.2100   72.8700   59.0780 C.3       1 TLM        -0.1105
     14 C11        39.2280   69.6090   57.7030 C.3       1 TLM        -0.0051
     15 H1         41.7897   70.9378   59.6219 H         1 TLM         0.0341
     16 H2         42.7363   69.3322   58.2356 H         1 TLM         0.0763
     17 H3         42.6335   67.6277   56.5690 H         1 TLM         0.0985
     18 H4         40.7699   67.8710   56.4093 H         1 TLM         0.0985
     19 H5         39.1711   72.3269   64.3851 H         1 TLM         0.0485
     20 H6         39.9166   73.7477   63.5775 H         1 TLM         0.0485
     21 H7         40.9172   72.3068   63.9639 H         1 TLM         0.0485
     22 H8         41.6875   73.2161   62.0518 H         1 TLM         0.2477
     23 H9         40.0764   73.4505   58.7281 H         1 TLM         0.0013
     24 H10        38.5535   73.5169   59.6784 H         1 TLM         0.0013
     25 H11        38.6525   72.4850   58.2114 H         1 TLM         0.0013
     26 H12        38.4877   70.2634   58.1864 H         1 TLM         0.0529
     27 H13        38.9496   68.5574   57.8661 H         1 TLM         0.0529
     28 H14        39.2531   69.8185   56.6234 H         1 TLM         0.0529
@<TRIPOS>BOND
     1    1    2 1  
     2    1    5 1  
     3    2    3 1  
     4    2   10 2  
     5    3    4 2  
     6    3   11 1  
     7    4    5 1  
     8    4   12 1  
     9    5    6 1  
    10    5   13 1  
    11    6    7 2  
    12    7    8 1  
    13    7   14 1  
    14    8    9 2  
    15    6   15 1  
    16    8   16 1  
    17    9   17 1  
    18    9   18 1  
    19   11   19 1  
    20   11   20 1  
    21   11   21 1  
    22   12   22 1  
    23   13   23 1  
    24   13   24 1  
    25   13   25 1  
    26   14   26 1  
    27   14   27 1  
    28   14   28 1  
@<TRIPOS>SUBSTRUCTURE
     1 TLM         1

