### 
### Created by X-TOOL on Mon Sep 10 21:12:55 2018
### 

@<TRIPOS>MOLECULE
2vba_ligand
   28    29     1     0     0
SMALL
GAST_HUCK


@<TRIPOS>ATOM
      1 N7         41.8960   69.6860   64.7120 N.2       1 P4T        -0.2927
      2 C8         40.5730   69.9040   64.5970 C.2       1 P4T         0.2049
      3 N9         39.5920   69.0510   65.0340 N.pl3     1 P4T        -0.2329
      4 C5         42.6290   70.7010   64.1770 C.2       1 P4T         0.0019
      5 C4         41.7210   71.7270   63.5900 C.2       1 P4T         0.0812
      6 C3         42.0220   73.0310   62.8980 C.2       1 P4T         0.1107
      7 C6         44.1270   70.7420   64.1830 C.3       1 P4T        -0.0267
      8 C10        39.6590   67.8230   65.7050 C.ar      1 P4T         0.0697
      9 C16        38.5050   67.3760   66.3720 C.ar      1 P4T        -0.0373
     10 C15        38.5070   66.1550   67.0750 C.ar      1 P4T        -0.0711
     11 C14        39.6590   65.3730   67.0820 C.ar      1 P4T        -0.0731
     12 C13        40.7940   65.8160   66.4030 C.ar      1 P4T        -0.0711
     13 C12        40.8070   67.0340   65.7090 C.ar      1 P4T        -0.0373
     14 S4         40.0450   71.3360   63.7750 S.3       1 P4T         0.0192
     15 C2         43.4480   73.4440   62.7320 C.3       1 P4T         0.0040
     16 O8         41.1070   73.7350   62.4680 O.2       1 P4T        -0.4026
     17 H1         38.6338   69.3707   64.8327 H         1 P4T         0.2240
     18 H2         44.4705   71.6639   63.6910 H         1 P4T         0.0401
     19 H3         44.5199   69.8690   63.6412 H         1 P4T         0.0401
     20 H4         44.4902   70.7232   65.2211 H         1 P4T         0.0401
     21 H5         37.6036   67.9775   66.3451 H         1 P4T         0.0539
     22 H6         37.6201   65.8275   67.6054 H         1 P4T         0.0588
     23 H7         39.6737   64.4270   67.6112 H         1 P4T         0.0521
     24 H8         41.6882   65.2033   66.4122 H         1 P4T         0.0588
     25 H9         41.6979   67.3573   65.1829 H         1 P4T         0.0539
     26 H10        43.4911   74.4119   62.2111 H         1 P4T         0.0438
     27 H11        43.9830   72.6857   62.1414 H         1 P4T         0.0438
     28 H12        43.9199   73.5386   63.7211 H         1 P4T         0.0438
@<TRIPOS>BOND
     1    1    2 2  
     2    1    4 1  
     3    2    3 1  
     4    2   14 1  
     5    3    8 1  
     6    4    5 2  
     7    4    7 1  
     8    5    6 1  
     9    5   14 1  
    10    6   15 1  
    11    6   16 2  
    12    8    9 ar 
    13    8   13 ar 
    14    9   10 ar 
    15   10   11 ar 
    16   11   12 ar 
    17   12   13 ar 
    18    3   17 1  
    19    7   18 1  
    20    7   19 1  
    21    7   20 1  
    22    9   21 1  
    23   10   22 1  
    24   11   23 1  
    25   12   24 1  
    26   13   25 1  
    27   15   26 1  
    28   15   27 1  
    29   15   28 1  
@<TRIPOS>SUBSTRUCTURE
     1 P4T         1

