### 
### Created by X-TOOL on Fri Sep 26 17:34:42 2014
### 

@<TRIPOS>MOLECULE
2vc7_ligand
   43    43     1     0     0
SMALL
GAST_HUCK


@<TRIPOS>ATOM
      1 O1         16.2390  -18.2480  -10.7330 O.2       1 HT5        -0.3969
      2 C10        16.4700  -17.8790  -11.8370 C.2       1 HT5         0.1783
      3 N2         17.2520  -16.8250  -12.0570 N.am      1 HT5        -0.2658
      4 SD         19.5510  -14.4730  -10.9680 S.3       1 HT5        -0.0476
      5 C11        17.7450  -16.2830  -10.8190 C.3       1 HT5         0.1262
      6 C12        18.0400  -14.8100  -10.7200 C.2       1 HT5         0.1895
      7 O2         17.3430  -13.8940  -10.4630 O.2       1 HT5        -0.3766
      8 C13        19.0790  -17.0090  -10.7800 C.3       1 HT5        -0.0012
      9 C14        20.1830  -16.0730  -11.2340 C.3       1 HT5         0.0178
     10 C9         15.8300  -18.6480  -12.9040 C.3       1 HT5         0.0374
     11 C2         14.3610  -18.5950  -12.4910 C.3       1 HT5        -0.0361
     12 C1         14.0640  -19.4780  -11.3010 C.3       1 HT5        -0.0510
     13 C50        14.3630  -20.9520  -11.5230 C.3       1 HT5        -0.0529
     14 C8         14.8050  -25.0710  -13.7690 C.3       1 HT5        -0.0653
     15 C6         13.3340  -24.8520  -13.5360 C.3       1 HT5        -0.0559
     16 C3         13.9860  -21.4720  -12.9090 C.3       1 HT5        -0.0531
     17 C4         12.8360  -22.4500  -12.8640 C.3       1 HT5        -0.0531
     18 C5         12.8580  -23.4760  -13.9820 C.3       1 HT5        -0.0533
     19 H1         17.4681  -16.4586  -12.9620 H         1 HT5         0.1884
     20 H2         17.0798  -16.5640   -9.9892 H         1 HT5         0.0801
     21 H3         19.0406  -17.8811  -11.4493 H         1 HT5         0.0323
     22 H4         19.2832  -17.3441   -9.7524 H         1 HT5         0.0323
     23 H5         21.0947  -16.2328  -10.6396 H         1 HT5         0.0406
     24 H6         20.4080  -16.2281  -12.2995 H         1 HT5         0.0406
     25 H7         16.2015  -19.6830  -12.9296 H         1 HT5         0.0502
     26 H8         15.9869  -18.1777  -13.8859 H         1 HT5         0.0502
     27 H9         13.7436  -18.9260  -13.3391 H         1 HT5         0.0290
     28 H10        14.1039  -17.5570  -12.2333 H         1 HT5         0.0290
     29 H11        12.9966  -19.3767  -11.0552 H         1 HT5         0.0267
     30 H12        14.6705  -19.1279  -10.4528 H         1 HT5         0.0267
     31 H13        13.8042  -21.5327  -10.7743 H         1 HT5         0.0265
     32 H14        15.4420  -21.1095  -11.3786 H         1 HT5         0.0265
     33 H15        15.0843  -26.0786  -13.4273 H         1 HT5         0.0230
     34 H16        15.3809  -24.3207  -13.2075 H         1 HT5         0.0230
     35 H17        15.0247  -24.9739  -14.8424 H         1 HT5         0.0230
     36 H18        13.1295  -24.9618  -12.4608 H         1 HT5         0.0263
     37 H19        12.7732  -25.6150  -14.0958 H         1 HT5         0.0263
     38 H20        14.8605  -21.9750  -13.3475 H         1 HT5         0.0265
     39 H21        13.6991  -20.6183  -13.5406 H         1 HT5         0.0265
     40 H22        11.8960  -21.8829  -12.9327 H         1 HT5         0.0265
     41 H23        12.8727  -22.9840  -11.9030 H         1 HT5         0.0265
     42 H24        11.8390  -23.5739  -14.3845 H         1 HT5         0.0265
     43 H25        13.5315  -23.1143  -14.7729 H         1 HT5         0.0265
@<TRIPOS>BOND
     1    2    1 2  
     2    2    3 am 
     3   10    2 1  
     4    3    5 1  
     5    6    4 1  
     6    9    4 1  
     7    5    6 1  
     8    5    8 1  
     9    6    7 2  
    10    8    9 1  
    11   11   10 1  
    12   12   11 1  
    13   13   12 1  
    14   16   13 1  
    15   15   14 1  
    16   18   15 1  
    17   17   16 1  
    18   17   18 1  
    19    3   19 1  
    20    5   20 1  
    21    8   21 1  
    22    8   22 1  
    23    9   23 1  
    24    9   24 1  
    25   10   25 1  
    26   10   26 1  
    27   11   27 1  
    28   11   28 1  
    29   12   29 1  
    30   12   30 1  
    31   13   31 1  
    32   13   32 1  
    33   14   33 1  
    34   14   34 1  
    35   14   35 1  
    36   15   36 1  
    37   15   37 1  
    38   16   38 1  
    39   16   39 1  
    40   17   40 1  
    41   17   41 1  
    42   18   42 1  
    43   18   43 1  
@<TRIPOS>SUBSTRUCTURE
     1 HT5         1

