### 
### Created by X-TOOL on Mon Sep 10 21:12:58 2018
### 

@<TRIPOS>MOLECULE
2vc9_ligand
   31    31     1     0     0
SMALL
GAST_HUCK


@<TRIPOS>ATOM
      1 C8         14.7340   -6.4840    8.8170 C.3       1 NOK         0.0257
      2 C7         15.9560   -5.9140    8.1160 C.2       1 NOK         0.1734
      3 O7         16.2130   -6.2660    6.9700 O.2       1 NOK        -0.3974
      4 N2         16.6820   -5.0530    8.8330 N.am      1 NOK        -0.2764
      5 C2         17.8820   -4.3870    8.3060 C.3       1 NOK         0.1099
      6 C1         17.6880   -2.8710    8.4320 C.3       1 NOK        -0.0071
      7 N5         18.8510   -2.1770    7.8300 N.4       1 NOK         0.2344
      8 C5         20.1760   -2.5420    8.4040 C.3       1 NOK         0.0301
      9 C6         21.2920   -1.9070    7.5630 C.3       1 NOK         0.0893
     10 O6         21.3240   -2.4800    6.2570 O.3       1 NOK        -0.3894
     11 C4         20.3850   -4.0670    8.4870 C.3       1 NOK         0.1277
     12 O4         21.5660   -4.3060    9.2740 O.3       1 NOK        -0.3835
     13 C3         19.1490   -4.8010    9.0610 C.3       1 NOK         0.1141
     14 O3         19.3150   -6.2210    9.0160 O.3       1 NOK        -0.3865
     15 H1         14.6608   -6.0597    9.8292 H         1 NOK         0.0467
     16 H2         14.8267   -7.5780    8.8839 H         1 NOK         0.0467
     17 H3         13.8301   -6.2268    8.2454 H         1 NOK         0.0467
     18 H4         16.3968   -4.8522    9.7702 H         1 NOK         0.1857
     19 H5         18.0006   -4.6539    7.2455 H         1 NOK         0.0636
     20 H6         17.6067   -2.5979    9.4944 H         1 NOK         0.0838
     21 H7         16.7693   -2.5730    7.9055 H         1 NOK         0.0838
     22 H8         18.7204   -1.1852    7.9539 H         1 NOK         0.2019
     23 H9         18.8677   -2.3934    6.8456 H         1 NOK         0.2019
     24 H10        20.2301   -2.1350    9.4245 H         1 NOK         0.0900
     25 H11        22.2596   -2.0791    8.0571 H         1 NOK         0.0614
     26 H12        21.1105   -0.8254    7.4789 H         1 NOK         0.0614
     27 H13        20.4904   -2.3308    5.8264 H         1 NOK         0.2097
     28 H14        20.5582   -4.4506    7.4707 H         1 NOK         0.0678
     29 H15        21.4454   -3.9412   10.1429 H         1 NOK         0.2102
     30 H16        19.0352   -4.5043   10.1141 H         1 NOK         0.0646
     31 H17        20.0760   -6.4661    9.5290 H         1 NOK         0.2100
@<TRIPOS>BOND
     1    1    2 1  
     2    2    3 2  
     3    2    4 am 
     4    4    5 1  
     5    5    6 1  
     6    5   13 1  
     7    6    7 1  
     8    7    8 1  
     9    8    9 1  
    10    8   11 1  
    11    9   10 1  
    12   11   12 1  
    13   11   13 1  
    14   13   14 1  
    15    1   15 1  
    16    1   16 1  
    17    1   17 1  
    18    4   18 1  
    19    5   19 1  
    20    6   20 1  
    21    6   21 1  
    22    7   22 1  
    23    7   23 1  
    24    8   24 1  
    25    9   25 1  
    26    9   26 1  
    27   10   27 1  
    28   11   28 1  
    29   12   29 1  
    30   13   30 1  
    31   14   31 1  
@<TRIPOS>SUBSTRUCTURE
     1 NOK         1

