### 
### Created by X-TOOL on Mon Sep 10 21:12:58 2018
### 

@<TRIPOS>MOLECULE
2vcb_ligand
   44    45     1     0     0
SMALL
GAST_HUCK


@<TRIPOS>ATOM
      1 CAH        12.3370  -10.0420   -9.0340 C.3       1 OAN         0.0258
      2 CAG        12.6830  -11.3980   -8.4270 C.2       1 OAN         0.1755
      3 OAN        13.4360  -11.4470   -7.4470 O.2       1 OAN        -0.3972
      4 NAI        12.1170  -12.4630   -9.0340 N.am      1 OAN        -0.2641
      5 CAB        12.3560  -13.8500   -8.5660 C.3       1 OAN         0.1483
      6 CAC        13.4360  -14.5470   -9.3820 C.3       1 OAN         0.1223
      7 OAJ        14.6360  -13.7710   -9.3550 O.3       1 OAN        -0.3842
      8 CAD        13.6830  -15.9410   -8.7830 C.3       1 OAN         0.1187
      9 OAK        14.6850  -16.6270   -9.5140 O.3       1 OAN        -0.3859
     10 CAE        12.4060  -16.7930   -8.7790 C.3       1 OAN         0.1375
     11 CAF        12.6330  -18.0320   -7.8980 C.3       1 OAN         0.0780
     12 OAM        12.5050  -17.6800   -6.5130 O.3       1 OAN        -0.3919
     13 OAL        11.2520  -16.0910   -8.2460 O.3       1 OAN        -0.2871
     14 CAA        11.1230  -14.7750   -8.6070 C.2       1 OAN         0.1893
     15 NAY         9.9160  -14.3730   -8.9560 N.2       1 OAN        -0.1541
     16 OAQ         8.9580  -15.3360   -8.9250 O.3       1 OAN        -0.1506
     17 CAP         7.7260  -14.7910   -8.8220 C.2       1 OAN         0.3788
     18 OAR         7.2850  -14.3720   -7.7500 O.2       1 OAN        -0.3643
     19 NAO         7.0250  -14.7440   -9.9520 N.am      1 OAN        -0.2057
     20 CAS         7.0680  -14.6290  -10.9310 C.ar      1 OAN         0.0683
     21 CAT         8.0800  -15.3940  -11.4970 C.ar      1 OAN        -0.0414
     22 CAU         8.1650  -15.5080  -12.8850 C.ar      1 OAN        -0.0756
     23 CAV         7.2510  -14.8630  -13.7170 C.ar      1 OAN        -0.0773
     24 CAW         6.2370  -14.0900  -13.1720 C.ar      1 OAN        -0.0756
     25 CAX         6.1560  -13.9780  -11.7820 C.ar      1 OAN        -0.0414
     26 H1         11.6619  -10.1853   -9.8906 H         1 OAN         0.0467
     27 H2         13.2586   -9.5458   -9.3724 H         1 OAN         0.0467
     28 H3         11.8409   -9.4171   -8.2768 H         1 OAN         0.0467
     29 H4         11.5196  -12.3123   -9.8216 H         1 OAN         0.1888
     30 H5         12.6942  -13.7809   -7.5216 H         1 OAN         0.0821
     31 H6         13.0984  -14.6528  -10.4235 H         1 OAN         0.0672
     32 H7         15.3069  -14.2094   -9.8652 H         1 OAN         0.2103
     33 H8         14.0240  -15.8145   -7.7449 H         1 OAN         0.0653
     34 H9         14.4061  -16.7242  -10.4169 H         1 OAN         0.2100
     35 H10        12.1889  -17.1047   -9.8113 H         1 OAN         0.0708
     36 H11        13.6424  -18.4290   -8.0810 H         1 OAN         0.0588
     37 H12        11.8860  -18.7993   -8.1492 H         1 OAN         0.0588
     38 H13        11.6331  -17.3381   -6.3536 H         1 OAN         0.2095
     39 H14         6.0641  -14.8808   -9.7111 H         1 OAN         0.2276
     40 H15         8.7999  -15.8997  -10.8637 H         1 OAN         0.0501
     41 H16         8.9544  -16.1077  -13.3235 H         1 OAN         0.0577
     42 H17         7.3333  -14.9661  -14.7930 H         1 OAN         0.0487
     43 H18         5.5226  -13.5835  -13.8109 H         1 OAN         0.0577
     44 H19         5.3688  -13.3729  -11.3470 H         1 OAN         0.0501
@<TRIPOS>BOND
     1    1    2 1  
     2    2    3 2  
     3    2    4 am 
     4    4    5 1  
     5    5    6 1  
     6    5   14 1  
     7    6    7 1  
     8    6    8 1  
     9    8    9 1  
    10    8   10 1  
    11   10   11 1  
    12   10   13 1  
    13   11   12 1  
    14   13   14 1  
    15   14   15 2  
    16   15   16 1  
    17   16   17 1  
    18   17   18 2  
    19   17   19 am 
    20   19   20 1  
    21   20   21 ar 
    22   20   25 ar 
    23   21   22 ar 
    24   22   23 ar 
    25   23   24 ar 
    26   24   25 ar 
    27    1   26 1  
    28    1   27 1  
    29    1   28 1  
    30    4   29 1  
    31    5   30 1  
    32    6   31 1  
    33    7   32 1  
    34    8   33 1  
    35    9   34 1  
    36   10   35 1  
    37   11   36 1  
    38   11   37 1  
    39   12   38 1  
    40   19   39 1  
    41   21   40 1  
    42   22   41 1  
    43   23   42 1  
    44   24   43 1  
    45   25   44 1  
@<TRIPOS>SUBSTRUCTURE
     1 OAN         1

