### 
### Created by X-TOOL on Mon Sep 10 21:12:57 2018
### 

@<TRIPOS>MOLECULE
2vcg_ligand
   51    51     1     0     0
SMALL
GAST_HUCK


@<TRIPOS>ATOM
      1 CD1        -7.9200   -4.7190   34.1180 C.ar      1 S17        -0.0573
      2 CE1        -8.3870   -3.7720   35.0200 C.ar      1 S17        -0.0590
      3 CZ         -8.7080   -4.1520   36.3220 C.ar      1 S17         0.0056
      4 BR1        -9.3360   -2.8370   37.5290 Br        1 S17        -0.0561
      5 CE2        -8.5750   -5.4820   36.7280 C.ar      1 S17        -0.0590
      6 CD2        -8.1130   -6.4330   35.8200 C.ar      1 S17        -0.0573
      7 CG         -7.7750   -6.0440   34.5190 C.ar      1 S17        -0.0356
      8 CB         -7.2810   -7.0610   33.4940 C.3       1 S17         0.0241
      9 CA         -5.7900   -7.4490   33.5930 C.3       1 S17         0.1520
     10 C          -4.8750   -6.2760   33.1670 C.2       1 S17         0.2615
     11 O          -3.7930   -6.0940   33.7240 O.2       1 S17        -0.3676
     12 OAT        -5.2510   -5.4330   32.1560 O.3       1 S17        -0.2783
     13 CAA        -4.1740   -5.1190   31.2530 C.3       1 S17         0.0658
     14 N          -5.4240   -7.9620   34.9410 N.am      1 S17        -0.2625
     15 CAV        -5.9390   -9.0580   35.5270 C.2       1 S17         0.1784
     16 OAC        -6.8040   -9.7900   35.0440 O.2       1 S17        -0.3969
     17 CAP        -5.3710   -9.3640   36.9180 C.3       1 S17         0.0374
     18 CAN        -5.1270  -10.8560   37.1570 C.3       1 S17        -0.0361
     19 CAL        -3.7690  -11.0820   37.8280 C.3       1 S17        -0.0508
     20 CAK        -3.8200  -10.9460   39.3570 C.3       1 S17        -0.0509
     21 CAM        -4.3170  -12.2160   40.0610 C.3       1 S17        -0.0361
     22 CAO        -3.2630  -13.3130   40.0540 C.3       1 S17         0.0389
     23 CAU        -3.0110  -13.9380   41.4360 C.2       1 S17         0.1988
     24 OAB        -1.8990  -14.3290   41.7500 O.2       1 S17        -0.3970
     25 NAR        -4.0460  -14.0240   42.2470 N.am      1 S17        -0.1642
     26 OAE        -3.8690  -14.5640   43.4570 O.3       1 S17        -0.2717
     27 H1         -7.6691   -4.4272   33.1046 H         1 S17         0.0564
     28 H2         -8.5017   -2.7390   34.7120 H         1 S17         0.0626
     29 H3         -8.8291   -5.7720   37.7411 H         1 S17         0.0626
     30 H4         -8.0159   -7.4700   36.1204 H         1 S17         0.0564
     31 H5         -7.4540   -6.6410   32.4922 H         1 S17         0.0481
     32 H6         -7.8765   -7.9779   33.6151 H         1 S17         0.0481
     33 H7         -5.6222   -8.2695   32.8798 H         1 S17         0.0841
     34 H8         -4.5398   -4.4412   30.4676 H         1 S17         0.0577
     35 H9         -3.7995   -6.0452   30.7927 H         1 S17         0.0577
     36 H10        -3.3600   -4.6306   31.8088 H         1 S17         0.0577
     37 H11        -4.7369   -7.4485   35.4549 H         1 S17         0.1885
     38 H12        -6.0833   -9.0012   37.6737 H         1 S17         0.0502
     39 H13        -4.4150   -8.8315   37.0297 H         1 S17         0.0502
     40 H14        -5.1452  -11.3839   36.1922 H         1 S17         0.0290
     41 H15        -5.9212  -11.2522   37.8069 H         1 S17         0.0290
     42 H16        -3.0570  -10.3415   37.4347 H         1 S17         0.0267
     43 H17        -3.4199  -12.0949   37.5785 H         1 S17         0.0267
     44 H18        -4.4971  -10.1174   39.6119 H         1 S17         0.0267
     45 H19        -2.8076  -10.7177   39.7216 H         1 S17         0.0267
     46 H20        -5.2158  -12.5821   39.5431 H         1 S17         0.0289
     47 H21        -4.5688  -11.9704   41.1032 H         1 S17         0.0289
     48 H22        -2.3179  -12.8841   39.6895 H         1 S17         0.0502
     49 H23        -3.5935  -14.1075   39.3688 H         1 S17         0.0502
     50 H24        -4.9456  -13.6921   41.9631 H         1 S17         0.2216
     51 H25        -4.6940  -14.5604   43.9279 H         1 S17         0.2490
@<TRIPOS>BOND
     1    1    2 ar 
     2    1    7 ar 
     3    2    3 ar 
     4    3    4 1  
     5    3    5 ar 
     6    5    6 ar 
     7    6    7 ar 
     8    7    8 1  
     9    8    9 1  
    10    9   10 1  
    11    9   14 1  
    12   10   11 2  
    13   10   12 1  
    14   12   13 1  
    15   14   15 am 
    16   15   16 2  
    17   15   17 1  
    18   17   18 1  
    19   18   19 1  
    20   19   20 1  
    21   20   21 1  
    22   21   22 1  
    23   22   23 1  
    24   23   24 2  
    25   23   25 am 
    26   25   26 1  
    27    1   27 1  
    28    2   28 1  
    29    5   29 1  
    30    6   30 1  
    31    8   31 1  
    32    8   32 1  
    33    9   33 1  
    34   13   34 1  
    35   13   35 1  
    36   13   36 1  
    37   14   37 1  
    38   17   38 1  
    39   17   39 1  
    40   18   40 1  
    41   18   41 1  
    42   19   42 1  
    43   19   43 1  
    44   20   44 1  
    45   20   45 1  
    46   21   46 1  
    47   21   47 1  
    48   22   48 1  
    49   22   49 1  
    50   25   50 1  
    51   26   51 1  
@<TRIPOS>SUBSTRUCTURE
     1 S17         1

