### 
### Created by X-TOOL on Mon Sep 10 21:12:56 2018
### 

@<TRIPOS>MOLECULE
2vci_ligand
   66    69     1     0     0
SMALL
GAST_HUCK


@<TRIPOS>ATOM
      1 C25        35.4870    4.9960   21.3240 C.3       1 2GJ        -0.0065
      2 C26        35.9860    3.5600   21.0790 C.3       1 2GJ         0.0878
      3 O27        36.8710    3.2020   22.1750 O.3       1 2GJ        -0.3693
      4 C28        36.1890    3.1500   23.4720 C.3       1 2GJ         0.0878
      5 C29        35.6590    4.5420   23.8420 C.3       1 2GJ        -0.0065
      6 N24        34.9570    5.2020   22.7050 N.4       1 2GJ         0.2500
      7 C23        35.1460    6.6380   22.9490 C.3       1 2GJ         0.0005
      8 C20        34.0970    7.1990   23.8990 C.ar      1 2GJ        -0.0023
      9 C21        32.7330    7.0520   23.5820 C.ar      1 2GJ        -0.0592
     10 C22        31.7720    7.5550   24.4550 C.ar      1 2GJ        -0.0675
     11 C19        34.5160    7.8380   25.0770 C.ar      1 2GJ        -0.0592
     12 C18        33.5580    8.3410   25.9530 C.ar      1 2GJ        -0.0675
     13 C7         32.1880    8.2030   25.6380 C.ar      1 2GJ        -0.0377
     14 C3         31.1920    8.7610   26.4740 C.2       1 2GJ         0.0328
     15 C2         30.8160    8.3590   27.7390 C.2       1 2GJ         0.1336
     16 C8         31.4670    7.2140   28.5180 C.2       1 2GJ         0.2123
     17 O9         32.0850    6.3470   27.8920 O.2       1 2GJ        -0.3858
     18 N10        31.3180    7.3320   29.8730 N.am      1 2GJ        -0.2864
     19 C11        31.8070    6.4480   30.9560 C.3       1 2GJ         0.0276
     20 C12        33.0170    5.6360   30.4970 C.3       1 2GJ        -0.0449
     21 N1         29.8220    9.1600   28.1590 N.2       1 2GJ        -0.1208
     22 O5         29.5230   10.1560   27.1500 O.3       1 2GJ        -0.1591
     23 C4         30.3810    9.8760   26.1290 C.2       1 2GJ         0.1648
     24 C6         30.4470   10.5530   24.9090 C.ar      1 2GJ         0.0400
     25 C13        31.7250   10.8640   24.5100 C.ar      1 2GJ        -0.0620
     26 C14        31.9690   11.5150   23.3220 C.ar      1 2GJ        -0.0185
     27 C30        33.3810   11.9070   22.9720 C.3       1 2GJ        -0.0189
     28 C32        33.4370   13.2730   23.6870 C.3       1 2GJ        -0.0556
     29 C31        34.4610   10.9450   23.4980 C.3       1 2GJ        -0.0556
     30 C15        30.8980   11.8950   22.5190 C.ar      1 2GJ         0.0855
     31 O34        31.1360   12.5340   21.3480 O.3       1 2GJ        -0.3367
     32 C16        29.5950   11.5770   22.9210 C.ar      1 2GJ        -0.0064
     33 C17        29.3470   10.9020   24.1020 C.ar      1 2GJ         0.0903
     34 O33        28.0580   10.6360   24.4290 O.3       1 2GJ        -0.3351
     35 H1         34.6847    5.2159   20.6043 H         1 2GJ         0.0837
     36 H2         36.3247    5.6905   21.1629 H         1 2GJ         0.0837
     37 H3         36.5330    3.5118   20.1259 H         1 2GJ         0.0613
     38 H4         35.1318    2.8677   21.0470 H         1 2GJ         0.0613
     39 H5         36.8976    2.8132   24.2430 H         1 2GJ         0.0613
     40 H6         35.3478    2.4437   23.4133 H         1 2GJ         0.0613
     41 H7         36.5064    5.1730   24.1484 H         1 2GJ         0.0837
     42 H8         34.9550    4.4407   24.6811 H         1 2GJ         0.0837
     43 H9         33.9836    4.9410   22.7252 H         1 2GJ         0.2049
     44 H10        35.0787    7.1729   21.9902 H         1 2GJ         0.0974
     45 H11        36.1424    6.7954   23.3876 H         1 2GJ         0.0974
     46 H12        32.4341    6.5523   22.6676 H         1 2GJ         0.0550
     47 H13        30.7170    7.4502   24.2289 H         1 2GJ         0.0562
     48 H14        35.5718    7.9384   25.3014 H         1 2GJ         0.0550
     49 H15        33.8610    8.8345   26.8694 H         1 2GJ         0.0562
     50 H16        30.8029    8.1334   30.1769 H         1 2GJ         0.1844
     51 H17        31.0014    5.7585   31.2486 H         1 2GJ         0.0517
     52 H18        32.0946    7.0641   31.8207 H         1 2GJ         0.0517
     53 H19        33.3583    4.9899   31.3193 H         1 2GJ         0.0249
     54 H20        33.8285    6.3195   30.2067 H         1 2GJ         0.0249
     55 H21        32.7354    5.0139   29.6346 H         1 2GJ         0.0249
     56 H22        32.5596   10.5904   25.1453 H         1 2GJ         0.0511
     57 H23        33.5040   12.0123   21.8840 H         1 2GJ         0.0415
     58 H24        34.4285   13.7251   23.5367 H         1 2GJ         0.0250
     59 H25        33.2580   13.1313   24.7630 H         1 2GJ         0.0250
     60 H26        32.6646   13.9366   23.2710 H         1 2GJ         0.0250
     61 H27        34.3883    9.9855   22.9651 H         1 2GJ         0.0250
     62 H28        34.3108   10.7786   24.5749 H         1 2GJ         0.0250
     63 H29        35.4558   11.3833   23.3299 H         1 2GJ         0.0250
     64 H30        30.3100   12.7250   20.9191 H         1 2GJ         0.2473
     65 H31        28.7613   11.8667   22.2917 H         1 2GJ         0.0455
     66 H32        27.5773   11.4518   24.5063 H         1 2GJ         0.2486
@<TRIPOS>BOND
     1    1    2 1  
     2    1    6 1  
     3    2    3 1  
     4    3    4 1  
     5    4    5 1  
     6    5    6 1  
     7    6    7 1  
     8    7    8 1  
     9    8    9 ar 
    10    8   11 ar 
    11    9   10 ar 
    12   10   13 ar 
    13   11   12 ar 
    14   12   13 ar 
    15   13   14 1  
    16   14   15 1  
    17   14   23 2  
    18   15   16 1  
    19   15   21 2  
    20   16   17 2  
    21   16   18 am 
    22   18   19 1  
    23   19   20 1  
    24   21   22 1  
    25   22   23 1  
    26   23   24 1  
    27   24   25 ar 
    28   24   33 ar 
    29   25   26 ar 
    30   26   27 1  
    31   26   30 ar 
    32   27   28 1  
    33   27   29 1  
    34   30   31 1  
    35   30   32 ar 
    36   32   33 ar 
    37   33   34 1  
    38    1   35 1  
    39    1   36 1  
    40    2   37 1  
    41    2   38 1  
    42    4   39 1  
    43    4   40 1  
    44    5   41 1  
    45    5   42 1  
    46    6   43 1  
    47    7   44 1  
    48    7   45 1  
    49    9   46 1  
    50   10   47 1  
    51   11   48 1  
    52   12   49 1  
    53   18   50 1  
    54   19   51 1  
    55   19   52 1  
    56   20   53 1  
    57   20   54 1  
    58   20   55 1  
    59   25   56 1  
    60   27   57 1  
    61   28   58 1  
    62   28   59 1  
    63   28   60 1  
    64   29   61 1  
    65   29   62 1  
    66   29   63 1  
    67   31   64 1  
    68   32   65 1  
    69   34   66 1  
@<TRIPOS>SUBSTRUCTURE
     1 2GJ         1

