### 
### Created by X-TOOL on Mon Sep 10 21:12:56 2018
### 

@<TRIPOS>MOLECULE
2vcj_ligand
   57    60     1     0     0
SMALL
GAST_HUCK


@<TRIPOS>ATOM
      1 C20        36.0920    4.7760   23.9480 C.3       1 2EQ        -0.0065
      2 C21        37.0300    3.6260   23.6890 C.3       1 2EQ         0.0878
      3 O4         37.4070    3.7880   22.3460 O.3       1 2EQ        -0.3693
      4 C22        36.4110    3.3290   21.5060 C.3       1 2EQ         0.0878
      5 C23        35.4780    4.5100   21.4960 C.3       1 2EQ        -0.0065
      6 N4         35.7050    5.3550   22.6660 N.4       1 2EQ         0.2500
      7 C19        35.5330    6.7900   22.5390 C.3       1 2EQ         0.0005
      8 C16        34.5530    7.2940   23.5700 C.ar      1 2EQ        -0.0023
      9 C17        35.0100    7.9950   24.6650 C.ar      1 2EQ        -0.0592
     10 C18        34.1330    8.4620   25.6150 C.ar      1 2EQ        -0.0674
     11 C15        33.2110    7.0600   23.4110 C.ar      1 2EQ        -0.0592
     12 C14        32.3300    7.5250   24.3630 C.ar      1 2EQ        -0.0674
     13 C13        32.7890    8.2220   25.4630 C.ar      1 2EQ        -0.0376
     14 C9         31.8790    8.7000   26.3770 C.2       1 2EQ         0.0331
     15 C8         31.5530    8.2050   27.6140 C.2       1 2EQ         0.1337
     16 C10        32.1590    7.0110   28.3040 C.2       1 2EQ         0.2124
     17 O3         32.8350    6.1970   27.7070 O.2       1 2EQ        -0.3858
     18 N3         32.0040    7.0180   29.6070 N.am      1 2EQ        -0.2864
     19 C11        32.5270    5.9630   30.4700 C.3       1 2EQ         0.0276
     20 C12        34.0280    6.1100   30.6460 C.3       1 2EQ        -0.0449
     21 N2         30.6360    8.9740   28.1520 N.2       1 2EQ        -0.1207
     22 O5         30.3430    9.9890   27.2470 O.3       1 2EQ        -0.1588
     23 C7         31.1120    9.8140   26.1610 C.2       1 2EQ         0.1669
     24 C5         31.1350   10.6160   25.0320 C.ar      1 2EQ         0.0476
     25 C6         32.3420   11.0120   24.4870 C.ar      1 2EQ        -0.0494
     26 C4         32.3680   11.8170   23.3560 C.ar      1 2EQ         0.0597
     27 CL1        33.8320   12.3300   22.6330 Cl        1 2EQ        -0.0870
     28 C3         31.1910   12.2230   22.7830 C.ar      1 2EQ         0.0969
     29 O2         31.2280   12.9990   21.6910 O.3       1 2EQ        -0.3327
     30 C2         29.9880   11.8280   23.3320 C.ar      1 2EQ        -0.0004
     31 C1         29.9670   11.0340   24.4550 C.ar      1 2EQ         0.0973
     32 O1         28.8030   10.6630   24.9840 O.3       1 2EQ        -0.3308
     33 H1         36.5976    5.5365   24.5611 H         1 2EQ         0.0837
     34 H2         35.1979    4.4139   24.4766 H         1 2EQ         0.0837
     35 H3         36.5185    2.6636   23.8377 H         1 2EQ         0.0613
     36 H4         37.9073    3.6810   24.3503 H         1 2EQ         0.0613
     37 H5         35.9220    2.4312   21.9119 H         1 2EQ         0.0613
     38 H6         36.7990    3.1121   20.4998 H         1 2EQ         0.0613
     39 H7         34.4387    4.1497   21.5066 H         1 2EQ         0.0837
     40 H8         35.6522    5.1005   20.5845 H         1 2EQ         0.0837
     41 H9         36.6772    5.4441   22.4153 H         1 2EQ         0.2049
     42 H10        35.1528    7.0222   21.5332 H         1 2EQ         0.0974
     43 H11        36.5033    7.2863   22.6879 H         1 2EQ         0.0974
     44 H12        36.0721    8.1801   24.7783 H         1 2EQ         0.0550
     45 H13        34.4978    9.0133   26.4741 H         1 2EQ         0.0562
     46 H14        32.8477    6.5158   22.5468 H         1 2EQ         0.0550
     47 H15        31.2678    7.3421   24.2474 H         1 2EQ         0.0562
     48 H16        31.5069    7.7777   30.0263 H         1 2EQ         0.1844
     49 H17        32.3106    4.9846   30.0163 H         1 2EQ         0.0517
     50 H18        32.0399    6.0266   31.4542 H         1 2EQ         0.0517
     51 H19        34.4011    5.3067   31.2984 H         1 2EQ         0.0249
     52 H20        34.2498    7.0859   31.1026 H         1 2EQ         0.0249
     53 H21        34.5205    6.0438   29.6647 H         1 2EQ         0.0249
     54 H22        33.2716   10.6929   24.9442 H         1 2EQ         0.0586
     55 H23        30.3410   13.1955   21.4133 H         1 2EQ         0.2498
     56 H24        29.0566   12.1445   22.8767 H         1 2EQ         0.0470
     57 H25        28.9620   10.1220   25.7485 H         1 2EQ         0.2508
@<TRIPOS>BOND
     1    1    2 1  
     2    1    6 1  
     3    2    3 1  
     4    3    4 1  
     5    4    5 1  
     6    5    6 1  
     7    6    7 1  
     8    7    8 1  
     9    8    9 ar 
    10    8   11 ar 
    11    9   10 ar 
    12   10   13 ar 
    13   11   12 ar 
    14   12   13 ar 
    15   13   14 1  
    16   14   15 1  
    17   14   23 2  
    18   15   16 1  
    19   15   21 2  
    20   16   17 2  
    21   16   18 am 
    22   18   19 1  
    23   19   20 1  
    24   21   22 1  
    25   22   23 1  
    26   23   24 1  
    27   24   25 ar 
    28   24   31 ar 
    29   25   26 ar 
    30   26   27 1  
    31   26   28 ar 
    32   28   29 1  
    33   28   30 ar 
    34   30   31 ar 
    35   31   32 1  
    36    1   33 1  
    37    1   34 1  
    38    2   35 1  
    39    2   36 1  
    40    4   37 1  
    41    4   38 1  
    42    5   39 1  
    43    5   40 1  
    44    6   41 1  
    45    7   42 1  
    46    7   43 1  
    47    9   44 1  
    48   10   45 1  
    49   11   46 1  
    50   12   47 1  
    51   18   48 1  
    52   19   49 1  
    53   19   50 1  
    54   20   51 1  
    55   20   52 1  
    56   20   53 1  
    57   25   54 1  
    58   29   55 1  
    59   30   56 1  
    60   32   57 1  
@<TRIPOS>SUBSTRUCTURE
     1 2EQ         1

