### 
### Created by X-TOOL on Mon Sep 10 21:12:58 2018
### 

@<TRIPOS>MOLECULE
2vcq_ligand
   25    27     1     0     0
SMALL
GAST_HUCK


@<TRIPOS>ATOM
      1 C1        -49.3520   -4.8210   27.4710 C.2       1 D25        -0.0372
      2 C2        -47.9820   -4.7140   27.1550 C.2       1 D25         0.0764
      3 C3        -47.3850   -4.8110   25.8090 C.2       1 D25         0.1657
      4 C4        -46.1390   -4.3860   25.4400 C.2       1 D25        -0.0163
      5 C6        -49.4850   -4.6710   28.8100 C.2       1 D25         0.0486
      6 O10       -47.9520   -5.3080   24.6940 O.3       1 D25        -0.1631
      7 N11       -47.1910   -5.2300   23.7280 N.2       1 D25        -0.1373
      8 C12       -46.0470   -4.6760   24.0530 C.2       1 D25         0.0584
      9 C13       -44.8530   -4.4140   23.2040 C.ar      1 D25        -0.0114
     10 C14       -44.5510   -5.2340   22.1140 C.ar      1 D25        -0.0548
     11 C15       -43.4100   -4.9780   21.3760 C.ar      1 D25        -0.0621
     12 C16       -42.5630   -3.9230   21.7110 C.ar      1 D25        -0.0626
     13 C17       -42.8540   -3.1130   22.7900 C.ar      1 D25        -0.0621
     14 C18       -43.9920   -3.3570   23.5350 C.ar      1 D25        -0.0548
     15 N6        -47.3260   -4.4890   28.2730 N.2       1 D25        -0.2088
     16 N10       -48.2500   -4.4620   29.3260 N.pl3     1 D25        -0.2204
     17 H1        -50.1609   -4.9939   26.7626 H         1 D25         0.0354
     18 H2        -45.3816   -3.9252   26.0724 H         1 D25         0.0414
     19 H3        -50.4173   -4.7111   29.3714 H         1 D25         0.0990
     20 H4        -45.2022   -6.0596   21.8504 H         1 D25         0.0615
     21 H5        -43.1711   -5.6062   20.5255 H         1 D25         0.0615
     22 H6        -41.6722   -3.7379   21.1218 H         1 D25         0.0610
     23 H7        -42.1955   -2.2924   23.0508 H         1 D25         0.0615
     24 H8        -44.2220   -2.7245   24.3848 H         1 D25         0.0615
     25 H9        -48.0285   -4.3096   30.3203 H         1 D25         0.2590
@<TRIPOS>BOND
     1    1    2 1  
     2    1    5 2  
     3    2    3 1  
     4    2   15 2  
     5    3    4 2  
     6    3    6 1  
     7    4    8 1  
     8    5   16 1  
     9    6    7 1  
    10    7    8 2  
    11    8    9 1  
    12    9   10 ar 
    13    9   14 ar 
    14   10   11 ar 
    15   11   12 ar 
    16   12   13 ar 
    17   13   14 ar 
    18   15   16 1  
    19    1   17 1  
    20    4   18 1  
    21    5   19 1  
    22   10   20 1  
    23   11   21 1  
    24   12   22 1  
    25   13   23 1  
    26   14   24 1  
    27   16   25 1  
@<TRIPOS>SUBSTRUCTURE
     1 D25         1

