### 
### Created by X-TOOL on Mon Sep 10 21:12:58 2018
### 

@<TRIPOS>MOLECULE
2vcw_ligand
   21    22     1     0     0
SMALL
GAST_HUCK


@<TRIPOS>ATOM
      1 O1          4.6820   12.1750    4.9050 O.co2     1 ZZA        -0.5696
      2 C2          4.3740   13.4150    4.4810 C.2       1 ZZA         0.0444
      3 O3          3.9540   14.2240    5.2830 O.co2     1 ZZA        -0.5696
      4 C4          4.5440   13.7930    3.0610 C.2       1 ZZA         0.0268
      5 C5          5.0770   12.9880    2.0230 C.2       1 ZZA         0.0099
      6 N6          5.0630   13.6930    0.9160 N.2       1 ZZA        -0.2015
      7 N7          4.5230   14.9660    1.1840 N.pl3     1 ZZA        -0.1586
      8 C8          4.2210   15.0180    2.4980 C.2       1 ZZA         0.0823
      9 C9          4.3520   16.0200    0.2550 C.ar      1 ZZA         0.1140
     10 C10         3.3860   17.0100    0.4670 C.ar      1 ZZA        -0.0245
     11 C11         3.2450   18.0460   -0.4400 C.ar      1 ZZA        -0.0653
     12 C12         4.0530   18.1100   -1.5670 C.ar      1 ZZA        -0.0682
     13 C13         5.0100   17.1320   -1.7910 C.ar      1 ZZA        -0.0653
     14 C14         5.1620   16.0940   -0.8800 C.ar      1 ZZA        -0.0245
     15 H1          5.4351   11.9647    2.1260 H         1 ZZA         0.0686
     16 H2          3.7977   15.8724    3.0241 H         1 ZZA         0.1063
     17 H3          2.7478   16.9655    1.3421 H         1 ZZA         0.0591
     18 H4          2.4982   18.8129   -0.2691 H         1 ZZA         0.0601
     19 H5          3.9357   18.9249   -2.2722 H         1 ZZA         0.0562
     20 H6          5.6374   17.1771   -2.6738 H         1 ZZA         0.0601
     21 H7          5.9163   15.3347   -1.0519 H         1 ZZA         0.0591
@<TRIPOS>BOND
     1    1    2 ar 
     2    2    3 ar 
     3    2    4 1  
     4    4    5 1  
     5    4    8 2  
     6    5    6 2  
     7    6    7 1  
     8    7    8 1  
     9    7    9 1  
    10    9   10 ar 
    11    9   14 ar 
    12   10   11 ar 
    13   11   12 ar 
    14   12   13 ar 
    15   13   14 ar 
    16    5   15 1  
    17    8   16 1  
    18   10   17 1  
    19   11   18 1  
    20   12   19 1  
    21   13   20 1  
    22   14   21 1  
@<TRIPOS>SUBSTRUCTURE
     1 ZZA         1

