### 
### Created by X-TOOL on Mon Sep 10 21:12:58 2018
### 

@<TRIPOS>MOLECULE
2vcx_ligand
   25    27     1     0     0
SMALL
GAST_HUCK


@<TRIPOS>ATOM
      1 C1         11.6920    4.7080   21.5450 C.2       1 D26        -0.0406
      2 C2         13.0510    4.6450   21.8940 C.2       1 D26         0.0973
      3 C3         13.6230    4.7270   23.2410 C.2       1 D26         0.0817
      4 C6         11.6380    4.5640   20.2000 C.2       1 D26        -0.0041
      5 N11        13.9290    5.1210   25.4830 N.2       1 D26        -0.3051
      6 C12        15.1310    4.5530   25.4130 C.2       1 D26         0.1130
      7 C13        16.1890    4.3560   26.4250 C.ar      1 D26         0.0203
      8 C14        16.1520    5.0500   27.6340 C.ar      1 D26        -0.0466
      9 C15        17.1790    4.8820   28.5390 C.ar      1 D26        -0.0578
     10 C16        18.2400    4.0420   28.2490 C.ar      1 D26        -0.0588
     11 C17        18.2930    3.3590   27.0460 C.ar      1 D26        -0.0578
     12 C18        17.2660    3.5160   26.1290 C.ar      1 D26        -0.0466
     13 N6         13.7800    4.4460   20.8170 N.pl3     1 D26        -0.2166
     14 S3         15.2290    4.1080   23.6930 S.3       1 D26         0.0016
     15 C4         13.1500    5.2200   24.4330 C.2       1 D26         0.0004
     16 N10        12.9040    4.3990   19.7370 N.2       1 D26        -0.2203
     17 H1         10.8497    4.8453   22.2215 H         1 D26         0.0366
     18 H2         10.7339    4.5781   19.5931 H         1 D26         0.0664
     19 H3         15.3254    5.7139   27.8599 H         1 D26         0.0655
     20 H4         17.1550    5.4118   29.4844 H         1 D26         0.0626
     21 H5         19.0383    3.9175   28.9717 H         1 D26         0.0642
     22 H6         19.1302    2.7074   26.8234 H         1 D26         0.0626
     23 H7         17.2980    2.9878   25.1830 H         1 D26         0.0655
     24 H8         14.8043    4.3443   20.7803 H         1 D26         0.2527
     25 H9         12.1638    5.6765   24.5032 H         1 D26         0.0639
@<TRIPOS>BOND
     1    2    1 2  
     2    1    4 1  
     3    3    2 1  
     4    2   13 1  
     5    3   14 1  
     6   15    3 2  
     7    4   16 2  
     8    5    6 2  
     9    5   15 1  
    10    6    7 1  
    11    6   14 1  
    12    7    8 ar 
    13    7   12 ar 
    14    8    9 ar 
    15    9   10 ar 
    16   10   11 ar 
    17   11   12 ar 
    18   13   16 1  
    19    1   17 1  
    20    4   18 1  
    21    8   19 1  
    22    9   20 1  
    23   10   21 1  
    24   11   22 1  
    25   12   23 1  
    26   13   24 1  
    27   15   25 1  
@<TRIPOS>SUBSTRUCTURE
     1 D26         1

