### 
### Created by X-TOOL on Mon Sep 10 21:12:57 2018
### 

@<TRIPOS>MOLECULE
2vd0_ligand
   40    41     1     0     0
SMALL
GAST_HUCK


@<TRIPOS>ATOM
      1 C1        127.6440   17.1120   -4.1000 C.ar      1 D27         0.0303
      2 C2        128.4440   15.9430   -4.1890 C.ar      1 D27         0.0805
      3 C3        126.7620   17.3720   -2.9450 C.2       1 D27         0.0547
      4 N4        128.5030   15.0220   -3.1240 N.am      1 D27        -0.2333
      5 C5        129.1950   13.8360   -3.1030 C.2       1 D27         0.2155
      6 C6        129.2280   13.0100   -1.8970 C.2       1 D27         0.0108
      7 C7        128.3330   12.8030    2.8950 C.ar      1 D27         0.1250
      8 C8        128.5960   13.4150   -0.7750 C.2       1 D27        -0.0485
      9 C9        128.5360   11.4150    3.0060 C.ar      1 D27         0.1264
     10 C10       128.3710   13.4130    1.6550 C.ar      1 D27        -0.0287
     11 O11       126.6760   16.5770   -2.0340 O.co2     1 D27        -0.5656
     12 O12       129.8130   13.4120   -4.0640 O.2       1 D27        -0.3821
     13 C13       128.5980   12.6640    0.4930 C.ar      1 D27        -0.0334
     14 C14       128.7790   10.6580    1.8410 C.ar      1 D27        -0.0342
     15 O15       126.0130   18.4920   -2.9050 O.co2     1 D27        -0.5656
     16 C16       128.8080   11.2670    0.5900 C.ar      1 D27        -0.0674
     17 O17       128.1150   13.5690    4.0050 O.3       1 D27        -0.3237
     18 C18       127.6500   18.0400   -5.1450 C.ar      1 D27        -0.0611
     19 O19       128.5230   10.8450    4.2600 O.3       1 D27        -0.3203
     20 C20       129.2380   15.7860   -5.3330 C.ar      1 D27        -0.0372
     21 C21       126.7770   14.0940    3.9840 C.3       1 D27         0.0570
     22 C22       127.5950    9.7480    4.3480 C.3       1 D27         0.0587
     23 C23       128.4370   17.8440   -6.2680 C.ar      1 D27        -0.0734
     24 C24       129.2330   16.7130   -6.3680 C.ar      1 D27        -0.0727
     25 H1        127.9883   15.2560   -2.2992 H         1 D27         0.2263
     26 H2        129.7654   12.0628   -1.9039 H         1 D27         0.0614
     27 H3        128.0499   14.3566   -0.8090 H         1 D27         0.0726
     28 H4        128.2233   14.4843    1.5808 H         1 D27         0.0540
     29 H5        128.9450    9.5898    1.9210 H         1 D27         0.0531
     30 H6        128.9896   10.6777   -0.3015 H         1 D27         0.0545
     31 H7        127.0296   18.9262   -5.0757 H         1 D27         0.0611
     32 H8        129.8764   14.9136   -5.4130 H         1 D27         0.0511
     33 H9        126.6103   14.7090    4.8807 H         1 D27         0.0573
     34 H10       126.0570   13.2625    3.9707 H         1 D27         0.0573
     35 H11       126.6398   14.7123    3.0847 H         1 D27         0.0573
     36 H12       127.6203    9.3270    5.3639 H         1 D27         0.0577
     37 H13       127.8760    8.9708    3.6220 H         1 D27         0.0577
     38 H14       126.5797   10.1079    4.1254 H         1 D27         0.0577
     39 H15       128.4306   18.5748   -7.0686 H         1 D27         0.0496
     40 H16       129.8468   16.5532   -7.2471 H         1 D27         0.0598
@<TRIPOS>BOND
     1    2    1 ar 
     2    1    3 1  
     3    1   18 ar 
     4    4    2 1  
     5    2   20 ar 
     6    3   11 ar 
     7    3   15 ar 
     8    5    4 am 
     9    6    5 1  
    10    5   12 2  
    11    8    6 2  
    12    7    9 ar 
    13   10    7 ar 
    14    7   17 1  
    15   13    8 1  
    16    9   14 ar 
    17    9   19 1  
    18   10   13 ar 
    19   13   16 ar 
    20   14   16 ar 
    21   17   21 1  
    22   18   23 ar 
    23   19   22 1  
    24   20   24 ar 
    25   23   24 ar 
    26    4   25 1  
    27    6   26 1  
    28    8   27 1  
    29   10   28 1  
    30   14   29 1  
    31   16   30 1  
    32   18   31 1  
    33   20   32 1  
    34   21   33 1  
    35   21   34 1  
    36   21   35 1  
    37   22   36 1  
    38   22   37 1  
    39   22   38 1  
    40   23   39 1  
    41   24   40 1  
@<TRIPOS>SUBSTRUCTURE
     1 D27         1

