### 
### Created by X-TOOL on Mon Sep 10 21:12:57 2018
### 

@<TRIPOS>MOLECULE
2vd1_ligand
   36    38     1     0     0
SMALL
GAST_HUCK


@<TRIPOS>ATOM
      1 C1         14.7390    4.6710   -1.4930 C.2       1 D28         0.0025
      2 C2         15.8880    4.3030   -0.6330 C.ar      1 D28        -0.0357
      3 N3         14.8590    4.5200   -2.8080 N.2       1 D28        -0.3088
      4 C4         13.5770    5.1600   -0.9770 C.2       1 D28         0.0093
      5 C5         16.2260    5.0590    0.4910 C.ar      1 D28        -0.0589
      6 C6         16.6530    3.1900   -0.9770 C.ar      1 D28        -0.0666
      7 C7         13.8870    4.8170   -3.6490 C.2       1 D28         0.2009
      8 S8         12.6560    5.3960   -2.4900 S.3       1 D28         0.0204
      9 C9         17.3070    4.7170    1.2680 C.ar      1 D28        -0.0147
     10 C10        17.7340    2.8520   -0.1920 C.ar      1 D28        -0.0368
     11 N11        13.9100    4.6900   -5.0410 N.pl3     1 D28        -0.2376
     12 C12        18.0590    3.6110    0.9200 C.ar      1 D28         0.1306
     13 C13        17.6610    5.5360    2.4800 C.3       1 D28        -0.0310
     14 C14        12.8480    4.6520   -5.9580 C.ar      1 D28         0.0618
     15 F15        19.1160    3.2450    1.6680 F         1 D28        -0.1906
     16 C16        13.2070    4.7840   -7.2980 C.ar      1 D28        -0.0065
     17 C17        11.4960    4.4950   -5.6150 C.ar      1 D28        -0.0449
     18 C18        12.2500    4.7660   -8.2970 C.ar      1 D28         0.0934
     19 C19        10.5310    4.4760   -6.5940 C.ar      1 D28        -0.0650
     20 C20        10.8900    4.6090   -7.9560 C.ar      1 D28         0.0270
     21 O21        12.6260    4.9010   -9.5980 O.3       1 D28        -0.3325
     22 C22         9.8830    4.5890   -9.0440 C.2       1 D28         0.0509
     23 O23         9.3660    3.5390   -9.4000 O.co2     1 D28        -0.5673
     24 O24         9.5450    5.7440   -9.6630 O.co2     1 D28        -0.5673
     25 H1         13.2923    5.3514    0.0566 H         1 D28         0.0661
     26 H2         15.6294    5.9251    0.7538 H         1 D28         0.0522
     27 H3         16.4012    2.5985   -1.8498 H         1 D28         0.0532
     28 H4         18.3342    1.9860   -0.4466 H         1 D28         0.0581
     29 H5         14.8491    4.6125   -5.4570 H         1 D28         0.2220
     30 H6         16.9463    6.3657    2.5833 H         1 D28         0.0382
     31 H7         18.6777    5.9400    2.3654 H         1 D28         0.0382
     32 H8         17.6177    4.9010    3.3771 H         1 D28         0.0382
     33 H9         14.2518    4.9026   -7.5616 H         1 D28         0.0463
     34 H10        11.2117    4.3883   -4.5744 H         1 D28         0.0457
     35 H11         9.4886    4.3584   -6.3207 H         1 D28         0.0596
     36 H12        13.5701    4.9956   -9.6454 H         1 D28         0.2495
@<TRIPOS>BOND
     1    1    2 1  
     2    1    3 1  
     3    1    4 2  
     4    2    5 ar 
     5    2    6 ar 
     6    3    7 2  
     7    4    8 1  
     8    5    9 ar 
     9    6   10 ar 
    10    7    8 1  
    11    7   11 1  
    12    9   12 ar 
    13    9   13 1  
    14   10   12 ar 
    15   11   14 1  
    16   12   15 1  
    17   14   16 ar 
    18   14   17 ar 
    19   16   18 ar 
    20   17   19 ar 
    21   18   20 ar 
    22   18   21 1  
    23   19   20 ar 
    24   20   22 1  
    25   22   23 ar 
    26   22   24 ar 
    27    4   25 1  
    28    5   26 1  
    29    6   27 1  
    30   10   28 1  
    31   11   29 1  
    32   13   30 1  
    33   13   31 1  
    34   13   32 1  
    35   16   33 1  
    36   17   34 1  
    37   19   35 1  
    38   21   36 1  
@<TRIPOS>SUBSTRUCTURE
     1 D28         1

