### 
### Created by X-TOOL on Mon Sep 10 21:12:57 2018
### 

@<TRIPOS>MOLECULE
2vd4_ligand
   61    63     1     0     0
SMALL
GAST_HUCK


@<TRIPOS>ATOM
      1 CL15       69.2520   32.7850   34.1010 Cl        1 P21        -0.0666
      2 C11        69.4180   31.4710   35.2740 C.ar      1 P21         0.0450
      3 C14        68.2850   30.7890   35.6920 C.ar      1 P21        -0.0423
      4 C9         68.4340   29.7540   36.6000 C.ar      1 P21        -0.0416
      5 C13        70.6850   31.1710   35.7430 C.ar      1 P21        -0.0423
      6 C8         70.8320   30.1440   36.6560 C.ar      1 P21        -0.0416
      7 C5         69.7070   29.4580   37.0720 C.ar      1 P21         0.0500
      8 C1         69.8870   28.3470   38.0310 C.2       1 P21         0.2078
      9 O7         69.9920   27.2560   37.4990 O.2       1 P21        -0.3845
     10 N2         69.9350   28.5470   39.3450 N.am      1 P21        -0.2642
     11 C12        70.2470   27.4900   40.3290 C.3       1 P21         0.0360
     12 C19        71.3560   26.5690   39.8100 C.3       1 P21        -0.0090
     13 C3         69.6060   29.8780   39.9030 C.3       1 P21         0.0844
     14 C6         70.8970   30.5180   40.4410 C.3       1 P21        -0.0080
     15 N4         70.6230   31.7670   41.1680 N.4       1 P21         0.2383
     16 C18        69.5240   31.7710   42.1480 C.3       1 P21        -0.0316
     17 C21        68.2570   31.1390   41.5450 C.3       1 P21        -0.0102
     18 C20        68.5520   29.7460   41.0070 C.3       1 P21        -0.0199
     19 C10        71.8710   32.4550   41.5610 C.3       1 P21        -0.0222
     20 C16        71.6860   33.9440   41.8400 C.3       1 P21         0.0213
     21 C17        73.0640   34.5690   41.9290 C.ar      1 P21        -0.0380
     22 C24        73.7990   34.5160   43.1180 C.ar      1 P21        -0.0602
     23 C28        75.0750   35.0870   43.1780 C.ar      1 P21        -0.0686
     24 C29        75.6150   35.7070   42.0520 C.ar      1 P21        -0.0687
     25 C27        74.8820   35.7510   40.8720 C.ar      1 P21        -0.0686
     26 C25        73.6160   35.1840   40.8090 C.ar      1 P21        -0.0602
     27 C23        72.1750   25.9490   40.9420 C.3       1 P21         0.0491
     28 O22        71.3300   25.2210   41.8340 O.3       1 P21        -0.3829
     29 C26        72.0610   24.4040   42.7530 C.3       1 P21         0.0364
     30 H1         67.3049   31.0600   35.3164 H         1 P21         0.0634
     31 H2         67.5742   29.1858   36.9360 H         1 P21         0.0669
     32 H3         71.5470   31.7318   35.4002 H         1 P21         0.0634
     33 H4         71.8117   29.8815   37.0387 H         1 P21         0.0669
     34 H5         69.3418   26.8936   40.5159 H         1 P21         0.0523
     35 H6         70.5779   27.9583   41.2677 H         1 P21         0.0523
     36 H7         72.0292   27.1543   39.1664 H         1 P21         0.0307
     37 H8         70.8975   25.7605   39.2218 H         1 P21         0.0307
     38 H9         69.1987   30.5136   39.1029 H         1 P21         0.0611
     39 H10        71.5655   30.7371   39.5954 H         1 P21         0.0837
     40 H11        71.3889   29.8091   41.1232 H         1 P21         0.0837
     41 H12        70.2542   32.3660   40.4461 H         1 P21         0.2036
     42 H13        69.3056   32.8083   42.4418 H         1 P21         0.0814
     43 H14        69.8282   31.1951   43.0344 H         1 P21         0.0814
     44 H15        67.8934   31.7735   40.7233 H         1 P21         0.0318
     45 H16        67.4834   31.0685   42.3238 H         1 P21         0.0318
     46 H17        68.9366   29.1073   41.8158 H         1 P21         0.0291
     47 H18        67.6334   29.3028   40.5950 H         1 P21         0.0291
     48 H19        72.6017   32.3420   40.7466 H         1 P21         0.0838
     49 H20        72.2600   31.9763   42.4718 H         1 P21         0.0838
     50 H21        71.1489   34.0837   42.7898 H         1 P21         0.0478
     51 H22        71.1148   34.4103   41.0237 H         1 P21         0.0478
     52 H23        73.3800   34.0325   43.9930 H         1 P21         0.0557
     53 H24        75.6437   35.0473   44.1000 H         1 P21         0.0599
     54 H25        76.6021   36.1527   42.0967 H         1 P21         0.0559
     55 H26        75.3013   36.2310   39.9952 H         1 P21         0.0599
     56 H27        73.0545   35.2205   39.8825 H         1 P21         0.0557
     57 H28        72.6849   26.7487   41.4991 H         1 P21         0.0560
     58 H29        72.9232   25.2655   40.5143 H         1 P21         0.0560
     59 H30        71.3575   23.8714   43.4098 H         1 P21         0.0523
     60 H31        72.7223   25.0382   43.3616 H         1 P21         0.0523
     61 H32        72.6652   23.6741   42.1943 H         1 P21         0.0523
@<TRIPOS>BOND
     1    1    2 1  
     2    2    3 ar 
     3    2    5 ar 
     4    3    4 ar 
     5    4    7 ar 
     6    5    6 ar 
     7    6    7 ar 
     8    7    8 1  
     9    8    9 2  
    10    8   10 am 
    11   10   11 1  
    12   10   13 1  
    13   11   12 1  
    14   12   27 1  
    15   13   14 1  
    16   13   18 1  
    17   14   15 1  
    18   15   16 1  
    19   15   19 1  
    20   16   17 1  
    21   17   18 1  
    22   19   20 1  
    23   20   21 1  
    24   21   22 ar 
    25   21   26 ar 
    26   22   23 ar 
    27   23   24 ar 
    28   24   25 ar 
    29   25   26 ar 
    30   27   28 1  
    31   28   29 1  
    32    3   30 1  
    33    4   31 1  
    34    5   32 1  
    35    6   33 1  
    36   11   34 1  
    37   11   35 1  
    38   12   36 1  
    39   12   37 1  
    40   13   38 1  
    41   14   39 1  
    42   14   40 1  
    43   15   41 1  
    44   16   42 1  
    45   16   43 1  
    46   17   44 1  
    47   17   45 1  
    48   18   46 1  
    49   18   47 1  
    50   19   48 1  
    51   19   49 1  
    52   20   50 1  
    53   20   51 1  
    54   22   52 1  
    55   23   53 1  
    56   24   54 1  
    57   25   55 1  
    58   26   56 1  
    59   27   57 1  
    60   27   58 1  
    61   29   59 1  
    62   29   60 1  
    63   29   61 1  
@<TRIPOS>SUBSTRUCTURE
     1 P21         1

