### 
### Created by X-TOOL on Mon Sep 10 21:12:55 2018
### 

@<TRIPOS>MOLECULE
2vd7_ligand
   15    15     1     0     0
SMALL
GAST_HUCK


@<TRIPOS>ATOM
      1 O42        26.6950  -22.5790  -25.5080 O.co2     1 PD2        -0.5574
      2 C41        26.6720  -21.7280  -24.6190 C.2       1 PD2         0.0728
      3 O41        27.6840  -21.0530  -24.3600 O.co2     1 PD2        -0.5574
      4 C4         25.3860  -21.5660  -23.8820 C.ar      1 PD2         0.0333
      5 C5         24.3490  -22.4500  -24.2020 C.ar      1 PD2        -0.0173
      6 C6         23.1370  -22.3500  -23.5400 C.ar      1 PD2         0.0184
      7 C3         25.2130  -20.5830  -22.9020 C.ar      1 PD2        -0.0054
      8 C2         23.9550  -20.5410  -22.2800 C.ar      1 PD2         0.0862
      9 N1         22.9650  -21.4140  -22.5980 N.ar      1 PD2        -0.2790
     10 C21        23.6310  -19.5380  -21.2330 C.2       1 PD2         0.0817
     11 O21        22.4740  -19.5600  -20.7670 O.co2     1 PD2        -0.5572
     12 O22        24.4830  -18.7240  -20.8790 O.co2     1 PD2        -0.5572
     13 H1         24.4938  -23.2080  -24.9632 H         1 PD2         0.0763
     14 H2         22.3280  -23.0289  -23.7841 H         1 PD2         0.0842
     15 H3         26.0057  -19.8925  -22.6376 H         1 PD2         0.0779
@<TRIPOS>BOND
     1    1    2 ar 
     2    2    3 ar 
     3    2    4 1  
     4    4    5 ar 
     5    4    7 ar 
     6    5    6 ar 
     7    6    9 ar 
     8    7    8 ar 
     9    8    9 ar 
    10    8   10 1  
    11   10   11 ar 
    12   10   12 ar 
    13    5   13 1  
    14    6   14 1  
    15    7   15 1  
@<TRIPOS>SUBSTRUCTURE
     1 PD2         1

