### 
### Created by X-TOOL on Mon Sep 10 21:12:57 2018
### 

@<TRIPOS>MOLECULE
2ves_ligand
   50    53     1     0     0
SMALL
GAST_HUCK


@<TRIPOS>ATOM
      1 O28        56.6260   40.6320   19.8480 O.2       1 GVR        -0.3947
      2 C27        57.2700   40.9120   18.8440 C.2       1 GVR         0.2226
      3 N29        58.0360   41.9940   18.8380 N.am      1 GVR        -0.1625
      4 O30        58.0640   42.7640   20.0090 O.3       1 GVR        -0.2717
      5 C26        57.2090   40.0420   17.6240 C.3       1 GVR         0.1374
      6 C25        55.9780   40.3330   16.7840 C.3       1 GVR         0.0181
      7 C15        55.7390   39.2430   15.7540 C.ar      1 GVR        -0.0382
      8 C16        55.7900   39.5510   14.3940 C.ar      1 GVR        -0.0564
      9 C17        55.5540   38.5720   13.4300 C.ar      1 GVR        -0.0567
     10 C20        55.2520   37.2720   13.8180 C.ar      1 GVR        -0.0222
     11 C21        55.0110   36.2580   12.8880 C.ar      1 GVR        -0.0568
     12 C19        55.1940   36.9440   15.2580 C.ar      1 GVR        -0.0259
     13 C24        54.8950   35.6490   15.6630 C.ar      1 GVR        -0.0578
     14 C23        54.6620   34.6650   14.6980 C.ar      1 GVR        -0.0637
     15 C22        54.7070   34.9750   13.3380 C.ar      1 GVR        -0.0634
     16 C18        55.4340   37.9570   16.1780 C.ar      1 GVR        -0.0547
     17 N1         58.3580   40.2140   16.7710 N.am      1 GVR        -0.2235
     18 S2         59.5880   39.2370   16.9260 S.o2      1 GVR         0.0706
     19 O13        59.9550   39.1580   18.3100 O.2       1 GVR        -0.1501
     20 O14        60.6530   39.7420   16.1070 O.2       1 GVR        -0.1501
     21 C3         59.1350   37.7910   16.3640 C.ar      1 GVR         0.1089
     22 C4         58.8990   37.6600   14.9870 C.ar      1 GVR        -0.0345
     23 C5         58.5080   36.4400   14.4220 C.ar      1 GVR        -0.0522
     24 C8         58.3470   35.3150   15.2220 C.ar      1 GVR        -0.0178
     25 C9         57.9630   34.0860   14.6880 C.ar      1 GVR        -0.0540
     26 C7         58.5910   35.4380   16.6780 C.ar      1 GVR        -0.0160
     27 C6         58.9790   36.6750   17.2050 C.ar      1 GVR        -0.0274
     28 C12        58.4250   34.3010   17.4750 C.ar      1 GVR        -0.0540
     29 C11        58.0240   33.0900   16.8960 C.ar      1 GVR        -0.0612
     30 C10        57.8080   32.9790   15.5230 C.ar      1 GVR        -0.0612
     31 H1         58.5708   42.2499   18.0327 H         1 GVR         0.2217
     32 H2         58.6429   43.5069   19.8844 H         1 GVR         0.2490
     33 H3         57.1711   38.9948   17.9586 H         1 GVR         0.0776
     34 H4         56.1182   41.2921   16.2639 H         1 GVR         0.0471
     35 H5         55.1012   40.3990   17.4450 H         1 GVR         0.0471
     36 H6         56.0160   40.5646   14.0831 H         1 GVR         0.0586
     37 H7         55.6061   38.8248   12.3772 H         1 GVR         0.0620
     38 H8         55.0601   36.4675   11.8256 H         1 GVR         0.0619
     39 H9         54.8429   35.4040   16.7177 H         1 GVR         0.0603
     40 H10        54.4439   33.6498   15.0094 H         1 GVR         0.0611
     41 H11        54.4999   34.1967   12.6124 H         1 GVR         0.0598
     42 H12        55.3825   37.7406   17.2389 H         1 GVR         0.0531
     43 H13        58.3757   40.9445   16.0883 H         1 GVR         0.1707
     44 H14        59.0224   38.5246   14.3449 H         1 GVR         0.0637
     45 H15        58.3299   36.3726   13.3549 H         1 GVR         0.0624
     46 H16        57.7846   33.9902   13.6231 H         1 GVR         0.0624
     47 H17        59.1606   36.7735   18.2691 H         1 GVR         0.0643
     48 H18        58.6068   34.3568   18.5422 H         1 GVR         0.0624
     49 H19        57.8787   32.2216   17.5283 H         1 GVR         0.0618
     50 H20        57.5170   32.0241   15.1005 H         1 GVR         0.0618
@<TRIPOS>BOND
     1    1    2 2  
     2    2    3 am 
     3    2    5 1  
     4    3    4 1  
     5    5    6 1  
     6    5   17 1  
     7    6    7 1  
     8    7    8 ar 
     9    7   16 ar 
    10    8    9 ar 
    11    9   10 ar 
    12   10   11 ar 
    13   10   12 ar 
    14   11   15 ar 
    15   12   13 ar 
    16   12   16 ar 
    17   13   14 ar 
    18   14   15 ar 
    19   17   18 am 
    20   18   19 2  
    21   18   20 2  
    22   18   21 1  
    23   21   22 ar 
    24   21   27 ar 
    25   22   23 ar 
    26   23   24 ar 
    27   24   25 ar 
    28   24   26 ar 
    29   25   30 ar 
    30   26   27 ar 
    31   26   28 ar 
    32   28   29 ar 
    33   29   30 ar 
    34    3   31 1  
    35    4   32 1  
    36    5   33 1  
    37    6   34 1  
    38    6   35 1  
    39    8   36 1  
    40    9   37 1  
    41   11   38 1  
    42   13   39 1  
    43   14   40 1  
    44   15   41 1  
    45   16   42 1  
    46   17   43 1  
    47   22   44 1  
    48   23   45 1  
    49   25   46 1  
    50   27   47 1  
    51   28   48 1  
    52   29   49 1  
    53   30   50 1  
@<TRIPOS>SUBSTRUCTURE
     1 GVR         1

