### 
### Created by X-TOOL on Mon Sep 10 21:12:56 2018
### 

@<TRIPOS>MOLECULE
2veu_ligand
   64    68     1     0     0
SMALL
GAST_HUCK


@<TRIPOS>ATOM
      1 C1         19.6070   16.5600   82.4170 C.3       1 IZ1         0.1471
      2 C2         20.8990   17.1630   81.9250 C.3       1 IZ1         0.0721
      3 C3         22.0520   16.3560   82.4130 C.2       1 IZ1         0.1996
      4 N4         21.7440   15.1130   82.8060 N.am      1 IZ1        -0.1561
      5 S5         19.9470   14.8030   82.6190 S.o2      1 IZ1         0.0754
      6 O6         19.2480   14.2870   84.0430 O.2       1 IZ1        -0.1483
      7 O7         19.5220   13.8490   81.2690 O.2       1 IZ1        -0.1483
      8 O9         23.2080   16.7650   82.4430 O.2       1 IZ1        -0.3952
      9 C11        18.4300   16.8130   81.4950 C.ar      1 IZ1        -0.0214
     10 C12        18.6250   16.8220   80.0360 C.ar      1 IZ1        -0.0648
     11 C13        17.4920   17.0970   79.1490 C.ar      1 IZ1        -0.0665
     12 C14        16.1650   17.3590   79.7200 C.ar      1 IZ1        -0.0454
     13 C15        15.9690   17.3470   81.1800 C.ar      1 IZ1        -0.0665
     14 C16        17.0990   17.0740   82.0610 C.ar      1 IZ1        -0.0648
     15 C21        15.0020   17.6260   78.8160 C.3       1 IZ1         0.0136
     16 C23        16.5960   21.9220   78.5440 C.2       1 IZ1         0.0131
     17 C4         16.2420   21.5520   77.1850 C.2       1 IZ1         0.0423
     18 N11        15.9360   21.0130   79.4010 N.2       1 IZ1        -0.3264
     19 C25        15.2060   20.1200   78.5920 C.2       1 IZ1         0.1394
     20 N13        15.3840   20.4310   77.2240 N.pl3     1 IZ1        -0.2559
     21 C17        19.2000   25.1960   79.9770 C.ar      1 IZ1        -0.0668
     22 C19        18.4970   24.3200   80.9390 C.ar      1 IZ1        -0.0669
     23 C20        17.6320   23.2300   80.4480 C.ar      1 IZ1        -0.0618
     24 C27        17.4660   23.0140   78.9940 C.ar      1 IZ1        -0.0315
     25 C5         18.1680   23.8930   78.0340 C.ar      1 IZ1        -0.0618
     26 C6         19.0340   24.9810   78.5270 C.ar      1 IZ1        -0.0669
     27 C22        14.3290   18.9650   79.0930 C.3       1 IZ1         0.1226
     28 N45        13.0520   18.9480   78.3830 N.am      1 IZ1        -0.2241
     29 S1         11.8560   20.1030   78.7390 S.o2      1 IZ1         0.0772
     30 O1         10.4860   19.1320   78.2710 O.2       1 IZ1        -0.1495
     31 O2         11.8180   20.4810   80.4180 O.2       1 IZ1        -0.1495
     32 C18        11.5220   21.6980   73.7480 C.3       1 IZ1         0.3771
     33 C24        11.9550   22.0180   75.1140 C.ar      1 IZ1         0.0501
     34 C26        12.7120   23.2520   75.3750 C.ar      1 IZ1        -0.0314
     35 C7         11.6290   21.1120   76.2150 C.ar      1 IZ1        -0.0046
     36 C8         12.0580   21.4370   77.5760 C.ar      1 IZ1         0.1373
     37 C9         12.8100   22.6660   77.8410 C.ar      1 IZ1        -0.0071
     38 C10        13.1380   23.5730   76.7390 C.ar      1 IZ1        -0.0302
     39 F3         10.7380   20.4390   73.5620 F         1 IZ1        -0.2199
     40 F1         12.7000   21.5640   72.8280 F         1 IZ1        -0.2199
     41 F2         10.5630   22.7330   73.2100 F         1 IZ1        -0.2199
     42 H1         19.3609   16.9955   83.3967 H         1 IZ1         0.0735
     43 H2         20.9883   18.1924   82.3024 H         1 IZ1         0.0544
     44 H3         20.9010   17.1742   80.8251 H         1 IZ1         0.0544
     45 H4         22.4033   14.4462   83.1534 H         1 IZ1         0.2143
     46 H5         19.6058   16.6254   79.6184 H         1 IZ1         0.0540
     47 H6         17.6330   17.1070   78.0742 H         1 IZ1         0.0540
     48 H7         14.9879   17.5405   81.5984 H         1 IZ1         0.0540
     49 H8         16.9568   17.0636   83.1356 H         1 IZ1         0.0540
     50 H9         14.2601   16.8256   78.9532 H         1 IZ1         0.0460
     51 H10        15.3583   17.6212   77.7753 H         1 IZ1         0.0460
     52 H11        16.5829   22.0570   76.2824 H         1 IZ1         0.0877
     53 H12        14.9712   19.9392   76.4186 H         1 IZ1         0.2405
     54 H13        19.8370   25.9957   80.3372 H         1 IZ1         0.0575
     55 H14        18.6171   24.4786   82.0046 H         1 IZ1         0.0604
     56 H15        17.1178   22.5871   81.1533 H         1 IZ1         0.0576
     57 H16        18.0463   23.7379   76.9681 H         1 IZ1         0.0576
     58 H17        19.5493   25.6237   77.8224 H         1 IZ1         0.0604
     59 H18        14.1569   19.0828   80.1730 H         1 IZ1         0.0774
     60 H19        12.8806   18.2536   77.6842 H         1 IZ1         0.1712
     61 H20        12.9542   23.9229   74.5588 H         1 IZ1         0.0853
     62 H21        11.0713   20.2024   76.0235 H         1 IZ1         0.0873
     63 H22        13.1232   22.9036   78.8512 H         1 IZ1         0.0876
     64 H23        13.6960   24.4819   76.9328 H         1 IZ1         0.0699
@<TRIPOS>BOND
     1    1    2 1  
     2    1    5 1  
     3    9    1 1  
     4    2    3 1  
     5    4    3 am 
     6    3    8 2  
     7    5    4 am 
     8    5    6 2  
     9    5    7 2  
    10   10    9 ar 
    11   14    9 ar 
    12   11   10 ar 
    13   12   11 ar 
    14   12   13 ar 
    15   15   12 1  
    16   13   14 ar 
    17   27   15 1  
    18   17   16 2  
    19   18   16 1  
    20   16   24 1  
    21   20   17 1  
    22   19   18 2  
    23   19   20 1  
    24   27   19 1  
    25   22   21 ar 
    26   26   21 ar 
    27   23   22 ar 
    28   24   23 ar 
    29   24   25 ar 
    30   25   26 ar 
    31   28   27 1  
    32   29   28 am 
    33   29   30 2  
    34   29   31 2  
    35   36   29 1  
    36   33   32 1  
    37   32   39 1  
    38   32   40 1  
    39   32   41 1  
    40   33   34 ar 
    41   35   33 ar 
    42   34   38 ar 
    43   35   36 ar 
    44   36   37 ar 
    45   37   38 ar 
    46    1   42 1  
    47    2   43 1  
    48    2   44 1  
    49    4   45 1  
    50   10   46 1  
    51   11   47 1  
    52   13   48 1  
    53   14   49 1  
    54   15   50 1  
    55   15   51 1  
    56   17   52 1  
    57   20   53 1  
    58   21   54 1  
    59   22   55 1  
    60   23   56 1  
    61   25   57 1  
    62   26   58 1  
    63   27   59 1  
    64   28   60 1  
    65   34   61 1  
    66   35   62 1  
    67   37   63 1  
    68   38   64 1  
@<TRIPOS>SUBSTRUCTURE
     1 IZ1         1

