### 
### Created by X-TOOL on Mon Sep 10 21:12:56 2018
### 

@<TRIPOS>MOLECULE
2vev_ligand
   67    71     1     0     0
SMALL
GAST_HUCK


@<TRIPOS>ATOM
      1 C1         19.1860   16.6550   82.3440 C.3       1 IZ2         0.1471
      2 C2         20.4970   17.1570   81.8380 C.3       1 IZ2         0.0721
      3 C3         21.5820   16.4440   82.5620 C.2       1 IZ2         0.1996
      4 N4         21.2250   15.2550   83.0640 N.am      1 IZ2        -0.1561
      5 S5         19.5380   14.9240   82.6290 S.o2      1 IZ2         0.0754
      6 O6         18.5630   14.4070   83.8400 O.2       1 IZ2        -0.1483
      7 O7         19.3150   14.0850   81.2560 O.2       1 IZ2        -0.1483
      8 O9         22.7030   16.8680   82.7330 O.2       1 IZ2        -0.3952
      9 C11        17.9620   16.8440   81.4630 C.ar      1 IZ2        -0.0214
     10 C12        18.0850   16.7760   80.0040 C.ar      1 IZ2        -0.0648
     11 C13        16.9100   16.9760   79.1690 C.ar      1 IZ2        -0.0665
     12 C14        15.6040   17.2440   79.7920 C.ar      1 IZ2        -0.0455
     13 C15        15.4830   17.3080   81.2460 C.ar      1 IZ2        -0.0665
     14 C16        16.6540   17.1090   82.0820 C.ar      1 IZ2        -0.0648
     15 C21        14.3850   17.4480   78.9280 C.3       1 IZ2         0.0125
     16 C22        13.7020   18.7980   79.1630 C.3       1 IZ2         0.1182
     17 N45        12.4340   18.7900   78.4100 N.am      1 IZ2        -0.2254
     18 S1         11.3170   20.0770   78.7670 S.o2      1 IZ2         0.0771
     19 C23        16.0510   21.5480   78.3030 C.2       1 IZ2         0.0549
     20 C4         15.7810   20.9780   76.9950 C.2       1 IZ2        -0.0383
     21 N11        15.3390   20.9110   79.3430 N.pl3     1 IZ2        -0.2567
     22 C25        14.6190   19.9150   78.6530 C.2       1 IZ2         0.1289
     23 N13        14.8620   19.9440   77.2660 N.2       1 IZ2        -0.3495
     24 C5         17.0020   22.6980   78.5820 C.3       1 IZ2         0.0318
     25 C17        20.3260   23.0930   75.6360 C.ar      1 IZ2        -0.0686
     26 C18        19.3290   24.1660   75.7680 C.ar      1 IZ2        -0.0684
     27 C19        18.2300   24.0320   76.7310 C.ar      1 IZ2        -0.0586
     28 C20        18.1270   22.8250   77.5640 C.ar      1 IZ2        -0.0313
     29 C27        19.1270   21.7480   77.4290 C.ar      1 IZ2        -0.0586
     30 C6         20.2230   21.8840   76.4670 C.ar      1 IZ2        -0.0684
     31 O1          9.7060   19.5330   78.7750 O.2       1 IZ2        -0.1495
     32 O2         11.8510   20.9480   80.1380 O.2       1 IZ2        -0.1495
     33 C24        12.7020   23.4210   76.6430 C.ar      1 IZ2        -0.0302
     34 C26        12.2610   23.1120   75.2800 C.ar      1 IZ2        -0.0314
     35 C7         12.4030   22.4920   77.7350 C.ar      1 IZ2        -0.0071
     36 C8         11.6640   21.2510   77.4630 C.ar      1 IZ2         0.1372
     37 C9         11.2210   20.9420   76.1030 C.ar      1 IZ2        -0.0046
     38 C10        11.5170   21.8690   75.0110 C.ar      1 IZ2         0.0501
     39 C29        11.0560   21.5430   73.6670 C.3       1 IZ2         0.3771
     40 F4         12.2570   21.3860   72.8340 F         1 IZ2        -0.2199
     41 F6         10.1870   22.6160   73.1440 F         1 IZ2        -0.2199
     42 F5         10.1810   20.3400   73.4740 F         1 IZ2        -0.2199
     43 H1         18.9665   17.1533   83.2998 H         1 IZ2         0.0735
     44 H2         20.5765   18.2387   82.0209 H         1 IZ2         0.0544
     45 H3         20.5788   16.9606   80.7588 H         1 IZ2         0.0544
     46 H4         21.8154   14.6504   83.5987 H         1 IZ2         0.2143
     47 H5         19.0483   16.5773   79.5483 H         1 IZ2         0.0540
     48 H6         16.9967   16.9276   78.0896 H         1 IZ2         0.0540
     49 H7         14.5190   17.5041   81.7014 H         1 IZ2         0.0540
     50 H8         16.5642   17.1557   83.1613 H         1 IZ2         0.0540
     51 H9         13.6629   16.6475   79.1466 H         1 IZ2         0.0458
     52 H10        14.6898   17.3888   77.8727 H         1 IZ2         0.0458
     53 H11        13.5020   18.9428   80.2349 H         1 IZ2         0.0757
     54 H12        12.2272   18.0846   77.7320 H         1 IZ2         0.1710
     55 H13        16.1915   21.2784   76.0321 H         1 IZ2         0.0292
     56 H14        15.3445   21.1212   80.3513 H         1 IZ2         0.2360
     57 H15        17.4488   22.5455   79.5755 H         1 IZ2         0.0589
     58 H16        16.4245   23.6342   78.5794 H         1 IZ2         0.0589
     59 H17        21.1381   23.1934   74.9250 H         1 IZ2         0.0560
     60 H18        19.4060   25.0559   75.1539 H         1 IZ2         0.0599
     61 H19        17.4946   24.8224   76.8281 H         1 IZ2         0.0559
     62 H20        19.0504   20.8569   78.0414 H         1 IZ2         0.0559
     63 H21        20.9582   21.0936   76.3675 H         1 IZ2         0.0599
     64 H22        13.2486   24.3356   76.8426 H         1 IZ2         0.0699
     65 H23        12.4821   23.7977   74.4700 H         1 IZ2         0.0853
     66 H24        12.7268   22.7197   78.7441 H         1 IZ2         0.0876
     67 H25        10.6741   20.0272   75.9051 H         1 IZ2         0.0873
@<TRIPOS>BOND
     1    1    2 1  
     2    1    5 1  
     3    9    1 1  
     4    2    3 1  
     5    4    3 am 
     6    3    8 2  
     7    5    4 am 
     8    5    6 2  
     9    5    7 2  
    10   10    9 ar 
    11   14    9 ar 
    12   11   10 ar 
    13   12   11 ar 
    14   12   13 ar 
    15   15   12 1  
    16   13   14 ar 
    17   16   15 1  
    18   17   16 1  
    19   16   22 1  
    20   18   17 am 
    21   18   31 2  
    22   18   32 2  
    23   36   18 1  
    24   20   19 2  
    25   21   19 1  
    26   19   24 1  
    27   23   20 1  
    28   22   21 1  
    29   22   23 2  
    30   24   28 1  
    31   26   25 ar 
    32   30   25 ar 
    33   27   26 ar 
    34   28   27 ar 
    35   28   29 ar 
    36   29   30 ar 
    37   33   34 ar 
    38   35   33 ar 
    39   34   38 ar 
    40   35   36 ar 
    41   36   37 ar 
    42   37   38 ar 
    43   38   39 1  
    44   39   40 1  
    45   39   41 1  
    46   39   42 1  
    47    1   43 1  
    48    2   44 1  
    49    2   45 1  
    50    4   46 1  
    51   10   47 1  
    52   11   48 1  
    53   13   49 1  
    54   14   50 1  
    55   15   51 1  
    56   15   52 1  
    57   16   53 1  
    58   17   54 1  
    59   20   55 1  
    60   21   56 1  
    61   24   57 1  
    62   24   58 1  
    63   25   59 1  
    64   26   60 1  
    65   27   61 1  
    66   29   62 1  
    67   30   63 1  
    68   33   64 1  
    69   34   65 1  
    70   35   66 1  
    71   37   67 1  
@<TRIPOS>SUBSTRUCTURE
     1 IZ2         1

