### 
### Created by X-TOOL on Mon Sep 10 21:12:56 2018
### 

@<TRIPOS>MOLECULE
2vew_ligand
   66    70     1     0     0
SMALL
GAST_HUCK


@<TRIPOS>ATOM
      1 C1         19.1370   16.6130   82.1960 C.3       1 IZ3         0.1471
      2 C2         20.4410   17.1320   81.6550 C.3       1 IZ3         0.0721
      3 C3         21.5630   16.3940   82.3110 C.2       1 IZ3         0.1996
      4 N4         21.2310   15.1920   82.7950 N.am      1 IZ3        -0.1561
      5 S5         19.4830   14.8760   82.5060 S.o2      1 IZ3         0.0754
      6 O6         18.5160   14.3070   83.6830 O.2       1 IZ3        -0.1483
      7 O7         19.2770   14.0180   81.0720 O.2       1 IZ3        -0.1483
      8 O9         22.6950   16.8270   82.4460 O.2       1 IZ3        -0.3952
      9 C11        17.9060   16.8140   81.3310 C.ar      1 IZ3        -0.0214
     10 C12        17.9990   16.6790   79.8800 C.ar      1 IZ3        -0.0648
     11 C13        16.8120   16.8920   79.0520 C.ar      1 IZ3        -0.0665
     12 C14        15.5270   17.2110   79.6830 C.ar      1 IZ3        -0.0448
     13 C15        15.4360   17.3450   81.1400 C.ar      1 IZ3        -0.0665
     14 C16        16.6170   17.1470   81.9620 C.ar      1 IZ3        -0.0648
     15 C21        14.3020   17.3980   78.8370 C.3       1 IZ3         0.0176
     16 C22        13.7170   18.8170   78.9010 C.3       1 IZ3         0.1276
     17 N45        12.3840   18.7570   78.2870 N.am      1 IZ3        -0.2203
     18 S1         11.2740   20.0560   78.6210 S.o2      1 IZ3         0.0705
     19 O1          9.8210   19.3480   78.1340 O.2       1 IZ3        -0.1501
     20 O2         11.4830   20.4810   80.2350 O.2       1 IZ3        -0.1501
     21 C23        15.8110   20.7330   76.5480 C.3       1 IZ3         0.0170
     22 C4         16.2530   21.2700   77.8860 C.3       1 IZ3         0.0426
     23 N11        14.6540   19.8820   76.8530 N.2       1 IZ3        -0.3659
     24 C25        14.6360   19.8300   78.1960 C.2       1 IZ3         0.1162
     25 N13        15.4550   20.6040   78.9290 N.pl3     1 IZ3        -0.2869
     26 F1         11.7310   22.6060   74.2210 F         1 IZ3        -0.1833
     27 C24        12.1200   22.7090   75.6160 C.ar      1 IZ3         0.1343
     28 C26        12.9210   23.7570   76.2630 C.ar      1 IZ3        -0.0281
     29 C7         11.6080   21.5910   76.3970 C.ar      1 IZ3        -0.0016
     30 C8         11.9140   21.4970   77.8190 C.ar      1 IZ3         0.1066
     31 C9         12.7000   22.5500   78.4780 C.ar      1 IZ3        -0.0392
     32 C10        13.2040   23.6800   77.6990 C.ar      1 IZ3        -0.0618
     33 C17        15.4980   17.9880   72.1130 C.ar      1 IZ3        -0.0706
     34 C19        15.8630   19.4130   72.1380 C.ar      1 IZ3        -0.0726
     35 C20        16.3390   20.0270   73.3830 C.ar      1 IZ3        -0.0620
     36 C27        16.4440   19.2180   74.6040 C.ar      1 IZ3        -0.0088
     37 C5         16.1040   17.7900   74.5700 C.ar      1 IZ3         0.1331
     38 C6         15.6300   17.1750   73.3290 C.ar      1 IZ3        -0.0349
     39 C18        16.9000   19.8590   75.9040 C.3       1 IZ3        -0.0106
     40 F2         16.2530   17.0290   75.7940 F         1 IZ3        -0.1891
     41 H1         18.9340   17.1181   83.1518 H         1 IZ3         0.0735
     42 H2         20.5293   18.2069   81.8713 H         1 IZ3         0.0544
     43 H3         20.4796   16.9724   80.5673 H         1 IZ3         0.0544
     44 H4         21.8607   14.5623   83.2500 H         1 IZ3         0.2143
     45 H5         18.9451   16.4216   79.4177 H         1 IZ3         0.0540
     46 H6         16.8821   16.8141   77.9731 H         1 IZ3         0.0540
     47 H7         14.4877   17.5917   81.6037 H         1 IZ3         0.0540
     48 H8         16.5500   17.2442   83.0396 H         1 IZ3         0.0540
     49 H9         13.5328   16.6898   79.1786 H         1 IZ3         0.0467
     50 H10        14.5650   17.1778   77.7919 H         1 IZ3         0.0467
     51 H11        13.6145   19.1201   79.9534 H         1 IZ3         0.0833
     52 H12        12.1223   17.9941   77.6958 H         1 IZ3         0.1720
     53 H13        15.5373   21.5543   75.8694 H         1 IZ3         0.0378
     54 H14        16.0868   22.3566   77.9256 H         1 IZ3         0.0539
     55 H15        17.3211   21.0565   78.0397 H         1 IZ3         0.0539
     56 H16        15.5100   20.7048   79.9526 H         1 IZ3         0.1932
     57 H17        13.3024   24.5866   75.6787 H         1 IZ3         0.0604
     58 H18        11.0002   20.8299   75.9212 H         1 IZ3         0.0623
     59 H19        12.9058   22.4888   79.5405 H         1 IZ3         0.0602
     60 H20        13.7847   24.4578   78.1816 H         1 IZ3         0.0608
     61 H21        15.1317   17.5382   71.1973 H         1 IZ3         0.0549
     62 H22        15.7803   20.0095   71.2367 H         1 IZ3         0.0565
     63 H23        16.6126   21.0758   73.4013 H         1 IZ3         0.0546
     64 H24        15.3768   16.1212   73.3076 H         1 IZ3         0.0585
     65 H25        17.1763   19.0629   76.6110 H         1 IZ3         0.0423
     66 H26        17.7790   20.4872   75.6973 H         1 IZ3         0.0423
@<TRIPOS>BOND
     1    1    2 1  
     2    1    5 1  
     3    9    1 1  
     4    2    3 1  
     5    4    3 am 
     6    3    8 2  
     7    5    4 am 
     8    5    6 2  
     9    5    7 2  
    10   10    9 ar 
    11   14    9 ar 
    12   11   10 ar 
    13   12   11 ar 
    14   12   13 ar 
    15   15   12 1  
    16   13   14 ar 
    17   16   15 1  
    18   16   17 1  
    19   24   16 1  
    20   17   18 am 
    21   18   19 2  
    22   18   20 2  
    23   18   30 1  
    24   21   22 1  
    25   21   23 1  
    26   39   21 1  
    27   22   25 1  
    28   23   24 2  
    29   24   25 1  
    30   27   26 1  
    31   27   28 ar 
    32   29   27 ar 
    33   32   28 ar 
    34   30   29 ar 
    35   30   31 ar 
    36   31   32 ar 
    37   34   33 ar 
    38   33   38 ar 
    39   35   34 ar 
    40   36   35 ar 
    41   36   37 ar 
    42   36   39 1  
    43   37   38 ar 
    44   37   40 1  
    45    1   41 1  
    46    2   42 1  
    47    2   43 1  
    48    4   44 1  
    49   10   45 1  
    50   11   46 1  
    51   13   47 1  
    52   14   48 1  
    53   15   49 1  
    54   15   50 1  
    55   16   51 1  
    56   17   52 1  
    57   21   53 1  
    58   22   54 1  
    59   22   55 1  
    60   25   56 1  
    61   28   57 1  
    62   29   58 1  
    63   31   59 1  
    64   32   60 1  
    65   33   61 1  
    66   34   62 1  
    67   35   63 1  
    68   38   64 1  
    69   39   65 1  
    70   39   66 1  
@<TRIPOS>SUBSTRUCTURE
     1 IZ3         1

