### 
### Created by X-TOOL on Mon Sep 10 21:12:56 2018
### 

@<TRIPOS>MOLECULE
2vex_ligand
   69    73     1     0     0
SMALL
GAST_HUCK


@<TRIPOS>ATOM
      1 C1         18.9950   16.6810   82.1540 C.3       1 IZ4         0.1471
      2 C2         20.2680   17.3030   81.6540 C.3       1 IZ4         0.0721
      3 C3         21.4180   16.6200   82.3030 C.2       1 IZ4         0.1996
      4 N4         21.1440   15.3820   82.7140 N.am      1 IZ4        -0.1561
      5 S5         19.4000   14.9480   82.4380 S.o2      1 IZ4         0.0754
      6 O6         18.4540   14.5750   83.7760 O.2       1 IZ4        -0.1483
      7 O7         18.9890   14.1490   81.0150 O.2       1 IZ4        -0.1483
      8 O9         22.5230   17.1250   82.4980 O.2       1 IZ4        -0.3952
      9 C11        17.7650   16.8560   81.3000 C.ar      1 IZ4        -0.0214
     10 C12        17.8460   16.6820   79.8450 C.ar      1 IZ4        -0.0648
     11 C13        16.6380   16.8570   79.0200 C.ar      1 IZ4        -0.0665
     12 C14        15.3600   17.2080   79.6630 C.ar      1 IZ4        -0.0448
     13 C15        15.2900   17.3790   81.1110 C.ar      1 IZ4        -0.0665
     14 C16        16.4930   17.2040   81.9310 C.ar      1 IZ4        -0.0648
     15 C21        14.1240   17.3920   78.8300 C.3       1 IZ4         0.0176
     16 C22        13.5670   18.8290   78.8950 C.3       1 IZ4         0.1276
     17 N45        12.2370   18.8140   78.2660 N.am      1 IZ4        -0.2203
     18 S1         11.1250   20.1440   78.5230 S.o2      1 IZ4         0.0705
     19 O1          9.6070   19.4500   78.1370 O.2       1 IZ4        -0.1501
     20 O2         11.2840   20.6440   80.1270 O.2       1 IZ4        -0.1501
     21 C23        15.5360   20.5450   76.2350 C.3       1 IZ4         0.0096
     22 C4         16.1730   21.1390   77.4810 C.3       1 IZ4         0.0410
     23 N11        14.4770   19.6530   76.7170 N.2       1 IZ4        -0.3678
     24 C25        14.5280   19.7400   78.1270 C.2       1 IZ4         0.1160
     25 N13        15.4680   20.6390   78.6820 N.pl3     1 IZ4        -0.2871
     26 F1         11.1460   22.3710   73.6980 F         1 IZ4        -0.1833
     27 C24        11.6060   22.4070   75.0680 C.ar      1 IZ4         0.1343
     28 C26        12.5110   23.4750   75.5080 C.ar      1 IZ4        -0.0281
     29 C7         11.1750   21.3770   76.0070 C.ar      1 IZ4        -0.0016
     30 C8         11.6440   21.4060   77.3840 C.ar      1 IZ4         0.1066
     31 C9         12.5510   22.4710   77.8310 C.ar      1 IZ4        -0.0392
     32 C10        12.9830   23.5060   76.8910 C.ar      1 IZ4        -0.0618
     33 C27        15.9070   19.0830   74.1930 C.3       1 IZ4        -0.0187
     34 C18        16.5360   19.6800   75.4400 C.3       1 IZ4        -0.0354
     35 C17        17.7290   17.6670   73.0160 C.ar      1 IZ4        -0.0603
     36 C19        16.4500   17.7370   73.7390 C.ar      1 IZ4        -0.0430
     37 C20        15.6860   16.5060   74.0060 C.ar      1 IZ4        -0.0603
     38 C28        16.2010   15.2110   73.5460 C.ar      1 IZ4        -0.0686
     39 C5         17.4800   15.1470   72.8190 C.ar      1 IZ4        -0.0687
     40 C6         18.2420   16.3720   72.5560 C.ar      1 IZ4        -0.0686
     41 H1         18.7599   17.1451   83.1232 H         1 IZ4         0.0735
     42 H2         20.2818   18.3733   81.9077 H         1 IZ4         0.0544
     43 H3         20.3346   17.1839   80.5625 H         1 IZ4         0.0544
     44 H4         21.8165   14.7662   83.1246 H         1 IZ4         0.2143
     45 H5         18.7907   16.4258   79.3793 H         1 IZ4         0.0540
     46 H6         16.6894   16.7281   77.9449 H         1 IZ4         0.0540
     47 H7         14.3474   17.6357   81.5808 H         1 IZ4         0.0540
     48 H8         16.4391   17.3328   83.0060 H         1 IZ4         0.0540
     49 H9         13.3503   16.6987   79.1914 H         1 IZ4         0.0467
     50 H10        14.3674   17.1566   77.7834 H         1 IZ4         0.0467
     51 H11        13.4854   19.1662   79.9388 H         1 IZ4         0.0833
     52 H12        11.9667   18.0425   77.6900 H         1 IZ4         0.1720
     53 H13        15.1294   21.3409   75.5938 H         1 IZ4         0.0358
     54 H14        16.0996   22.2359   77.4429 H         1 IZ4         0.0538
     55 H15        17.2316   20.8437   77.5279 H         1 IZ4         0.0538
     56 H16        15.6226   20.8835   79.6706 H         1 IZ4         0.1932
     57 H17        12.8290   24.2397   74.8085 H         1 IZ4         0.0604
     58 H18        10.5054   20.5902   75.6788 H         1 IZ4         0.0623
     59 H19        12.9004   22.4904   78.8570 H         1 IZ4         0.0602
     60 H20        13.6514   24.2937   77.2195 H         1 IZ4         0.0608
     61 H21        16.0532   19.7976   73.3696 H         1 IZ4         0.0426
     62 H22        14.8310   18.9616   74.3864 H         1 IZ4         0.0426
     63 H23        16.8897   18.8625   76.0854 H         1 IZ4         0.0292
     64 H24        17.3891   20.3071   75.1418 H         1 IZ4         0.0292
     65 H25        18.2926   18.5726   72.8230 H         1 IZ4         0.0557
     66 H26        14.7448   16.5567   74.5414 H         1 IZ4         0.0557
     67 H27        15.6411   14.3035   73.7410 H         1 IZ4         0.0599
     68 H28        17.8596   14.1909   72.4770 H         1 IZ4         0.0559
     69 H29        19.1839   16.3206   72.0219 H         1 IZ4         0.0599
@<TRIPOS>BOND
     1    1    2 1  
     2    1    5 1  
     3    9    1 1  
     4    2    3 1  
     5    4    3 am 
     6    3    8 2  
     7    5    4 am 
     8    5    6 2  
     9    5    7 2  
    10   10    9 ar 
    11   14    9 ar 
    12   11   10 ar 
    13   12   11 ar 
    14   12   13 ar 
    15   15   12 1  
    16   13   14 ar 
    17   16   15 1  
    18   17   16 1  
    19   16   24 1  
    20   18   17 am 
    21   18   19 2  
    22   18   20 2  
    23   30   18 1  
    24   22   21 1  
    25   23   21 1  
    26   21   34 1  
    27   25   22 1  
    28   24   23 2  
    29   24   25 1  
    30   27   26 1  
    31   27   28 ar 
    32   29   27 ar 
    33   28   32 ar 
    34   29   30 ar 
    35   30   31 ar 
    36   31   32 ar 
    37   34   33 1  
    38   33   36 1  
    39   36   35 ar 
    40   35   40 ar 
    41   36   37 ar 
    42   37   38 ar 
    43   38   39 ar 
    44   39   40 ar 
    45    1   41 1  
    46    2   42 1  
    47    2   43 1  
    48    4   44 1  
    49   10   45 1  
    50   11   46 1  
    51   13   47 1  
    52   14   48 1  
    53   15   49 1  
    54   15   50 1  
    55   16   51 1  
    56   17   52 1  
    57   21   53 1  
    58   22   54 1  
    59   22   55 1  
    60   25   56 1  
    61   28   57 1  
    62   29   58 1  
    63   31   59 1  
    64   32   60 1  
    65   33   61 1  
    66   33   62 1  
    67   34   63 1  
    68   34   64 1  
    69   35   65 1  
    70   37   66 1  
    71   38   67 1  
    72   39   68 1  
    73   40   69 1  
@<TRIPOS>SUBSTRUCTURE
     1 IZ4         1

