### 
### Created by X-TOOL on Mon Sep 10 21:12:56 2018
### 

@<TRIPOS>MOLECULE
2vey_ligand
   70    74     1     0     0
SMALL
GAST_HUCK


@<TRIPOS>ATOM
      1 C1         19.2350   16.5500   81.9160 C.3       1 IZ5         0.1471
      2 C2         20.5300   17.1030   81.3930 C.3       1 IZ5         0.0721
      3 C3         21.6510   16.3950   82.0470 C.2       1 IZ5         0.1996
      4 N4         21.3110   15.2340   82.6110 N.am      1 IZ5        -0.1561
      5 S5         19.5700   14.8270   82.2380 S.o2      1 IZ5         0.0754
      6 O6         18.7340   14.2620   83.5700 O.2       1 IZ5        -0.1483
      7 O7         19.3330   14.0460   80.7340 O.2       1 IZ5        -0.1483
      8 O9         22.8030   16.8010   82.0830 O.2       1 IZ5        -0.3952
      9 C11        18.0080   16.7670   81.0460 C.ar      1 IZ5        -0.0214
     10 C12        18.1310   16.7450   79.5810 C.ar      1 IZ5        -0.0648
     11 C13        16.9410   16.9860   78.7500 C.ar      1 IZ5        -0.0665
     12 C14        15.6470   17.2350   79.3970 C.ar      1 IZ5        -0.0456
     13 C15        15.5240   17.2560   80.8560 C.ar      1 IZ5        -0.0665
     14 C16        16.7050   17.0240   81.6790 C.ar      1 IZ5        -0.0648
     15 C21        14.4030   17.4610   78.5760 C.3       1 IZ5         0.0124
     16 C22        13.8710   18.8860   78.7280 C.3       1 IZ5         0.1179
     17 N45        12.5530   18.9410   78.1120 N.am      1 IZ5        -0.2260
     18 S1         11.5960   20.3590   78.3320 S.o2      1 IZ5         0.0698
     19 O1         10.0510   19.6560   77.9470 O.2       1 IZ5        -0.1502
     20 O2         11.8490   20.8170   79.9400 O.2       1 IZ5        -0.1502
     21 C23        15.8710   20.8140   76.2950 C.2       1 IZ5         0.0439
     22 C4         16.3340   21.4530   77.5030 C.2       1 IZ5        -0.0409
     23 N11        14.9170   19.8300   76.6230 N.pl3     1 IZ5        -0.2584
     24 C25        14.7940   19.8620   78.0270 C.2       1 IZ5         0.1283
     25 N13        15.6420   20.8420   78.5750 N.2       1 IZ5        -0.3505
     26 C24        13.3160   23.4660   76.1530 C.ar      1 IZ5        -0.0618
     27 C26        12.6720   23.2980   74.8440 C.ar      1 IZ5        -0.0281
     28 C7         12.9670   22.5530   77.2500 C.ar      1 IZ5        -0.0392
     29 C8         11.9900   21.4890   77.0280 C.ar      1 IZ5         0.1066
     30 C9         11.3460   21.3230   75.7290 C.ar      1 IZ5        -0.0016
     31 C10        11.6930   22.2290   74.6390 C.ar      1 IZ5         0.1343
     32 C5         16.3100   21.1220   74.8780 C.3       1 IZ5         0.0004
     33 C17        16.6210   15.2970   73.2150 C.ar      1 IZ5        -0.0686
     34 C18        17.6250   15.2020   72.1460 C.ar      1 IZ5        -0.0687
     35 C19        18.5730   16.3030   71.8950 C.ar      1 IZ5        -0.0686
     36 C20        18.5110   17.5100   72.7200 C.ar      1 IZ5        -0.0603
     37 C27        17.5020   17.6050   73.7860 C.ar      1 IZ5        -0.0429
     38 C6         16.5590   16.5040   74.0410 C.ar      1 IZ5        -0.0603
     39 F1         11.0750   22.0470   73.3370 F         1 IZ5        -0.1833
     40 C30        16.4210   19.8630   74.0140 C.3       1 IZ5        -0.0327
     41 C29        17.4120   18.8570   74.6060 C.3       1 IZ5        -0.0174
     42 H1         19.0219   17.0467   82.8741 H         1 IZ5         0.0735
     43 H2         20.5904   18.1780   81.6183 H         1 IZ5         0.0544
     44 H3         20.5831   16.9528   80.3046 H         1 IZ5         0.0544
     45 H4         21.9238   14.6664   83.1609 H         1 IZ5         0.2143
     46 H5         19.0914   16.5526   79.1166 H         1 IZ5         0.0540
     47 H6         17.0191   16.9797   77.6688 H         1 IZ5         0.0540
     48 H7         14.5625   17.4426   81.3205 H         1 IZ5         0.0540
     49 H8         16.6228   17.0409   82.7598 H         1 IZ5         0.0540
     50 H9         13.6266   16.7546   78.9049 H         1 IZ5         0.0458
     51 H10        14.6382   17.2803   77.5168 H         1 IZ5         0.0458
     52 H11        13.7994   19.1468   79.7942 H         1 IZ5         0.0756
     53 H12        12.2096   18.1723   77.5724 H         1 IZ5         0.1709
     54 H13        17.0723   22.2503   77.5754 H         1 IZ5         0.0284
     55 H14        14.4126   19.2133   75.9702 H         1 IZ5         0.2359
     56 H15        14.0419   24.2560   76.3084 H         1 IZ5         0.0608
     57 H16        12.9219   23.9666   74.0282 H         1 IZ5         0.0604
     58 H17        13.4331   22.6683   78.2218 H         1 IZ5         0.0602
     59 H18        10.6176   20.5350   75.5754 H         1 IZ5         0.0623
     60 H19        17.2929   21.6147   74.9120 H         1 IZ5         0.0432
     61 H20        15.5752   21.8007   74.4203 H         1 IZ5         0.0432
     62 H21        15.9314   14.4793   73.3906 H         1 IZ5         0.0599
     63 H22        17.6692   14.3091   71.5329 H         1 IZ5         0.0559
     64 H23        19.3106   16.2190   71.1051 H         1 IZ5         0.0599
     65 H24        19.2024   18.3267   72.5471 H         1 IZ5         0.0557
     66 H25        15.8246   16.5863   74.8340 H         1 IZ5         0.0557
     67 H26        16.7617   20.1495   73.0081 H         1 IZ5         0.0308
     68 H27        15.4306   19.3894   73.9447 H         1 IZ5         0.0308
     69 H28        18.4070   19.3238   74.6511 H         1 IZ5         0.0427
     70 H29        17.0846   18.5927   75.6223 H         1 IZ5         0.0427
@<TRIPOS>BOND
     1    1    2 1  
     2    1    5 1  
     3    9    1 1  
     4    2    3 1  
     5    4    3 am 
     6    3    8 2  
     7    5    4 am 
     8    5    6 2  
     9    5    7 2  
    10   10    9 ar 
    11   14    9 ar 
    12   11   10 ar 
    13   12   11 ar 
    14   12   13 ar 
    15   15   12 1  
    16   13   14 ar 
    17   16   15 1  
    18   16   17 1  
    19   24   16 1  
    20   17   18 am 
    21   18   19 2  
    22   18   20 2  
    23   18   29 1  
    24   21   22 2  
    25   21   23 1  
    26   32   21 1  
    27   22   25 1  
    28   23   24 1  
    29   24   25 2  
    30   26   27 ar 
    31   28   26 ar 
    32   31   27 ar 
    33   29   28 ar 
    34   29   30 ar 
    35   30   31 ar 
    36   31   39 1  
    37   40   32 1  
    38   33   34 ar 
    39   38   33 ar 
    40   35   34 ar 
    41   36   35 ar 
    42   37   36 ar 
    43   37   38 ar 
    44   41   37 1  
    45   40   41 1  
    46    1   42 1  
    47    2   43 1  
    48    2   44 1  
    49    4   45 1  
    50   10   46 1  
    51   11   47 1  
    52   13   48 1  
    53   14   49 1  
    54   15   50 1  
    55   15   51 1  
    56   16   52 1  
    57   17   53 1  
    58   22   54 1  
    59   23   55 1  
    60   26   56 1  
    61   27   57 1  
    62   28   58 1  
    63   30   59 1  
    64   32   60 1  
    65   32   61 1  
    66   33   62 1  
    67   34   63 1  
    68   35   64 1  
    69   36   65 1  
    70   38   66 1  
    71   40   67 1  
    72   40   68 1  
    73   41   69 1  
    74   41   70 1  
@<TRIPOS>SUBSTRUCTURE
     1 IZ5         1

