### 
### Created by X-TOOL on Mon Sep 10 21:12:58 2018
### 

@<TRIPOS>MOLECULE
2vgo_ligand
   56    60     1     0     0
SMALL
GAST_HUCK


@<TRIPOS>ATOM
      1 CAK         7.4330    0.4430    2.4390 C.3       1 AD5        -0.0297
      2 CAG         6.2010    1.2800    2.0640 C.3       1 AD5        -0.0509
      3 CAF         5.0300    1.0330    3.0310 C.3       1 AD5        -0.0529
      4 CAH         5.5070    0.4120    4.3540 C.3       1 AD5        -0.0509
      5 CAL         6.8000    1.0790    4.8350 C.3       1 AD5        -0.0297
      6 CBB         7.9550    0.8340    3.8350 C.3       1 AD5         0.0400
      7 N6          8.7770    2.0490    3.7300 N.pl3     1 AD5        -0.3001
      8 C6          9.9290    2.1840    4.4000 C.ar      1 AD5         0.1436
      9 N1         10.8870    1.2450    4.3620 N.ar      1 AD5        -0.2523
     10 C5         10.0780    3.2980    5.1130 C.ar      1 AD5         0.1421
     11 N7          9.2900    4.3510    5.3070 N.pl3     1 AD5        -0.2467
     12 C8          9.9270    5.1930    6.1150 C.2       1 AD5         0.1081
     13 N9         11.1070    4.6580    6.4190 N.2       1 AD5        -0.2918
     14 C4         11.2040    3.4870    5.8020 C.ar      1 AD5         0.0854
     15 N3         12.1770    2.5600    5.7730 N.ar      1 AD5        -0.2866
     16 C2         12.0290    1.4300    5.0480 C.ar      1 AD5         0.1690
     17 N2         13.0270    0.5220    5.0650 N.pl3     1 AD5        -0.2587
     18 CAV        13.2180   -0.4310    4.1230 C.ar      1 AD5         0.0507
     19 CAB        14.5080   -0.9480    4.0140 C.ar      1 AD5        -0.0494
     20 CAD        14.8090   -1.9400    3.0920 C.ar      1 AD5        -0.0531
     21 CAA        12.2140   -0.9380    3.2900 C.ar      1 AD5        -0.0494
     22 CAC        12.5110   -1.9290    2.3510 C.ar      1 AD5        -0.0531
     23 CAW        13.8110   -2.4370    2.2540 C.ar      1 AD5         0.0292
     24 NBC        14.1310   -3.3890    1.3550 N.pl3     1 AD5        -0.3104
     25 CAM        13.4760   -4.7300    1.3930 C.3       1 AD5         0.0481
     26 CAI        14.4290   -5.8380    0.9340 C.3       1 AD5         0.0669
     27 OAU        15.1330   -5.4230   -0.2650 O.3       1 AD5        -0.3759
     28 CAJ        16.0110   -4.3030   -0.0030 C.3       1 AD5         0.0669
     29 CAN        15.1600   -3.0750    0.3180 C.3       1 AD5         0.0481
     30 H1          8.2258    0.6152    1.6962 H         1 AD5         0.0288
     31 H2          7.1583   -0.6221    2.4419 H         1 AD5         0.0288
     32 H3          5.8846    1.0121    1.0451 H         1 AD5         0.0266
     33 H4          6.4709    2.3459    2.0958 H         1 AD5         0.0266
     34 H5          4.3122    0.3491    2.5545 H         1 AD5         0.0265
     35 H6          4.5359    1.9922    3.2451 H         1 AD5         0.0265
     36 H7          5.6904   -0.6620    4.2025 H         1 AD5         0.0266
     37 H8          4.7266    0.5467    5.1174 H         1 AD5         0.0266
     38 H9          7.0774    0.6617    5.8142 H         1 AD5         0.0288
     39 H10         6.6318    2.1617    4.9321 H         1 AD5         0.0288
     40 H11         8.5787    0.0123    4.2167 H         1 AD5         0.0559
     41 H12         8.4577    2.8182    3.1239 H         1 AD5         0.1843
     42 H13         8.3527    4.4898    4.9032 H         1 AD5         0.2351
     43 H14         9.5494    6.1521    6.4664 H         1 AD5         0.1391
     44 H15        13.6913    0.5566    5.8514 H         1 AD5         0.2116
     45 H16        15.2901   -0.5681    4.6613 H         1 AD5         0.0504
     46 H17        15.8187   -2.3284    3.0230 H         1 AD5         0.0489
     47 H18        11.2015   -0.5601    3.3738 H         1 AD5         0.0504
     48 H19        11.7329   -2.3049    1.6965 H         1 AD5         0.0489
     49 H20        12.5983   -4.7172    0.7301 H         1 AD5         0.0532
     50 H21        13.1541   -4.9407    2.4235 H         1 AD5         0.0532
     51 H22        13.8516   -6.7495    0.7201 H         1 AD5         0.0579
     52 H23        15.1582   -6.0445    1.7313 H         1 AD5         0.0579
     53 H24        16.6294   -4.1025   -0.8903 H         1 AD5         0.0579
     54 H25        16.6619   -4.5357    0.8527 H         1 AD5         0.0579
     55 H26        15.8135   -2.2730    0.6918 H         1 AD5         0.0532
     56 H27        14.6545   -2.7386   -0.5993 H         1 AD5         0.0532
@<TRIPOS>BOND
     1    1    2 1  
     2    1    6 1  
     3    2    3 1  
     4    3    4 1  
     5    4    5 1  
     6    5    6 1  
     7    6    7 1  
     8    7    8 1  
     9    8    9 ar 
    10    8   10 ar 
    11    9   16 ar 
    12   10   11 1  
    13   10   14 ar 
    14   11   12 1  
    15   12   13 2  
    16   13   14 1  
    17   14   15 ar 
    18   15   16 ar 
    19   16   17 1  
    20   17   18 1  
    21   18   19 ar 
    22   18   21 ar 
    23   19   20 ar 
    24   20   23 ar 
    25   21   22 ar 
    26   22   23 ar 
    27   23   24 1  
    28   24   25 1  
    29   24   29 1  
    30   25   26 1  
    31   26   27 1  
    32   27   28 1  
    33   28   29 1  
    34    1   30 1  
    35    1   31 1  
    36    2   32 1  
    37    2   33 1  
    38    3   34 1  
    39    3   35 1  
    40    4   36 1  
    41    4   37 1  
    42    5   38 1  
    43    5   39 1  
    44    6   40 1  
    45    7   41 1  
    46   11   42 1  
    47   12   43 1  
    48   17   44 1  
    49   19   45 1  
    50   20   46 1  
    51   21   47 1  
    52   22   48 1  
    53   25   49 1  
    54   25   50 1  
    55   26   51 1  
    56   26   52 1  
    57   28   53 1  
    58   28   54 1  
    59   29   55 1  
    60   29   56 1  
@<TRIPOS>SUBSTRUCTURE
     1 AD5         1

