### 
### Created by X-TOOL on Mon Sep 10 21:12:58 2018
### 

@<TRIPOS>MOLECULE
2vgp_ligand
   27    28     1     0     0
SMALL
GAST_HUCK


@<TRIPOS>ATOM
      1 NAI        12.3400    2.8260    6.2340 N.2       1 AD6        -0.3082
      2 CAH        11.3700    3.7560    6.3430 C.2       1 AD6        -0.0270
      3 CAN        10.2810    3.4710    5.6180 C.2       1 AD6         0.0683
      4 SAL        10.4890    2.0760    4.8150 S.3       1 AD6         0.0204
      5 CAQ        12.0480    1.8060    5.4180 C.2       1 AD6         0.2031
      6 NAK        12.9140    0.7800    5.2240 N.pl3     1 AD6        -0.2325
      7 CAO        12.8580   -0.1470    4.2400 C.ar      1 AD6         0.0736
      8 CAE        11.6990   -0.5010    3.5400 C.ar      1 AD6        -0.0316
      9 CAG        11.7400   -1.4780    2.5370 C.ar      1 AD6        -0.0513
     10 CAD        14.0540   -0.7990    3.9310 C.ar      1 AD6        -0.0316
     11 CAF        14.0960   -1.7810    2.9350 C.ar      1 AD6        -0.0513
     12 CAP        12.9410   -2.1260    2.2250 C.ar      1 AD6         0.0379
     13 CAM        12.9890   -3.1020    1.2160 C.2       1 AD6         0.1961
     14 OAB        13.7630   -4.0620    1.2910 O.2       1 AD6        -0.3901
     15 NAJ        12.1480   -2.8920    0.1780 N.am      1 AD6        -0.2909
     16 CAA        12.1300   -3.8630   -0.9340 C.3       1 AD6         0.0188
     17 BR          8.7360    4.5630    5.5650 Br        1 AD6        -0.0530
     18 H1         11.4629    4.6493    6.9589 H         1 AD6         0.0585
     19 H2         13.6927    0.6984    5.8933 H         1 AD6         0.2240
     20 H3         10.7598   -0.0141    3.7764 H         1 AD6         0.0552
     21 H4         10.8349   -1.7342    1.9983 H         1 AD6         0.0640
     22 H5         14.9594   -0.5415    4.4686 H         1 AD6         0.0552
     23 H6         15.0324   -2.2792    2.7114 H         1 AD6         0.0640
     24 H7         11.5481   -2.0921    0.1639 H         1 AD6         0.1838
     25 H8         11.3957   -3.5433   -1.6880 H         1 AD6         0.0483
     26 H9         11.8524   -4.8556   -0.5497 H         1 AD6         0.0483
     27 H10        13.1284   -3.9135   -1.3929 H         1 AD6         0.0483
@<TRIPOS>BOND
     1    1    2 1  
     2    1    5 2  
     3    2    3 2  
     4    3    4 1  
     5    3   17 1  
     6    4    5 1  
     7    5    6 1  
     8    6    7 1  
     9    7    8 ar 
    10    7   10 ar 
    11    8    9 ar 
    12    9   12 ar 
    13   10   11 ar 
    14   11   12 ar 
    15   12   13 1  
    16   13   14 2  
    17   13   15 am 
    18   15   16 1  
    19    2   18 1  
    20    6   19 1  
    21    8   20 1  
    22    9   21 1  
    23   10   22 1  
    24   11   23 1  
    25   15   24 1  
    26   16   25 1  
    27   16   26 1  
    28   16   27 1  
@<TRIPOS>SUBSTRUCTURE
     1 AD6         1

