### 
### Created by X-TOOL on Mon Sep 10 21:12:57 2018
### 

@<TRIPOS>MOLECULE
2vh0_ligand
   58    61     1     0     0
SMALL
GAST_HUCK


@<TRIPOS>ATOM
      1 CL1        13.8220    7.2750   26.2150 Cl        1 GSI        -0.0541
      2 C1         12.0990    7.5040   26.2290 C.2       1 GSI         0.0969
      3 C2         11.2500    7.0320   27.2940 C.2       1 GSI        -0.0580
      4 C3          9.8870    7.3570   26.9870 C.2       1 GSI        -0.0663
      5 S2         11.2770    8.2770   24.9550 S.3       1 GSI        -0.0265
      6 C4          9.7590    8.0390   25.7290 C.2       1 GSI         0.0287
      7 C5          8.4560    8.4510   25.2120 C.2       1 GSI        -0.0314
      8 C6          8.2340    8.9080   23.9620 C.2       1 GSI         0.0664
      9 S1          6.5700    9.3200   23.6640 S.o2      1 GSI         0.0601
     10 O2          6.5740   10.5810   23.0020 O.2       1 GSI        -0.1518
     11 O1          5.8520    9.0250   24.8490 O.2       1 GSI        -0.1518
     12 N1          6.0100    8.3860   22.4760 N.am      1 GSI        -0.2263
     13 C12         5.9270    6.9520   22.6020 C.3       1 GSI         0.1340
     14 C13         4.5830    6.4590   22.0640 C.3       1 GSI         0.0097
     15 C14         4.9730    5.1140   21.4430 C.3       1 GSI         0.0575
     16 C50         6.9650    6.2580   21.7380 C.2       1 GSI         0.2254
     17 O3          8.1330    6.5980   21.5950 O.2       1 GSI        -0.3838
     18 N2          6.3930    5.2080   21.1390 N.am      1 GSI        -0.2212
     19 C15         7.0570    4.3150   20.3450 C.ar      1 GSI         0.0968
     20 C21         6.9650    2.9290   20.6350 C.ar      1 GSI        -0.0457
     21 C24         7.6610    2.0260   19.8050 C.ar      1 GSI        -0.0440
     22 C27         8.4110    2.4810   18.7050 C.ar      1 GSI         0.0814
     23 C26         8.5050    3.8650   18.4230 C.ar      1 GSI        -0.0064
     24 C22         7.8250    4.7560   19.2610 C.ar      1 GSI         0.1486
     25 F1          7.8870    6.0780   19.0150 F         1 GSI        -0.1951
     26 N4          9.1000    1.5920   17.8680 N.pl3     1 GSI        -0.2126
     27 C9         10.2050    0.8970   18.2840 C.2       1 GSI         0.0398
     28 C7         10.6520    0.1200   17.1880 C.2       1 GSI        -0.0345
     29 N3          9.7910    0.3760   16.1670 N.2       1 GSI        -0.3326
     30 C8          8.8540    1.2630   16.5750 C.2       1 GSI         0.1722
     31 C10         7.7370    1.7940   15.6870 C.3       1 GSI         0.0454
     32 N5          7.1110    0.7450   14.8510 N.4       1 GSI         0.2478
     33 C11         6.4140   -0.2540   15.6790 C.3       1 GSI        -0.0415
     34 C16         6.1700    1.3710   13.9110 C.3       1 GSI        -0.0415
     35 H1         11.5891    6.5118   28.1886 H         1 GSI         0.0442
     36 H2          9.0452    7.1144   27.6338 H         1 GSI         0.0457
     37 H3          7.6020    8.3844   25.8844 H         1 GSI         0.0624
     38 H4          9.0187    9.0090   23.2137 H         1 GSI         0.0767
     39 H5          5.7104    8.8149   21.6238 H         1 GSI         0.1705
     40 H6          6.0530    6.6689   23.6574 H         1 GSI         0.0759
     41 H7          4.1767    7.1471   21.3081 H         1 GSI         0.0333
     42 H8          3.8499    6.3294   22.8738 H         1 GSI         0.0333
     43 H9          4.3964    4.9364   20.5232 H         1 GSI         0.0584
     44 H10         4.7882    4.2964   22.1553 H         1 GSI         0.0584
     45 H11         6.3753    2.5737   21.4724 H         1 GSI         0.0477
     46 H12         7.6174    0.9640   20.0180 H         1 GSI         0.0514
     47 H13         9.0870    4.2244   17.5821 H         1 GSI         0.0532
     48 H14        10.6561    0.9351   19.2745 H         1 GSI         0.0801
     49 H15        11.5119   -0.5479   17.1669 H         1 GSI         0.0413
     50 H16         8.1539    2.5669   15.0246 H         1 GSI         0.1053
     51 H17         6.9620    2.2395   16.3280 H         1 GSI         0.1053
     52 H18         7.8333    0.2771   14.3263 H         1 GSI         0.2047
     53 H19         5.9611   -1.0172   15.0291 H         1 GSI         0.0778
     54 H20         5.6268    0.2414   16.2663 H         1 GSI         0.0778
     55 H21         7.1335   -0.7323   16.3599 H         1 GSI         0.0778
     56 H22         6.7026    2.1141   13.2994 H         1 GSI         0.0778
     57 H23         5.3657    1.8677   14.4735 H         1 GSI         0.0778
     58 H24         5.7376    0.5997   13.2567 H         1 GSI         0.0778
@<TRIPOS>BOND
     1    1    2 1  
     2    2    3 2  
     3    2    5 1  
     4    3    4 1  
     5    4    6 2  
     6    5    6 1  
     7    6    7 1  
     8    7    8 2  
     9    8    9 1  
    10    9   10 2  
    11    9   11 2  
    12    9   12 am 
    13   12   13 1  
    14   13   14 1  
    15   13   16 1  
    16   14   15 1  
    17   15   18 1  
    18   16   17 2  
    19   16   18 am 
    20   18   19 1  
    21   19   20 ar 
    22   19   24 ar 
    23   20   21 ar 
    24   21   22 ar 
    25   22   23 ar 
    26   22   26 1  
    27   23   24 ar 
    28   24   25 1  
    29   26   27 1  
    30   26   30 1  
    31   27   28 2  
    32   28   29 1  
    33   29   30 2  
    34   30   31 1  
    35   31   32 1  
    36   32   33 1  
    37   32   34 1  
    38    3   35 1  
    39    4   36 1  
    40    7   37 1  
    41    8   38 1  
    42   12   39 1  
    43   13   40 1  
    44   14   41 1  
    45   14   42 1  
    46   15   43 1  
    47   15   44 1  
    48   20   45 1  
    49   21   46 1  
    50   23   47 1  
    51   27   48 1  
    52   28   49 1  
    53   31   50 1  
    54   31   51 1  
    55   32   52 1  
    56   33   53 1  
    57   33   54 1  
    58   33   55 1  
    59   34   56 1  
    60   34   57 1  
    61   34   58 1  
@<TRIPOS>SUBSTRUCTURE
     1 GSI         1

