### 
### Created by X-TOOL on Mon Sep 10 21:12:58 2018
### 

@<TRIPOS>MOLECULE
2vh6_ligand
   55    58     1     0     0
SMALL
GAST_HUCK


@<TRIPOS>ATOM
      1 C35         5.3980    1.7590   16.8250 C.3       1 GSV         0.0593
      2 S32         6.5130    1.6950   15.4480 S.o2      1 GSV        -0.0064
      3 O37         6.5460    3.0100   14.9000 O.2       1 GSV        -0.1699
      4 O36         6.1050    0.6180   14.6100 O.2       1 GSV        -0.1699
      5 C29         8.1430    1.1590   15.9910 C.ar      1 GSV         0.0916
      6 C31         8.8370    0.2110   15.2000 C.ar      1 GSV        -0.0388
      7 C34        10.1150   -0.2600   15.5850 C.ar      1 GSV        -0.0622
      8 C33        10.7180    0.2140   16.7690 C.ar      1 GSV        -0.0636
      9 C30        10.0240    1.1540   17.5570 C.ar      1 GSV        -0.0561
     10 C28         8.7400    1.6320   17.1750 C.ar      1 GSV        -0.0037
     11 C27         8.0860    2.6280   18.0810 C.ar      1 GSV        -0.0322
     12 C26         8.1710    4.0080   17.8100 C.ar      1 GSV        -0.0325
     13 C22         7.5330    4.8890   18.6990 C.ar      1 GSV         0.1539
     14 F           7.6030    6.2140   18.4860 F         1 GSV        -0.1931
     15 C24         7.3590    2.1550   19.2120 C.ar      1 GSV        -0.0700
     16 C21         6.7180    3.0380   20.0990 C.ar      1 GSV        -0.0398
     17 C15         6.8110    4.4280   19.8350 C.ar      1 GSV         0.1057
     18 N2          6.1610    5.3220   20.7220 N.am      1 GSV        -0.2159
     19 C50         6.7540    6.4400   21.2260 C.2       1 GSV         0.2282
     20 O3          7.9050    6.8070   21.0640 O.2       1 GSV        -0.3824
     21 C14         4.7860    5.1480   21.1700 C.3       1 GSV         0.0596
     22 C13         4.3920    6.5800   21.5330 C.3       1 GSV         0.0102
     23 C12         5.7190    7.1900   22.0220 C.3       1 GSV         0.1346
     24 N1          5.8070    8.6150   21.7500 N.am      1 GSV        -0.2263
     25 S1          6.3570    9.6930   22.8230 S.o2      1 GSV         0.0601
     26 O2          6.4290   10.8720   22.0080 O.2       1 GSV        -0.1518
     27 O1          5.5530    9.6540   23.9990 O.2       1 GSV        -0.1518
     28 C6          7.9360    9.1700   23.3460 C.2       1 GSV         0.0664
     29 C5          8.0730    8.7070   24.7320 C.2       1 GSV        -0.0314
     30 C4          9.3330    8.2030   25.3280 C.2       1 GSV         0.0287
     31 S2         10.8280    8.4590   24.5420 S.3       1 GSV        -0.0265
     32 C3          9.4020    7.5390   26.5640 C.2       1 GSV        -0.0663
     33 C2         10.7570    7.2180   26.8570 C.2       1 GSV        -0.0580
     34 C1         11.6060    7.6650   25.8140 C.2       1 GSV         0.0969
     35 CL         13.3210    7.4580   25.7710 Cl        1 GSV        -0.0541
     36 H1          5.6875    2.5835   17.4931 H         1 GSV         0.0468
     37 H2          5.4411    0.8081   17.3762 H         1 GSV         0.0468
     38 H3          4.3737    1.9253   16.4600 H         1 GSV         0.0468
     39 H4          8.3833   -0.1588   14.2876 H         1 GSV         0.0630
     40 H5         10.6317   -0.9867   14.9686 H         1 GSV         0.0599
     41 H6         11.6985   -0.1388   17.0676 H         1 GSV         0.0612
     42 H7         10.4772    1.5196   18.4713 H         1 GSV         0.0603
     43 H8          8.7102    4.3773   16.9452 H         1 GSV         0.0572
     44 H9          7.2987    1.0879   19.3929 H         1 GSV         0.0558
     45 H10         6.1699    2.6676   20.9578 H         1 GSV         0.0498
     46 H11         4.7308    4.4834   22.0448 H         1 GSV         0.0589
     47 H12         4.1501    4.7493   20.3659 H         1 GSV         0.0589
     48 H13         3.6339    6.5917   22.3300 H         1 GSV         0.0333
     49 H14         4.0087    7.1196   20.6544 H         1 GSV         0.0333
     50 H15         5.8498    7.0188   23.1007 H         1 GSV         0.0760
     51 H16         5.5124    8.9459   20.8535 H         1 GSV         0.1705
     52 H17         8.7890    9.1863   22.6692 H         1 GSV         0.0767
     53 H18         7.1881    8.7357   25.3661 H         1 GSV         0.0624
     54 H19         8.5495    7.3057   27.2002 H         1 GSV         0.0457
     55 H20        11.0937    6.7022   27.7550 H         1 GSV         0.0442
@<TRIPOS>BOND
     1    1    2 1  
     2    2    3 2  
     3    2    4 2  
     4    2    5 1  
     5    5    6 ar 
     6    5   10 ar 
     7    6    7 ar 
     8    7    8 ar 
     9    8    9 ar 
    10    9   10 ar 
    11   10   11 1  
    12   11   12 ar 
    13   11   15 ar 
    14   12   13 ar 
    15   13   14 1  
    16   13   17 ar 
    17   15   16 ar 
    18   16   17 ar 
    19   17   18 1  
    20   18   19 am 
    21   18   21 1  
    22   19   20 2  
    23   19   23 1  
    24   21   22 1  
    25   22   23 1  
    26   23   24 1  
    27   24   25 am 
    28   25   26 2  
    29   25   27 2  
    30   25   28 1  
    31   28   29 2  
    32   29   30 1  
    33   30   31 1  
    34   30   32 2  
    35   31   34 1  
    36   32   33 1  
    37   33   34 2  
    38   34   35 1  
    39    1   36 1  
    40    1   37 1  
    41    1   38 1  
    42    6   39 1  
    43    7   40 1  
    44    8   41 1  
    45    9   42 1  
    46   12   43 1  
    47   15   44 1  
    48   16   45 1  
    49   21   46 1  
    50   21   47 1  
    51   22   48 1  
    52   22   49 1  
    53   23   50 1  
    54   24   51 1  
    55   28   52 1  
    56   29   53 1  
    57   32   54 1  
    58   33   55 1  
@<TRIPOS>SUBSTRUCTURE
     1 GSV         1

