### 
### Created by X-TOOL on Mon Sep 10 21:12:59 2018
### 

@<TRIPOS>MOLECULE
2vi5_ligand
   43    43     1     0     0
SMALL
GAST_HUCK


@<TRIPOS>ATOM
      1 O2         10.1130   10.0660  -15.1780 O.2       1 Y19        -0.3900
      2 C2         10.0010    8.9590  -15.7480 C.2       1 Y19         0.2445
      3 N3          8.9900    8.7480  -16.6240 N.am      1 Y19        -0.1933
      4 C4          8.8320    7.5730  -17.2710 C.2       1 Y19         0.2546
      5 O4          7.8770    7.4210  -18.0650 O.2       1 Y19        -0.3800
      6 N1         10.9030    7.9910  -15.4820 N.2       1 Y19        -0.2533
      7 C6         10.8500    6.7680  -16.0670 C.2       1 Y19         0.1648
      8 C5          9.7490    6.4350  -17.0130 C.3       1 Y19         0.2243
      9 N13        10.1990    5.7750  -18.2340 N.am      1 Y19        -0.2436
     10 C14         9.7830    4.5470  -18.5710 C.2       1 Y19         0.1809
     11 C15         8.8240    3.8310  -17.6400 C.3       1 Y19         0.0348
     12 C16         7.4430    3.6950  -18.2480 C.3       1 Y19        -0.0482
     13 O23        10.1620    3.9920  -19.5880 O.2       1 Y19        -0.3967
     14 N7         11.7790    5.8320  -15.7370 N.pl3     1 Y19        -0.2753
     15 C8         12.8640    6.1340  -14.8120 C.3       1 Y19         0.0662
     16 C9         12.4450    5.9120  -13.3620 C.3       1 Y19         0.1051
     17 O9         11.6230    6.9950  -12.9160 O.3       1 Y19        -0.3870
     18 C10        13.6870    5.8490  -12.4760 C.3       1 Y19         0.1110
     19 O10        14.5910    6.9060  -12.8280 O.3       1 Y19        -0.3865
     20 C11        14.3880    4.4930  -12.5900 C.3       1 Y19         0.1065
     21 O11        13.5200    3.4550  -12.1140 O.3       1 Y19        -0.3869
     22 C12        15.7070    4.4590  -11.8220 C.3       1 Y19         0.0727
     23 O12        15.4770    4.6080  -10.4170 O.3       1 Y19        -0.3924
     24 H1          8.3388    9.4868  -16.7976 H         1 Y19         0.2256
     25 H2          9.1386    5.6846  -16.4892 H         1 Y19         0.1133
     26 H3         10.8370    6.2536  -18.8373 H         1 Y19         0.1925
     27 H4          8.7454    4.4015  -16.7028 H         1 Y19         0.0500
     28 H5          9.2189    2.8269  -17.4261 H         1 Y19         0.0500
     29 H6          6.7814    3.1718  -17.5419 H         1 Y19         0.0254
     30 H7          7.5091    3.1199  -19.1834 H         1 Y19         0.0254
     31 H8          7.0357    4.6945  -18.4601 H         1 Y19         0.0254
     32 H9         11.7148    4.8902  -16.1491 H         1 Y19         0.1979
     33 H10        13.1604    7.1854  -14.9407 H         1 Y19         0.0566
     34 H11        13.7195    5.4813  -15.0401 H         1 Y19         0.0566
     35 H12        11.8856    4.9681  -13.2840 H         1 Y19         0.0642
     36 H13        10.8465    7.0470  -13.4609 H         1 Y19         0.2100
     37 H14        13.3741    5.9887  -11.4307 H         1 Y19         0.0646
     38 H15        14.1599    7.7437  -12.7056 H         1 Y19         0.2100
     39 H16        14.6058    4.3085  -13.6523 H         1 Y19         0.0643
     40 H17        13.9608    2.6166  -12.1875 H         1 Y19         0.2100
     41 H18        16.3501    5.2800  -12.1719 H         1 Y19         0.0584
     42 H19        16.2076    3.4970  -12.0061 H         1 Y19         0.0584
     43 H20        15.0471    5.4393  -10.2540 H         1 Y19         0.2095
@<TRIPOS>BOND
     1    1    2 2  
     2    2    3 am 
     3    2    6 1  
     4    3    4 am 
     5    4    5 2  
     6    4    8 1  
     7    6    7 2  
     8    7    8 1  
     9    7   14 1  
    10    8    9 1  
    11    9   10 am 
    12   10   11 1  
    13   10   13 2  
    14   11   12 1  
    15   14   15 1  
    16   15   16 1  
    17   16   17 1  
    18   16   18 1  
    19   18   19 1  
    20   18   20 1  
    21   20   21 1  
    22   20   22 1  
    23   22   23 1  
    24    3   24 1  
    25    8   25 1  
    26    9   26 1  
    27   11   27 1  
    28   11   28 1  
    29   12   29 1  
    30   12   30 1  
    31   12   31 1  
    32   14   32 1  
    33   15   33 1  
    34   15   34 1  
    35   16   35 1  
    36   17   36 1  
    37   18   37 1  
    38   19   38 1  
    39   20   39 1  
    40   21   40 1  
    41   22   41 1  
    42   22   42 1  
    43   23   43 1  
@<TRIPOS>SUBSTRUCTURE
     1 Y19         1

