### 
### Created by X-TOOL on Mon Sep 10 21:12:57 2018
### 

@<TRIPOS>MOLECULE
2vie_ligand
   88    90     1     0     0
SMALL
GAST_HUCK


@<TRIPOS>ATOM
      1 C1         30.2790    1.1150   34.4740 C.2       1 VG0         0.1991
      2 N2         29.1200    1.2170   33.7580 N.am      1 VG0        -0.2787
      3 C3         28.8550    2.2250   32.7220 C.3       1 VG0         0.0818
      4 C4         28.0190    3.3310   33.3620 C.3       1 VG0         0.1192
      5 C5         28.1940    1.4800   31.5300 C.3       1 VG0         0.0065
      6 C6         28.7940    4.2260   34.3130 C.3       1 VG0        -0.0042
      7 O7         31.2190    1.8920   34.3140 O.2       1 VG0        -0.3847
      8 C8         30.3540    0.0080   35.4220 C.ar      1 VG0         0.0255
      9 C9         30.9220    0.1570   36.7070 C.ar      1 VG0        -0.0344
     10 C10        30.9930   -0.9330   37.5980 C.ar      1 VG0         0.0624
     11 C11        30.4800   -2.2020   37.1840 C.ar      1 VG0        -0.0210
     12 C12        29.9040   -2.3840   35.9040 C.ar      1 VG0         0.0288
     13 C13        29.8440   -1.2630   35.0180 C.ar      1 VG0        -0.0401
     14 C14        28.8490    0.1540   31.2130 C.ar      1 VG0        -0.0408
     15 C15        30.2530    0.0640   30.9870 C.ar      1 VG0        -0.0603
     16 C16        30.8600   -1.1780   30.7020 C.ar      1 VG0        -0.0686
     17 C17        30.0720   -2.3500   30.6330 C.ar      1 VG0        -0.0687
     18 C18        28.6780   -2.2740   30.8550 C.ar      1 VG0        -0.0686
     19 C19        28.0690   -1.0260   31.1440 C.ar      1 VG0        -0.0603
     20 N20        27.9880    5.3780   34.7240 N.4       1 VG0         0.2328
     21 O21        27.4970    4.1580   32.3360 O.3       1 VG0        -0.3840
     22 N38        29.4120   -3.6240   35.5230 N.pl3     1 VG0        -0.3254
     23 C39        28.7940   -3.9450   34.2270 C.3       1 VG0         0.0206
     24 C40        27.2710   -3.9270   34.3460 C.3       1 VG0        -0.0457
     25 N46        31.5640   -0.7590   38.8520 N.am      1 VG0        -0.2220
     26 C47        32.8600   -0.0840   39.0580 C.3       1 VG0         0.0574
     27 C48        33.2480   -0.4180   40.4940 C.3       1 VG0        -0.0100
     28 C49        31.9410   -0.7980   41.1910 C.3       1 VG0         0.0456
     29 C50        31.0140   -1.1720   40.0330 C.2       1 VG0         0.2058
     30 O57        29.9470   -1.7550   40.1890 O.2       1 VG0        -0.3848
     31 C59        28.6540    6.5500   35.3500 C.3       1 VG0        -0.0174
     32 C61        29.3290    6.0510   36.6520 C.3       1 VG0        -0.0190
     33 C65        27.6200    7.6390   35.7150 C.3       1 VG0        -0.0190
     34 C69        29.7290    7.1100   34.3670 C.3       1 VG0        -0.0074
     35 C70        29.1920    7.6280   33.0190 C.3       1 VG0        -0.0475
     36 C73        30.3070    8.1770   32.1200 C.3       1 VG0        -0.0505
     37 C76        29.8180    8.7140   30.7630 C.3       1 VG0        -0.0467
     38 C79        30.9960    9.3440   30.0130 C.3       1 VG0        -0.0627
     39 C83        28.7040    9.7680   30.9170 C.3       1 VG0        -0.0627
     40 H1         28.3965    0.5550   33.9539 H         1 VG0         0.1851
     41 H2         29.8006    2.6660   32.3736 H         1 VG0         0.0606
     42 H3         27.1927    2.8625   33.9167 H         1 VG0         0.0672
     43 H4         28.2575    2.1220   30.6391 H         1 VG0         0.0449
     44 H5         27.1375    1.2971   31.7757 H         1 VG0         0.0449
     45 H6         29.7033    4.5848   33.8087 H         1 VG0         0.0840
     46 H7         29.0739    3.6463   35.2049 H         1 VG0         0.0840
     47 H8         31.3085    1.1228   37.0119 H         1 VG0         0.0448
     48 H9         30.5335   -3.0432   37.8656 H         1 VG0         0.0426
     49 H10        29.4081   -1.3791   34.0323 H         1 VG0         0.0442
     50 H11        30.8619    0.9596   31.0345 H         1 VG0         0.0557
     51 H12        31.9298   -1.2333   30.5361 H         1 VG0         0.0599
     52 H13        30.5356   -3.3043   30.4105 H         1 VG0         0.0559
     53 H14        28.0728   -3.1719   30.8042 H         1 VG0         0.0599
     54 H15        26.9995   -0.9751   31.3132 H         1 VG0         0.0557
     55 H16        27.3078    5.0389   35.3861 H         1 VG0         0.2020
     56 H17        27.5157    5.7147   33.8996 H         1 VG0         0.2020
     57 H18        27.0046    3.6261   31.7219 H         1 VG0         0.2101
     58 H19        29.4860   -4.3886   36.2091 H         1 VG0         0.1751
     59 H20        29.1210   -4.9453   33.9070 H         1 VG0         0.0508
     60 H21        29.1083   -3.2004   33.4809 H         1 VG0         0.0508
     61 H22        26.8241   -4.1685   33.3703 H         1 VG0         0.0249
     62 H23        26.9398   -2.9273   34.6636 H         1 VG0         0.0249
     63 H24        26.9525   -4.6723   35.0897 H         1 VG0         0.0249
     64 H25        32.7559    1.0032   38.9275 H         1 VG0         0.0587
     65 H26        33.6131   -0.4674   38.3538 H         1 VG0         0.0587
     66 H27        33.7044    0.4556   40.9823 H         1 VG0         0.0314
     67 H28        33.9545   -1.2608   40.5155 H         1 VG0         0.0314
     68 H29        31.5367    0.0527   41.7592 H         1 VG0         0.0508
     69 H30        32.0901   -1.6528   41.8670 H         1 VG0         0.0508
     70 H31        29.8355    6.8921   37.1480 H         1 VG0         0.0287
     71 H32        30.0660    5.2718   36.4076 H         1 VG0         0.0287
     72 H33        28.5649    5.6349   37.3250 H         1 VG0         0.0287
     73 H34        28.1356    8.4944   36.1758 H         1 VG0         0.0287
     74 H35        26.8880    7.2264   36.4249 H         1 VG0         0.0287
     75 H36        27.1004    7.9714   34.8042 H         1 VG0         0.0287
     76 H37        30.4487    6.3048   34.1578 H         1 VG0         0.0323
     77 H38        30.2452    7.9422   34.8680 H         1 VG0         0.0323
     78 H39        28.4661    8.4314   33.2127 H         1 VG0         0.0267
     79 H40        28.6915    6.7998   32.4959 H         1 VG0         0.0267
     80 H41        31.0275    7.3676   31.9310 H         1 VG0         0.0268
     81 H42        30.8086    8.9970   32.6547 H         1 VG0         0.0268
     82 H43        29.4244    7.8714   30.1756 H         1 VG0         0.0295
     83 H44        30.6492    9.7287   29.0426 H         1 VG0         0.0232
     84 H45        31.7748    8.5846   29.8492 H         1 VG0         0.0232
     85 H46        31.4098   10.1711   30.6086 H         1 VG0         0.0232
     86 H47        27.8525    9.3256   31.4548 H         1 VG0         0.0232
     87 H48        28.3754   10.1024   29.9219 H         1 VG0         0.0232
     88 H49        29.0889   10.6282   31.4843 H         1 VG0         0.0232
@<TRIPOS>BOND
     1    1    2 am 
     2    1    7 2  
     3    1    8 1  
     4    2    3 1  
     5    3    4 1  
     6    3    5 1  
     7    4    6 1  
     8    4   21 1  
     9    5   14 1  
    10    6   20 1  
    11    8    9 ar 
    12    8   13 ar 
    13    9   10 ar 
    14   10   11 ar 
    15   10   25 1  
    16   11   12 ar 
    17   12   13 ar 
    18   12   22 1  
    19   14   15 ar 
    20   14   19 ar 
    21   15   16 ar 
    22   16   17 ar 
    23   17   18 ar 
    24   18   19 ar 
    25   20   31 1  
    26   22   23 1  
    27   23   24 1  
    28   25   26 1  
    29   25   29 am 
    30   26   27 1  
    31   27   28 1  
    32   28   29 1  
    33   29   30 2  
    34   31   32 1  
    35   31   33 1  
    36   31   34 1  
    37   34   35 1  
    38   35   36 1  
    39   36   37 1  
    40   37   38 1  
    41   37   39 1  
    42    2   40 1  
    43    3   41 1  
    44    4   42 1  
    45    5   43 1  
    46    5   44 1  
    47    6   45 1  
    48    6   46 1  
    49    9   47 1  
    50   11   48 1  
    51   13   49 1  
    52   15   50 1  
    53   16   51 1  
    54   17   52 1  
    55   18   53 1  
    56   19   54 1  
    57   20   55 1  
    58   20   56 1  
    59   21   57 1  
    60   22   58 1  
    61   23   59 1  
    62   23   60 1  
    63   24   61 1  
    64   24   62 1  
    65   24   63 1  
    66   26   64 1  
    67   26   65 1  
    68   27   66 1  
    69   27   67 1  
    70   28   68 1  
    71   28   69 1  
    72   32   70 1  
    73   32   71 1  
    74   32   72 1  
    75   33   73 1  
    76   33   74 1  
    77   33   75 1  
    78   34   76 1  
    79   34   77 1  
    80   35   78 1  
    81   35   79 1  
    82   36   80 1  
    83   36   81 1  
    84   37   82 1  
    85   38   83 1  
    86   38   84 1  
    87   38   85 1  
    88   39   86 1  
    89   39   87 1  
    90   39   88 1  
@<TRIPOS>SUBSTRUCTURE
     1 VG0         1

