### 
### Created by X-TOOL on Mon Sep 10 21:12:57 2018
### 

@<TRIPOS>MOLECULE
2vin_ligand
   31    31     1     0     0
SMALL
GAST_HUCK


@<TRIPOS>ATOM
      1 C1         31.5240    3.8010   28.2230 C.3       1 505        -0.0192
      2 C2         32.6170    4.7730   27.8010 C.3       1 505         0.0006
      3 N3         33.0070    4.3980   26.4000 N.4       1 505         0.2224
      4 C4         32.1320    6.2200   27.8620 C.3       1 505         0.1092
      5 O5         30.9340    6.3530   27.0450 O.3       1 505        -0.3203
      6 C6         30.0970    7.4110   27.3030 C.ar      1 505         0.0937
      7 C7         28.9130    7.1980   28.0380 C.ar      1 505        -0.0232
      8 C8         28.5620    5.8270   28.5530 C.3       1 505        -0.0348
      9 C9         28.0790    8.2770   28.2890 C.ar      1 505        -0.0759
     10 C10        28.3930    9.5360   27.8170 C.ar      1 505        -0.0862
     11 C11        29.5500    9.7460   27.0920 C.ar      1 505        -0.0759
     12 C12        30.4180    8.6960   26.8250 C.ar      1 505        -0.0232
     13 C13        31.6810    8.9340   26.0370 C.3       1 505        -0.0348
     14 H1         31.2017    4.0345   29.2485 H         1 505         0.0285
     15 H2         31.9133    2.7729   28.1862 H         1 505         0.0285
     16 H3         30.6672    3.8933   27.5394 H         1 505         0.0285
     17 H4         33.4845    4.6635   28.4685 H         1 505         0.0873
     18 H5         33.7327    5.0180   26.0759 H         1 505         0.1998
     19 H6         32.2041    4.4756   25.7955 H         1 505         0.1998
     20 H7         33.3460    3.4488   26.3882 H         1 505         0.1998
     21 H8         32.9165    6.8885   27.4778 H         1 505         0.0664
     22 H9         31.8998    6.4876   28.9034 H         1 505         0.0664
     23 H10        27.6068    5.8730   29.0965 H         1 505         0.0366
     24 H11        29.3535    5.4765   29.2317 H         1 505         0.0366
     25 H12        28.4693    5.1301   27.7070 H         1 505         0.0366
     26 H13        27.1706    8.1305   28.8620 H         1 505         0.0471
     27 H14        27.7259   10.3667   28.0170 H         1 505         0.0489
     28 H15        29.7824   10.7403   26.7281 H         1 505         0.0471
     29 H16        32.2311    7.9873   25.9314 H         1 505         0.0366
     30 H17        32.3097    9.6665   26.5644 H         1 505         0.0366
     31 H18        31.4238    9.3217   25.0403 H         1 505         0.0366
@<TRIPOS>BOND
     1    1    2 1  
     2    2    3 1  
     3    2    4 1  
     4    4    5 1  
     5    5    6 1  
     6    6    7 ar 
     7    6   12 ar 
     8    7    8 1  
     9    7    9 ar 
    10    9   10 ar 
    11   10   11 ar 
    12   11   12 ar 
    13   12   13 1  
    14    1   14 1  
    15    1   15 1  
    16    1   16 1  
    17    2   17 1  
    18    3   18 1  
    19    3   19 1  
    20    3   20 1  
    21    4   21 1  
    22    4   22 1  
    23    8   23 1  
    24    8   24 1  
    25    8   25 1  
    26    9   26 1  
    27   10   27 1  
    28   11   28 1  
    29   13   29 1  
    30   13   30 1  
    31   13   31 1  
@<TRIPOS>SUBSTRUCTURE
     1 505         1

