### 
### Created by X-TOOL on Mon Sep 10 21:12:57 2018
### 

@<TRIPOS>MOLECULE
2vio_ligand
   24    24     1     0     0
SMALL
GAST_HUCK


@<TRIPOS>ATOM
      1 N1         32.9440    4.6260   26.4540 N.4       1 L1O         0.2205
      2 C2         32.2610    4.7900   27.7650 C.3       1 L1O        -0.0067
      3 C3         31.7220    6.1920   27.9750 C.3       1 L1O         0.1112
      4 O4         30.5740    6.3930   27.1050 O.3       1 L1O        -0.3089
      5 C5         29.6610    7.3400   27.4920 C.ar      1 L1O         0.1234
      6 C6         29.6120    8.6200   26.9170 C.ar      1 L1O         0.0724
      7 CL7        30.6850    9.0490   25.6210 Cl        1 L1O        -0.0780
      8 C8         28.6780    9.5430   27.3700 C.ar      1 L1O        -0.0420
      9 C9         27.8040    9.2200   28.4030 C.ar      1 L1O         0.0002
     10 C10        27.8720    7.9570   28.9810 C.ar      1 L1O        -0.0420
     11 C11        28.7870    7.0180   28.5270 C.ar      1 L1O         0.0724
     12 CL12       28.8440    5.4450   29.2570 Cl        1 L1O        -0.0780
     13 C13        26.8180   10.2330   28.9010 C.2       1 L1O         0.0558
     14 O14        26.3070   10.1600   30.0020 O.co2     1 L1O        -0.5636
     15 O15        26.5880   11.2220   28.0750 O.co2     1 L1O        -0.5636
     16 H1         33.2813    3.6801   26.3669 H         1 L1O         0.1995
     17 H2         33.7205    5.2662   26.3972 H         1 L1O         0.1995
     18 H3         32.2931    4.8204   25.7093 H         1 L1O         0.1995
     19 H4         32.9803    4.5662   28.5666 H         1 L1O         0.0840
     20 H5         31.4226    4.0798   27.8159 H         1 L1O         0.0840
     21 H6         32.5027    6.9276   27.7313 H         1 L1O         0.0670
     22 H7         31.4158    6.3161   29.0242 H         1 L1O         0.0670
     23 H8         28.6297   10.5252   26.9139 H         1 L1O         0.0631
     24 H9         27.2028    7.7033   29.7952 H         1 L1O         0.0631
@<TRIPOS>BOND
     1    1    2 1  
     2    2    3 1  
     3    3    4 1  
     4    4    5 1  
     5    5    6 ar 
     6    5   11 ar 
     7    6    7 1  
     8    6    8 ar 
     9    8    9 ar 
    10    9   10 ar 
    11    9   13 1  
    12   10   11 ar 
    13   11   12 1  
    14   13   14 ar 
    15   13   15 ar 
    16    1   16 1  
    17    1   17 1  
    18    1   18 1  
    19    2   19 1  
    20    2   20 1  
    21    3   21 1  
    22    3   22 1  
    23    8   23 1  
    24   10   24 1  
@<TRIPOS>SUBSTRUCTURE
     1 L1O         1

