### 
### Created by X-TOOL on Mon Sep 10 21:12:57 2018
### 

@<TRIPOS>MOLECULE
2vip_ligand
   46    47     1     0     0
SMALL
GAST_HUCK


@<TRIPOS>ATOM
      1 C1         21.7770   10.7610   29.7930 C.3       1 L1R        -0.0346
      2 C2         21.6240   12.1830   29.2780 C.3       1 L1R         0.0753
      3 C3         20.2380   12.6980   29.6220 C.3       1 L1R        -0.0346
      4 O4         22.5180   13.0810   29.9860 O.3       1 L1R        -0.3193
      5 C5         23.7870   12.6660   30.3040 C.ar      1 L1R         0.0779
      6 C6         24.2050   13.3960   31.4110 C.ar      1 L1R        -0.0484
      7 C7         25.4480   13.1740   31.9670 C.ar      1 L1R        -0.0837
      8 C8         26.3030   12.2460   31.4060 C.ar      1 L1R        -0.0522
      9 C9         25.9140   11.5150   30.2910 C.ar      1 L1R         0.0566
     10 N10        26.8030   10.5670   29.7310 N.am      1 L1R        -0.2371
     11 C11        27.0210   10.3670   28.4210 C.2       1 L1R         0.2243
     12 O12        26.5120   11.0390   27.5520 O.2       1 L1R        -0.3781
     13 C13        27.9750    9.2760   28.0520 C.ar      1 L1R         0.0459
     14 C14        28.7900    9.5230   26.9540 C.ar      1 L1R        -0.0357
     15 C15        29.7070    8.5740   26.5430 C.ar      1 L1R         0.0747
     16 CL1        30.7190    8.8960   25.1680 Cl        1 L1R        -0.0774
     17 C17        29.8050    7.3560   27.2410 C.ar      1 L1R         0.1256
     18 O18        30.6980    6.3760   26.9120 O.3       1 L1R        -0.3075
     19 C19        31.8140    6.1920   27.8050 C.3       1 L1R         0.1117
     20 C20        32.3920    4.8070   27.5900 C.3       1 L1R        -0.0066
     21 N21        33.1240    4.6980   26.2990 N.4       1 L1R         0.2205
     22 C22        28.9960    7.1170   28.3470 C.ar      1 L1R         0.0747
     23 CL2        29.1410    5.6270   29.2200 Cl        1 L1R        -0.0774
     24 C24        28.0810    8.0790   28.7570 C.ar      1 L1R        -0.0357
     25 C25        24.6570   11.7380   29.7380 C.ar      1 L1R        -0.0140
     26 H1         21.0924   10.0969   29.2450 H         1 L1R         0.0258
     27 H2         21.5358   10.7316   30.8658 H         1 L1R         0.0258
     28 H3         22.8134   10.4254   29.6408 H         1 L1R         0.0258
     29 H4         21.8064   12.2141   28.1937 H         1 L1R         0.0644
     30 H5         20.1264   13.7270   29.2497 H         1 L1R         0.0258
     31 H6         20.1030   12.6864   30.7136 H         1 L1R         0.0258
     32 H7         19.4803   12.0538   29.1519 H         1 L1R         0.0258
     33 H8         23.5495   14.1450   31.8404 H         1 L1R         0.0418
     34 H9         25.7541   13.7293   32.8462 H         1 L1R         0.0551
     35 H10        27.2841   12.0871   31.8387 H         1 L1R         0.0414
     36 H11        27.3161    9.9933   30.3694 H         1 L1R         0.2247
     37 H12        28.7064   10.4619   26.4187 H         1 L1R         0.0650
     38 H13        31.4742    6.2926   28.8463 H         1 L1R         0.0671
     39 H14        32.5834    6.9497   27.5955 H         1 L1R         0.0671
     40 H15        31.5704    4.0756   27.5943 H         1 L1R         0.0840
     41 H16        33.0877    4.5819   28.4118 H         1 L1R         0.0840
     42 H17        33.4900    3.7642   26.1981 H         1 L1R         0.1995
     43 H18        33.8841    5.3599   26.2868 H         1 L1R         0.1995
     44 H19        32.4938    4.8960   25.5376 H         1 L1R         0.1995
     45 H20        27.4524    7.8989   29.6216 H         1 L1R         0.0650
     46 H21        24.3520   11.1838   28.8578 H         1 L1R         0.0419
@<TRIPOS>BOND
     1    1    2 1  
     2    2    3 1  
     3    2    4 1  
     4    4    5 1  
     5    5    6 ar 
     6    5   25 ar 
     7    6    7 ar 
     8    7    8 ar 
     9    8    9 ar 
    10    9   10 1  
    11    9   25 ar 
    12   10   11 am 
    13   11   12 2  
    14   11   13 1  
    15   13   14 ar 
    16   13   24 ar 
    17   14   15 ar 
    18   15   16 1  
    19   15   17 ar 
    20   17   18 1  
    21   17   22 ar 
    22   18   19 1  
    23   19   20 1  
    24   20   21 1  
    25   22   23 1  
    26   22   24 ar 
    27    1   26 1  
    28    1   27 1  
    29    1   28 1  
    30    2   29 1  
    31    3   30 1  
    32    3   31 1  
    33    3   32 1  
    34    6   33 1  
    35    7   34 1  
    36    8   35 1  
    37   10   36 1  
    38   14   37 1  
    39   19   38 1  
    40   19   39 1  
    41   20   40 1  
    42   20   41 1  
    43   21   42 1  
    44   21   43 1  
    45   21   44 1  
    46   24   45 1  
    47   25   46 1  
@<TRIPOS>SUBSTRUCTURE
     1 L1R         1

