### 
### Created by X-TOOL on Mon Sep 10 21:12:57 2018
### 

@<TRIPOS>MOLECULE
2viq_ligand
   56    57     1     0     0
SMALL
GAST_HUCK


@<TRIPOS>ATOM
      1 C3         28.2120   13.5920   32.1640 C.3       1 D55         0.0621
      2 C2         29.4890   13.2290   32.8760 C.3       1 D55        -0.0380
      3 C5         21.6030   11.6100   29.5870 C.3       1 D55         0.0649
      4 C6         20.0960   11.6150   29.6850 C.3       1 D55        -0.0375
      5 C9         25.2580   13.4490   32.1480 C.ar      1 D55        -0.0542
      6 C8         23.9380   13.5030   31.7460 C.ar      1 D55        -0.0572
      7 C7         23.4550   12.6240   30.7840 C.ar      1 D55         0.0664
      8 C31        24.3260   11.6990   30.2170 C.ar      1 D55        -0.0209
      9 C12        25.6550   11.6270   30.6150 C.ar      1 D55         0.0875
     10 N13        26.5450   10.6840   30.0530 N.am      1 D55        -0.2396
     11 C14        26.9450   10.6390   28.7700 C.2       1 D55         0.2183
     12 O15        26.5510   11.4340   27.9530 O.2       1 D55        -0.3796
     13 C16        27.8950    9.5370   28.3950 C.ar      1 D55         0.0308
     14 C17        29.0130    9.7940   27.6080 C.ar      1 D55        -0.0554
     15 C18        29.8980    8.7830   27.2490 C.ar      1 D55        -0.0170
     16 C19        31.1010    9.0880   26.3950 C.3       1 D55        -0.0336
     17 C20        29.6430    7.4730   27.6970 C.ar      1 D55         0.0994
     18 O21        30.4700    6.4250   27.3710 O.3       1 D55        -0.3168
     19 C22        31.6520    6.2260   28.1760 C.3       1 D55         0.1079
     20 C23        32.1140    4.7920   27.9960 C.3       1 D55        -0.0072
     21 N24        32.8370    4.5820   26.7140 N.4       1 D55         0.2204
     22 C28        28.5140    7.2000   28.4890 C.ar      1 D55        -0.0170
     23 C29        28.2420    5.7980   28.9690 C.3       1 D55        -0.0336
     24 O3         22.1350   12.6920   30.4070 O.3       1 D55        -0.3292
     25 C30        27.6590    8.2390   28.8250 C.ar      1 D55        -0.0554
     26 O8         27.4570   12.3870   31.9140 O.3       1 D55        -0.3315
     27 C11        26.1280   12.5140   31.5980 C.ar      1 D55         0.1012
     28 H1         28.4487   14.0841   31.2091 H         1 D55         0.0601
     29 H2         27.6205   14.2747   32.7917 H         1 D55         0.0601
     30 H3         30.0720   14.1412   33.0712 H         1 D55         0.0255
     31 H4         30.0779   12.5452   32.2471 H         1 D55         0.0255
     32 H5         29.2497   12.7357   33.8296 H         1 D55         0.0255
     33 H6         21.9051   11.7581   28.5397 H         1 D55         0.0607
     34 H7         21.9930   10.6471   29.9486 H         1 D55         0.0607
     35 H8         19.6858   10.8012   29.0689 H         1 D55         0.0255
     36 H9         19.7083   12.5791   29.3243 H         1 D55         0.0255
     37 H10        19.7962   11.4682   30.7331 H         1 D55         0.0255
     38 H11        25.6193   14.1419   32.8993 H         1 D55         0.0470
     39 H12        23.2725   14.2377   32.1848 H         1 D55         0.0388
     40 H13        23.9615   11.0232   29.4519 H         1 D55         0.0393
     41 H14        26.9116    9.9848   30.6669 H         1 D55         0.2216
     42 H15        29.1987   10.8059   27.2666 H         1 D55         0.0523
     43 H16        31.1172   10.1612   26.1543 H         1 D55         0.0366
     44 H17        31.0474    8.5043   25.4642 H         1 D55         0.0366
     45 H18        32.0168    8.8213   26.9429 H         1 D55         0.0366
     46 H19        31.4168    6.4110   29.2345 H         1 D55         0.0664
     47 H20        32.4445    6.9159   27.8504 H         1 D55         0.0664
     48 H21        31.2336    4.1328   28.0162 H         1 D55         0.0840
     49 H22        32.7864    4.5314   28.8266 H         1 D55         0.0840
     50 H23        33.1216    3.6176   26.6429 H         1 D55         0.1995
     51 H24        33.6512    5.1755   26.6863 H         1 D55         0.1995
     52 H25        32.2283    4.8103   25.9436 H         1 D55         0.1995
     53 H26        27.3204    5.7884   29.5694 H         1 D55         0.0366
     54 H27        29.0847    5.4514   29.5853 H         1 D55         0.0366
     55 H28        28.1223    5.1306   28.1028 H         1 D55         0.0366
     56 H29        26.7880    8.0327   29.4364 H         1 D55         0.0523
@<TRIPOS>BOND
     1    1    2 1  
     2   26    1 1  
     3    3    4 1  
     4   24    3 1  
     5    5    6 ar 
     6   27    5 ar 
     7    6    7 ar 
     8    8    7 ar 
     9    7   24 1  
    10    9    8 ar 
    11    9   10 1  
    12   27    9 ar 
    13   10   11 am 
    14   11   12 2  
    15   11   13 1  
    16   13   14 ar 
    17   13   25 ar 
    18   14   15 ar 
    19   15   16 1  
    20   15   17 ar 
    21   17   18 1  
    22   22   17 ar 
    23   18   19 1  
    24   19   20 1  
    25   20   21 1  
    26   22   23 1  
    27   25   22 ar 
    28   26   27 1  
    29    1   28 1  
    30    1   29 1  
    31    2   30 1  
    32    2   31 1  
    33    2   32 1  
    34    3   33 1  
    35    3   34 1  
    36    4   35 1  
    37    4   36 1  
    38    4   37 1  
    39    5   38 1  
    40    6   39 1  
    41    8   40 1  
    42   10   41 1  
    43   14   42 1  
    44   16   43 1  
    45   16   44 1  
    46   16   45 1  
    47   19   46 1  
    48   19   47 1  
    49   20   48 1  
    50   20   49 1  
    51   21   50 1  
    52   21   51 1  
    53   21   52 1  
    54   23   53 1  
    55   23   54 1  
    56   23   55 1  
    57   25   56 1  
@<TRIPOS>SUBSTRUCTURE
     1 D55         1

