### 
### Created by X-TOOL on Mon Sep 10 21:12:57 2018
### 

@<TRIPOS>MOLECULE
2viv_ligand
   57    59     1     0     0
SMALL
GAST_HUCK


@<TRIPOS>ATOM
      1 N1         22.9540   13.6740   28.9440 N.pl3     1 VG2        -0.3119
      2 C2         23.6010   14.2240   27.7480 C.3       1 VG2         0.0264
      3 C3         22.5750   14.5100   26.6650 C.3       1 VG2        -0.0332
      4 C4         21.5050   15.4620   27.1710 C.3       1 VG2        -0.0495
      5 C5         20.9080   14.9570   28.4730 C.3       1 VG2        -0.0332
      6 C6         21.9980   14.6470   29.4870 C.3       1 VG2         0.0264
      7 C7         23.8630   13.1370   29.8630 C.ar      1 VG2         0.0263
      8 C8         23.8760   13.5680   31.1820 C.ar      1 VG2        -0.0458
      9 C9         24.7920   13.0350   32.0740 C.ar      1 VG2         0.0162
     10 CL         24.8050   13.5740   33.7120 Cl        1 VG2        -0.0780
     11 C11        25.7120   12.0810   31.6680 C.ar      1 VG2        -0.0406
     12 C12        25.7010   11.6410   30.3570 C.ar      1 VG2         0.0540
     13 N13        26.6200   10.6660   29.9140 N.am      1 VG2        -0.2379
     14 C14        27.1440   10.6310   28.6830 C.2       1 VG2         0.2209
     15 O15        26.8720   11.4450   27.8340 O.2       1 VG2        -0.3782
     16 C16        28.0640    9.4980   28.3750 C.ar      1 VG2         0.0314
     17 C17        27.8230    8.2310   28.8890 C.ar      1 VG2        -0.0553
     18 C18        28.6480    7.1650   28.5730 C.ar      1 VG2        -0.0170
     19 C19        28.3650    5.7890   29.1170 C.3       1 VG2        -0.0336
     20 C20        29.7420    7.3850   27.7470 C.ar      1 VG2         0.0995
     21 O21        30.5530    6.3150   27.4810 O.3       1 VG2        -0.3168
     22 C22        31.7010    6.1290   28.3510 C.3       1 VG2         0.1080
     23 C23        32.2710    4.7470   28.1020 C.3       1 VG2        -0.0072
     24 N24        32.9250    4.6830   26.7690 N.4       1 VG2         0.2204
     25 C28        30.0170    8.6640   27.2330 C.ar      1 VG2        -0.0170
     26 C29        31.2150    8.9030   26.3510 C.3       1 VG2        -0.0336
     27 C30        29.1610    9.7070   27.5510 C.ar      1 VG2        -0.0553
     28 C31        24.7850   12.1780   29.4640 C.ar      1 VG2        -0.0253
     29 H1         24.3341   13.4974   27.3678 H         1 VG2         0.0513
     30 H2         24.1155   15.1592   28.0137 H         1 VG2         0.0513
     31 H3         22.1014   13.5656   26.3589 H         1 VG2         0.0284
     32 H4         23.0810   14.9637   25.8001 H         1 VG2         0.0284
     33 H5         20.7086   15.5438   26.4166 H         1 VG2         0.0267
     34 H6         21.9534   16.4522   27.3397 H         1 VG2         0.0267
     35 H7         20.3313   14.0418   28.2735 H         1 VG2         0.0284
     36 H8         20.2410   15.7280   28.8861 H         1 VG2         0.0284
     37 H9         22.5317   15.5755   29.7378 H         1 VG2         0.0513
     38 H10        21.5376   14.2317   30.3956 H         1 VG2         0.0513
     39 H11        23.1702   14.3208   31.5139 H         1 VG2         0.0398
     40 H12        26.4339   11.6833   32.3721 H         1 VG2         0.0403
     41 H13        26.8974    9.9559   30.5612 H         1 VG2         0.2246
     42 H14        26.9763    8.0741   29.5475 H         1 VG2         0.0523
     43 H15        27.4624    5.8215   29.7449 H         1 VG2         0.0366
     44 H16        29.2198    5.4505   29.7210 H         1 VG2         0.0366
     45 H17        28.2061    5.0903   28.2824 H         1 VG2         0.0366
     46 H18        31.3890    6.2183   29.4020 H         1 VG2         0.0664
     47 H19        32.4629    6.8906   28.1287 H         1 VG2         0.0664
     48 H20        31.4573    4.0079   28.1412 H         1 VG2         0.0840
     49 H21        33.0134    4.5166   28.8803 H         1 VG2         0.0840
     50 H22        33.2974    3.7580   26.6215 H         1 VG2         0.1995
     51 H23        33.6736    5.3568   26.7293 H         1 VG2         0.1995
     52 H24        32.2476    4.8907   26.0520 H         1 VG2         0.1995
     53 H25        31.2490    9.9627   26.0580 H         1 VG2         0.0366
     54 H26        31.1383    8.2759   25.4505 H         1 VG2         0.0366
     55 H27        32.1323    8.6450   26.9005 H         1 VG2         0.0366
     56 H28        29.3506   10.6968   27.1516 H         1 VG2         0.0523
     57 H29        24.7890   11.8421   28.4334 H         1 VG2         0.0393
@<TRIPOS>BOND
     1    1    2 1  
     2    1    6 1  
     3    1    7 1  
     4    2    3 1  
     5    3    4 1  
     6    4    5 1  
     7    5    6 1  
     8    7    8 ar 
     9    7   28 ar 
    10    8    9 ar 
    11    9   10 1  
    12    9   11 ar 
    13   11   12 ar 
    14   12   13 1  
    15   12   28 ar 
    16   13   14 am 
    17   14   15 2  
    18   14   16 1  
    19   16   17 ar 
    20   16   27 ar 
    21   17   18 ar 
    22   18   19 1  
    23   18   20 ar 
    24   20   21 1  
    25   20   25 ar 
    26   21   22 1  
    27   22   23 1  
    28   23   24 1  
    29   25   26 1  
    30   25   27 ar 
    31    2   29 1  
    32    2   30 1  
    33    3   31 1  
    34    3   32 1  
    35    4   33 1  
    36    4   34 1  
    37    5   35 1  
    38    5   36 1  
    39    6   37 1  
    40    6   38 1  
    41    8   39 1  
    42   11   40 1  
    43   13   41 1  
    44   17   42 1  
    45   19   43 1  
    46   19   44 1  
    47   19   45 1  
    48   22   46 1  
    49   22   47 1  
    50   23   48 1  
    51   23   49 1  
    52   24   50 1  
    53   24   51 1  
    54   24   52 1  
    55   26   53 1  
    56   26   54 1  
    57   26   55 1  
    58   27   56 1  
    59   28   57 1  
@<TRIPOS>SUBSTRUCTURE
     1 VG2         1

