### 
### Created by X-TOOL on Mon Sep 10 21:12:57 2018
### 

@<TRIPOS>MOLECULE
2viw_ligand
   64    66     1     0     0
SMALL
GAST_HUCK


@<TRIPOS>ATOM
      1 N1         22.3980   12.5370   29.2640 N.pl3     1 D56        -0.3175
      2 C2         21.6380   13.7920   29.2710 C.3       1 D56         0.0245
      3 C3         20.5380   13.7550   28.2210 C.3       1 D56        -0.0336
      4 C4         19.6090   12.5740   28.4470 C.3       1 D56        -0.0495
      5 C5         20.3980   11.2830   28.5750 C.3       1 D56        -0.0336
      6 C6         21.5070   11.4220   29.6070 C.3       1 D56         0.0245
      7 C7         23.6920   12.4940   29.8640 C.ar      1 D56         0.0155
      8 C8         23.9320   13.1210   31.0800 C.ar      1 D56        -0.0544
      9 C9         25.1860   13.0570   31.6720 C.ar      1 D56         0.0444
     10 CL         25.4520   13.8390   33.1940 Cl        1 D56        -0.0867
     11 C11        26.2190   12.3390   31.0560 C.ar      1 D56         0.1134
     12 C12        25.9880   11.7180   29.8320 C.ar      1 D56         0.0855
     13 N13        27.0480   11.0010   29.2510 N.am      1 D56        -0.2400
     14 C14        27.2980   10.8090   27.9530 C.2       1 D56         0.2183
     15 O15        26.7970   11.4760   27.0800 O.2       1 D56        -0.3796
     16 C16        28.2220    9.6830   27.6380 C.ar      1 D56         0.0308
     17 C17        27.9790    8.4350   28.2040 C.ar      1 D56        -0.0554
     18 C18        28.7950    7.3490   27.9200 C.ar      1 D56        -0.0170
     19 C10        29.6670   13.2840   31.9400 C.3       1 D56        -0.0380
     20 C19        28.5230    6.0020   28.5350 C.3       1 D56        -0.0336
     21 C20        29.8760    7.5340   27.0490 C.ar      1 D56         0.0994
     22 O21        30.7020    6.4720   26.7840 O.3       1 D56        -0.3168
     23 C22        31.6910    6.1440   27.7720 C.3       1 D56         0.1079
     24 C23        31.8350    4.6350   27.8070 C.3       1 D56        -0.0072
     25 N24        33.1180    4.2180   27.1750 N.4       1 D56         0.2204
     26 C28        30.1380    8.7930   26.4730 C.ar      1 D56        -0.0170
     27 C29        31.3080    8.9850   25.5460 C.3       1 D56        -0.0336
     28 C30        29.2980    9.8570   26.7760 C.ar      1 D56        -0.0554
     29 C31        24.7260   11.7880   29.2590 C.ar      1 D56        -0.0318
     30 O12        27.4860   12.2800   31.5860 O.3       1 D56        -0.3318
     31 C13        28.4710   13.2160   31.0450 C.3       1 D56         0.0620
     32 H1         22.3184   14.6284   29.0530 H         1 D56         0.0509
     33 H2         21.1862   13.9360   30.2635 H         1 D56         0.0509
     34 H3         20.9949   13.6676   27.2242 H         1 D56         0.0284
     35 H4         19.9557   14.6865   28.2770 H         1 D56         0.0284
     36 H5         18.9177   12.4910   27.5954 H         1 D56         0.0266
     37 H6         19.0348   12.7386   29.3707 H         1 D56         0.0266
     38 H7         20.8429   11.0351   27.6000 H         1 D56         0.0284
     39 H8         19.7184   10.4751   28.8839 H         1 D56         0.0284
     40 H9         21.0599   11.6077   30.5947 H         1 D56         0.0509
     41 H10        22.0903   10.4899   29.6379 H         1 D56         0.0509
     42 H11        23.1332   13.6650   31.5709 H         1 D56         0.0367
     43 H12        27.6952   10.5828   29.8883 H         1 D56         0.2215
     44 H13        27.1389    8.3092   28.8774 H         1 D56         0.0523
     45 H14        30.3985   13.9908   31.5213 H         1 D56         0.0255
     46 H15        30.1240   12.2865   32.0178 H         1 D56         0.0255
     47 H16        29.3583   13.6248   32.9393 H         1 D56         0.0255
     48 H17        27.6366    6.0671   29.1832 H         1 D56         0.0366
     49 H18        29.3920    5.6895   29.1326 H         1 D56         0.0366
     50 H19        28.3415    5.2652   27.7387 H         1 D56         0.0366
     51 H20        31.3701    6.5114   28.7579 H         1 D56         0.0664
     52 H21        32.6533    6.6048   27.5044 H         1 D56         0.0664
     53 H22        30.9970    4.1787   27.2598 H         1 D56         0.0840
     54 H23        31.8191    4.2941   28.8527 H         1 D56         0.0840
     55 H24        33.1973    3.2136   27.2068 H         1 D56         0.1995
     56 H25        33.8891    4.6319   27.6751 H         1 D56         0.1995
     57 H26        33.1357    4.5262   26.2154 H         1 D56         0.1995
     58 H27        31.3388   10.0308   25.2063 H         1 D56         0.0366
     59 H28        31.1999    8.3201   24.6764 H         1 D56         0.0366
     60 H29        32.2404    8.7446   26.0777 H         1 D56         0.0366
     61 H30        29.4832   10.8305   26.3367 H         1 D56         0.0523
     62 H31        24.5422   11.2809   28.3187 H         1 D56         0.0368
     63 H32        28.7836   12.8770   30.0463 H         1 D56         0.0601
     64 H33        28.0180   14.2154   30.9678 H         1 D56         0.0601
@<TRIPOS>BOND
     1    1    2 1  
     2    1    6 1  
     3    7    1 1  
     4    2    3 1  
     5    3    4 1  
     6    5    4 1  
     7    6    5 1  
     8    8    7 ar 
     9   29    7 ar 
    10    9    8 ar 
    11    9   10 1  
    12   11    9 ar 
    13   11   12 ar 
    14   30   11 1  
    15   12   13 1  
    16   12   29 ar 
    17   13   14 am 
    18   14   15 2  
    19   14   16 1  
    20   16   17 ar 
    21   16   28 ar 
    22   17   18 ar 
    23   18   20 1  
    24   18   21 ar 
    25   31   19 1  
    26   21   22 1  
    27   26   21 ar 
    28   22   23 1  
    29   23   24 1  
    30   24   25 1  
    31   26   27 1  
    32   28   26 ar 
    33   30   31 1  
    34    2   32 1  
    35    2   33 1  
    36    3   34 1  
    37    3   35 1  
    38    4   36 1  
    39    4   37 1  
    40    5   38 1  
    41    5   39 1  
    42    6   40 1  
    43    6   41 1  
    44    8   42 1  
    45   13   43 1  
    46   17   44 1  
    47   19   45 1  
    48   19   46 1  
    49   19   47 1  
    50   20   48 1  
    51   20   49 1  
    52   20   50 1  
    53   23   51 1  
    54   23   52 1  
    55   24   53 1  
    56   24   54 1  
    57   25   55 1  
    58   25   56 1  
    59   25   57 1  
    60   27   58 1  
    61   27   59 1  
    62   27   60 1  
    63   28   61 1  
    64   29   62 1  
    65   31   63 1  
    66   31   64 1  
@<TRIPOS>SUBSTRUCTURE
     1 D56         1

