### 
### Created by X-TOOL on Mon Sep 10 21:12:57 2018
### 

@<TRIPOS>MOLECULE
2viy_ligand
   86    88     1     0     0
SMALL
GAST_HUCK


@<TRIPOS>ATOM
      1 C1         30.5470    1.2450   34.3590 C.2       1 VG3         0.2055
      2 N2         29.3600    1.4560   33.7170 N.am      1 VG3        -0.2784
      3 C3         29.2020    2.3450   32.5500 C.3       1 VG3         0.0818
      4 C4         28.3370    3.5240   33.0190 C.3       1 VG3         0.1192
      5 C5         28.5600    1.5640   31.3760 C.3       1 VG3         0.0065
      6 O6         31.5040    2.0170   34.2240 O.2       1 VG3        -0.3846
      7 C7         30.5720    0.0470   35.2150 C.ar      1 VG3         0.0517
      8 C8         30.1530   -1.2290   34.7310 C.ar      1 VG3        -0.0418
      9 C9         30.1760   -2.3610   35.5830 C.ar      1 VG3        -0.0544
     10 C10        30.6110   -2.2340   36.9210 C.ar      1 VG3        -0.0326
     11 C11        31.0290   -0.9730   37.4100 C.ar      1 VG3         0.0936
     12 C12        31.0110    0.1680   36.5650 C.ar      1 VG3        -0.0171
     13 C13        29.2090    0.2240   31.1020 C.ar      1 VG3        -0.0408
     14 C14        28.4280   -0.9650   31.0890 C.ar      1 VG3        -0.0603
     15 C15        29.0350   -2.2200   30.8350 C.ar      1 VG3        -0.0686
     16 C16        30.4270   -2.2960   30.5930 C.ar      1 VG3        -0.0687
     17 C17        31.2140   -1.1170   30.6050 C.ar      1 VG3        -0.0686
     18 C18        30.6090    0.1360   30.8570 C.ar      1 VG3        -0.0603
     19 O19        28.0980    4.4500   31.9870 O.3       1 VG3        -0.3841
     20 C20        28.9560    6.7450   34.8900 C.3       1 VG3         0.0639
     21 C21        28.9930    4.2820   34.1860 C.3       1 VG3        -0.0026
     22 N22        28.2730    5.5240   34.4250 N.4       1 VG3         0.2478
     23 S23        31.5550   -0.8330   39.1000 S.o2      1 VG3        -0.0021
     24 C24        29.5260    6.5250   36.3070 C.3       1 VG3        -0.0039
     25 C38        30.0910    7.1540   33.9040 C.2       1 VG3         0.2245
     26 N39        29.6350    7.9310   32.9040 N.am      1 VG3        -0.2793
     27 C40        30.4790    8.4020   31.8030 C.3       1 VG3         0.0422
     28 O41        31.2560    6.7770   34.0420 O.2       1 VG3        -0.3909
     29 C43        30.8950    9.8650   32.0780 C.3       1 VG3        -0.0299
     30 C44        31.7800   10.4030   30.8840 C.3       1 VG3        -0.0510
     31 C45        31.0860   10.2440   29.5070 C.3       1 VG3        -0.0529
     32 C46        30.5680    8.7980   29.2790 C.3       1 VG3        -0.0510
     33 C47        29.7070    8.2950   30.4680 C.3       1 VG3        -0.0299
     34 C60        32.9950   -1.8910   39.1700 C.3       1 VG3         0.0709
     35 C61        33.5530   -1.8840   40.6000 C.3       1 VG3        -0.0332
     36 C64        34.7870   -2.7790   40.7760 C.3       1 VG3        -0.0518
     37 C67        35.3160   -2.7550   42.2180 C.3       1 VG3        -0.0559
     38 C70        36.5490   -3.6500   42.4020 C.3       1 VG3        -0.0653
     39 O76        30.5300   -1.4170   39.9240 O.2       1 VG3        -0.1693
     40 O77        31.9300    0.5250   39.3430 O.2       1 VG3        -0.1693
     41 H1         28.5497    0.9796   34.0582 H         1 VG3         0.1851
     42 H2         30.1850    2.7193   32.2280 H         1 VG3         0.0606
     43 H3         27.3720    3.1199   33.3588 H         1 VG3         0.0672
     44 H4         28.6383    2.1788   30.4672 H         1 VG3         0.0449
     45 H5         27.4995    1.3930   31.6128 H         1 VG3         0.0449
     46 H6         29.8154   -1.3325   33.7061 H         1 VG3         0.0669
     47 H7         29.8589   -3.3270   35.2071 H         1 VG3         0.0630
     48 H8         30.6247   -3.1006   37.5721 H         1 VG3         0.0672
     49 H9         31.3311    1.1307   36.9469 H         1 VG3         0.0688
     50 H10        27.3614   -0.9106   31.2746 H         1 VG3         0.0557
     51 H11        28.4331   -3.1215   30.8261 H         1 VG3         0.0599
     52 H12        30.8917   -3.2558   30.3984 H         1 VG3         0.0559
     53 H13        32.2806   -1.1760   30.4208 H         1 VG3         0.0599
     54 H14        31.2146    1.0350   30.8637 H         1 VG3         0.0557
     55 H15        27.6457    4.0167   31.2727 H         1 VG3         0.2101
     56 H16        28.2206    7.5620   34.9313 H         1 VG3         0.1096
     57 H17        30.0397    4.5079   33.9341 H         1 VG3         0.0840
     58 H18        28.9601    3.6592   35.0921 H         1 VG3         0.0840
     59 H19        27.8275    5.7643   33.5533 H         1 VG3         0.2036
     60 H20        27.5692    5.3139   35.1153 H         1 VG3         0.2036
     61 H21        30.0331    7.4409   36.6445 H         1 VG3         0.0310
     62 H22        30.2457    5.6933   36.2877 H         1 VG3         0.0310
     63 H23        28.7056    6.2840   36.9989 H         1 VG3         0.0310
     64 H24        28.6720    8.2002   32.9130 H         1 VG3         0.1856
     65 H25        31.3817    7.7762   31.7443 H         1 VG3         0.0556
     66 H26        31.4748    9.9106   33.0117 H         1 VG3         0.0287
     67 H27        29.9942   10.4888   32.1749 H         1 VG3         0.0287
     68 H28        32.7269    9.8434   30.8676 H         1 VG3         0.0266
     69 H29        31.9875   11.4700   31.0525 H         1 VG3         0.0266
     70 H30        31.8081   10.4913   28.7149 H         1 VG3         0.0265
     71 H31        30.2342   10.9382   29.4565 H         1 VG3         0.0265
     72 H32        31.4308    8.1268   29.1564 H         1 VG3         0.0266
     73 H33        29.9564    8.7798   28.3649 H         1 VG3         0.0266
     74 H34        28.7934    8.9042   30.5322 H         1 VG3         0.0287
     75 H35        29.4351    7.2434   30.2942 H         1 VG3         0.0287
     76 H36        33.7606   -1.5179   38.4739 H         1 VG3         0.0504
     77 H37        32.7129   -2.9165   38.8896 H         1 VG3         0.0504
     78 H38        32.7662   -2.2364   41.2832 H         1 VG3         0.0281
     79 H39        33.8304   -0.8521   40.8612 H         1 VG3         0.0281
     80 H40        35.5806   -2.4261   40.1010 H         1 VG3         0.0266
     81 H41        34.5160   -3.8125   40.5146 H         1 VG3         0.0266
     82 H42        34.5208   -3.1057   42.8922 H         1 VG3         0.0263
     83 H43        35.5876   -1.7212   42.4778 H         1 VG3         0.0263
     84 H44        36.8873   -3.5977   43.4474 H         1 VG3         0.0230
     85 H45        37.3552   -3.3046   41.7381 H         1 VG3         0.0230
     86 H46        36.2884   -4.6891   42.1525 H         1 VG3         0.0230
@<TRIPOS>BOND
     1    2    1 am 
     2    1    6 2  
     3    1    7 1  
     4    3    2 1  
     5    4    3 1  
     6    3    5 1  
     7    4   19 1  
     8   21    4 1  
     9    5   13 1  
    10    7    8 ar 
    11    7   12 ar 
    12    8    9 ar 
    13    9   10 ar 
    14   11   10 ar 
    15   12   11 ar 
    16   11   23 1  
    17   13   14 ar 
    18   13   18 ar 
    19   14   15 ar 
    20   15   16 ar 
    21   17   16 ar 
    22   18   17 ar 
    23   22   20 1  
    24   20   24 1  
    25   20   25 1  
    26   21   22 1  
    27   23   34 1  
    28   23   39 2  
    29   23   40 2  
    30   25   26 am 
    31   25   28 2  
    32   26   27 1  
    33   27   29 1  
    34   27   33 1  
    35   29   30 1  
    36   30   31 1  
    37   31   32 1  
    38   32   33 1  
    39   34   35 1  
    40   35   36 1  
    41   36   37 1  
    42   37   38 1  
    43    2   41 1  
    44    3   42 1  
    45    4   43 1  
    46    5   44 1  
    47    5   45 1  
    48    8   46 1  
    49    9   47 1  
    50   10   48 1  
    51   12   49 1  
    52   14   50 1  
    53   15   51 1  
    54   16   52 1  
    55   17   53 1  
    56   18   54 1  
    57   19   55 1  
    58   20   56 1  
    59   21   57 1  
    60   21   58 1  
    61   22   59 1  
    62   22   60 1  
    63   24   61 1  
    64   24   62 1  
    65   24   63 1  
    66   26   64 1  
    67   27   65 1  
    68   29   66 1  
    69   29   67 1  
    70   30   68 1  
    71   30   69 1  
    72   31   70 1  
    73   31   71 1  
    74   32   72 1  
    75   32   73 1  
    76   33   74 1  
    77   33   75 1  
    78   34   76 1  
    79   34   77 1  
    80   35   78 1  
    81   35   79 1  
    82   36   80 1  
    83   36   81 1  
    84   37   82 1  
    85   37   83 1  
    86   38   84 1  
    87   38   85 1  
    88   38   86 1  
@<TRIPOS>SUBSTRUCTURE
     1 VG3         1

