### 
### Created by X-TOOL on Mon Sep 10 21:12:58 2018
### 

@<TRIPOS>MOLECULE
2viz_ligand
   89    92     1     0     0
SMALL
GAST_HUCK


@<TRIPOS>ATOM
      1 C1         31.5100   -0.9090   37.2850 C.ar      1 VG4         0.0655
      2 C2         31.3940    0.2350   36.4430 C.ar      1 VG4        -0.0323
      3 C3         30.8080    0.1230   35.1650 C.ar      1 VG4         0.0283
      4 C4         30.3370   -1.1480   34.7260 C.ar      1 VG4        -0.0288
      5 C5         30.4410   -2.3070   35.5580 C.ar      1 VG4         0.0829
      6 C6         31.0320   -2.1620   36.8280 C.ar      1 VG4        -0.0094
      7 C7         30.6730    1.2520   34.2370 C.2       1 VG4         0.1996
      8 N8         29.4940    1.3460   33.5510 N.am      1 VG4        -0.2787
      9 O9         31.5890    2.0580   34.0460 O.2       1 VG4        -0.3847
     10 C10        29.2670    2.3960   32.5350 C.3       1 VG4         0.0818
     11 C11        28.6550    1.7260   31.2730 C.3       1 VG4         0.0065
     12 C12        28.3700    3.5250   33.0850 C.3       1 VG4         0.1193
     13 O13        28.0910    4.4570   32.0560 O.3       1 VG4        -0.3840
     14 C14        29.2650    0.3720   30.9310 C.ar      1 VG4        -0.0408
     15 C15        29.0500    4.2820   34.2300 C.3       1 VG4        -0.0026
     16 N16        28.3790    5.5520   34.4680 N.4       1 VG4         0.2478
     17 C17        29.0770    6.7470   34.9730 C.3       1 VG4         0.0639
     18 C18        30.1520    7.1400   33.9370 C.2       1 VG4         0.2245
     19 N19        29.6650    7.8810   32.9270 N.am      1 VG4        -0.2793
     20 O20        31.3230    6.7800   34.0550 O.2       1 VG4        -0.3909
     21 C21        30.5040    8.3530   31.8250 C.3       1 VG4         0.0422
     22 C22        29.7210    6.4610   36.3500 C.3       1 VG4        -0.0039
     23 C23        30.9800    9.8000   32.1030 C.3       1 VG4        -0.0299
     24 C24        31.8630   10.3140   30.9390 C.3       1 VG4        -0.0510
     25 C25        31.1300   10.2120   29.5710 C.3       1 VG4        -0.0529
     26 C26        30.5810    8.7850   29.3120 C.3       1 VG4        -0.0510
     27 C27        29.7130    8.2840   30.4930 C.3       1 VG4        -0.0299
     28 C56        28.4140   -0.7390   30.7090 C.ar      1 VG4        -0.0603
     29 C57        28.9530   -2.0140   30.3910 C.ar      1 VG4        -0.0686
     30 C58        30.3560   -2.1900   30.2930 C.ar      1 VG4        -0.0687
     31 C59        31.2180   -1.0890   30.5100 C.ar      1 VG4        -0.0686
     32 C60        30.6750    0.1830   30.8250 C.ar      1 VG4        -0.0603
     33 O66        29.9560   -3.5530   35.0730 O.3       1 VG4        -0.3210
     34 C67        29.0920   -3.5810   33.9340 C.3       1 VG4         0.0698
     35 C68        27.6400   -3.4750   34.4080 C.3       1 VG4        -0.0279
     36 C71        26.6630   -3.4700   33.2430 C.3       1 VG4        -0.0628
     37 N77        32.0900   -0.8130   38.5260 N.am      1 VG4        -0.2214
     38 C78        33.4440   -0.2710   38.6680 C.3       1 VG4         0.0574
     39 C79        33.7540   -0.3290   40.1530 C.3       1 VG4        -0.0100
     40 C80        32.5450   -0.9630   40.8390 C.3       1 VG4         0.0456
     41 C81        31.5470   -1.2080   39.7110 C.2       1 VG4         0.2059
     42 O88        30.4390   -1.6990   39.8990 O.2       1 VG4        -0.3847
     43 H1         31.7581    1.1964   36.7867 H         1 VG4         0.0465
     44 H2         29.8911   -1.2385   33.7421 H         1 VG4         0.0468
     45 H3         31.1234   -3.0297   37.4712 H         1 VG4         0.0455
     46 H4         28.7661    0.6873   33.7414 H         1 VG4         0.1851
     47 H5         30.2368    2.8372   32.2613 H         1 VG4         0.0606
     48 H6         28.8061    2.3994   30.4165 H         1 VG4         0.0449
     49 H7         27.5774    1.5863   31.4440 H         1 VG4         0.0449
     50 H8         27.4299    3.0856   33.4499 H         1 VG4         0.0672
     51 H9         27.6424    4.0161   31.3441 H         1 VG4         0.2101
     52 H10        30.1008    4.4713   33.9657 H         1 VG4         0.0840
     53 H11        29.0060    3.6720   35.1443 H         1 VG4         0.0840
     54 H12        27.6453    5.3582   35.1314 H         1 VG4         0.2036
     55 H13        27.9720    5.8205   33.5858 H         1 VG4         0.2036
     56 H14        28.3572    7.5715   35.0825 H         1 VG4         0.1096
     57 H15        28.6936    8.1185   32.9287 H         1 VG4         0.1856
     58 H16        31.3863    7.7009   31.7457 H         1 VG4         0.0556
     59 H17        30.2361    7.3644   36.7086 H         1 VG4         0.0310
     60 H18        30.4463    5.6398   36.2521 H         1 VG4         0.0310
     61 H19        28.9386    6.1755   37.0685 H         1 VG4         0.0310
     62 H20        31.5643    9.8161   33.0348 H         1 VG4         0.0287
     63 H21        30.1030   10.4555   32.2087 H         1 VG4         0.0287
     64 H22        32.7824    9.7116   30.8963 H         1 VG4         0.0266
     65 H23        32.1225   11.3664   31.1265 H         1 VG4         0.0266
     66 H24        31.8367   10.4717   28.7690 H         1 VG4         0.0265
     67 H25        30.2902   10.9224   29.5641 H         1 VG4         0.0265
     68 H26        31.4277    8.0965   29.1743 H         1 VG4         0.0266
     69 H27        29.9675    8.7989   28.3991 H         1 VG4         0.0266
     70 H28        28.8151    8.9143   30.5735 H         1 VG4         0.0287
     71 H29        29.4141    7.2423   30.3045 H         1 VG4         0.0287
     72 H30        27.3397   -0.6144   30.7827 H         1 VG4         0.0557
     73 H31        28.2897   -2.8547   30.2228 H         1 VG4         0.0599
     74 H32        30.7669   -3.1639   30.0528 H         1 VG4         0.0559
     75 H33        32.2918   -1.2175   30.4356 H         1 VG4         0.0599
     76 H34        31.3406    1.0230   30.9874 H         1 VG4         0.0557
     77 H35        29.2334   -4.5246   33.3867 H         1 VG4         0.0613
     78 H36        29.3267   -2.7344   33.2720 H         1 VG4         0.0613
     79 H37        27.5190   -2.5419   34.9778 H         1 VG4         0.0288
     80 H38        27.4143   -4.3333   35.0578 H         1 VG4         0.0288
     81 H39        25.6351   -3.3928   33.6269 H         1 VG4         0.0231
     82 H40        26.7712   -4.4025   32.6697 H         1 VG4         0.0231
     83 H41        26.8758   -2.6111   32.5896 H         1 VG4         0.0231
     84 H42        33.4813    0.7679   38.3084 H         1 VG4         0.0587
     85 H43        34.1631   -0.8811   38.1017 H         1 VG4         0.0587
     86 H44        33.9206    0.6857   40.5438 H         1 VG4         0.0314
     87 H45        34.6511   -0.9411   40.3277 H         1 VG4         0.0314
     88 H46        32.1220   -0.2796   41.5900 H         1 VG4         0.0508
     89 H47        32.8253   -1.9107   41.3221 H         1 VG4         0.0508
@<TRIPOS>BOND
     1    1    2 ar 
     2    1    6 ar 
     3    1   37 1  
     4    2    3 ar 
     5    3    4 ar 
     6    3    7 1  
     7    4    5 ar 
     8    5    6 ar 
     9    5   33 1  
    10    7    8 am 
    11    7    9 2  
    12    8   10 1  
    13   10   11 1  
    14   10   12 1  
    15   11   14 1  
    16   12   13 1  
    17   12   15 1  
    18   14   28 ar 
    19   14   32 ar 
    20   15   16 1  
    21   16   17 1  
    22   17   18 1  
    23   17   22 1  
    24   18   19 am 
    25   18   20 2  
    26   19   21 1  
    27   21   23 1  
    28   21   27 1  
    29   23   24 1  
    30   24   25 1  
    31   25   26 1  
    32   26   27 1  
    33   28   29 ar 
    34   29   30 ar 
    35   30   31 ar 
    36   31   32 ar 
    37   33   34 1  
    38   34   35 1  
    39   35   36 1  
    40   37   38 1  
    41   37   41 am 
    42   38   39 1  
    43   39   40 1  
    44   40   41 1  
    45   41   42 2  
    46    2   43 1  
    47    4   44 1  
    48    6   45 1  
    49    8   46 1  
    50   10   47 1  
    51   11   48 1  
    52   11   49 1  
    53   12   50 1  
    54   13   51 1  
    55   15   52 1  
    56   15   53 1  
    57   16   54 1  
    58   16   55 1  
    59   17   56 1  
    60   19   57 1  
    61   21   58 1  
    62   22   59 1  
    63   22   60 1  
    64   22   61 1  
    65   23   62 1  
    66   23   63 1  
    67   24   64 1  
    68   24   65 1  
    69   25   66 1  
    70   25   67 1  
    71   26   68 1  
    72   26   69 1  
    73   27   70 1  
    74   27   71 1  
    75   28   72 1  
    76   29   73 1  
    77   30   74 1  
    78   31   75 1  
    79   32   76 1  
    80   34   77 1  
    81   34   78 1  
    82   35   79 1  
    83   35   80 1  
    84   36   81 1  
    85   36   82 1  
    86   36   83 1  
    87   38   84 1  
    88   38   85 1  
    89   39   86 1  
    90   39   87 1  
    91   40   88 1  
    92   40   89 1  
@<TRIPOS>SUBSTRUCTURE
     1 VG4         1

