### 
### Created by X-TOOL on Mon Sep 10 21:12:57 2018
### 

@<TRIPOS>MOLECULE
2vj1_ligand
   14    14     1     0     0
SMALL
GAST_HUCK


@<TRIPOS>ATOM
      1 CAE       -20.9390  -12.8770   37.2080 C.ar      1 XP1        -0.0571
      2 CAJ       -22.0050  -12.2300   36.5750 C.ar      1 XP1        -0.0558
      3 CAI       -22.7660  -11.2920   37.2550 C.ar      1 XP1        -0.0432
      4 CAD       -22.4650  -10.9790   38.5790 C.ar      1 XP1         0.0301
      5 CAC       -23.2790   -9.9720   39.3050 C.2       1 XP1         0.1269
      6 OAH       -22.6980   -9.2270   40.0710 O.2       1 XP1        -0.3620
      7 CAA       -21.3910  -11.6130   39.2180 C.ar      1 XP1        -0.0432
      8 CAB       -20.6240  -12.5620   38.5320 C.ar      1 XP1        -0.0558
      9 H1        -20.3591  -13.6204   36.6731 H         1 XP1         0.0656
     10 H2        -22.2384  -12.4643   35.5427 H         1 XP1         0.0630
     11 H3        -23.5949  -10.8022   36.7570 H         1 XP1         0.0673
     12 H4        -24.3557   -9.9029   39.1573 H         1 XP1         0.1340
     13 H5        -21.1534  -11.3677   40.2468 H         1 XP1         0.0673
     14 H6        -19.7908  -13.0494   39.0251 H         1 XP1         0.0630
@<TRIPOS>BOND
     1    1    2 ar 
     2    1    8 ar 
     3    2    3 ar 
     4    3    4 ar 
     5    4    5 1  
     6    4    7 ar 
     7    5    6 2  
     8    7    8 ar 
     9    1    9 1  
    10    2   10 1  
    11    3   11 1  
    12    5   12 1  
    13    7   13 1  
    14    8   14 1  
@<TRIPOS>SUBSTRUCTURE
     1 XP1         1

