### 
### Created by X-TOOL on Mon Sep 10 21:12:57 2018
### 

@<TRIPOS>MOLECULE
2vj6_ligand
   87    90     1     0     0
SMALL
GAST_HUCK


@<TRIPOS>ATOM
      1 C1         31.2710   -0.8080   37.3920 C.ar      1 VG5         0.0624
      2 C2         31.1650    0.3600   36.5140 C.ar      1 VG5        -0.0344
      3 C3         30.5390    0.2240   35.2520 C.ar      1 VG5         0.0255
      4 C4         29.9990   -1.0800   34.8260 C.ar      1 VG5        -0.0401
      5 C5         30.0940   -2.2490   35.6910 C.ar      1 VG5         0.0288
      6 C6         30.7280   -2.0860   36.9500 C.ar      1 VG5        -0.0210
      7 C7         30.4120    1.3270   34.3220 C.2       1 VG5         0.1991
      8 N8         29.2160    1.4250   33.6650 N.am      1 VG5        -0.2787
      9 O9         31.3420    2.1110   34.1130 O.2       1 VG5        -0.3847
     10 C10        28.9190    2.4470   32.6270 C.3       1 VG5         0.0818
     11 C11        28.2300    1.6730   31.4520 C.3       1 VG5         0.0065
     12 C12        28.0280    3.5920   33.1590 C.3       1 VG5         0.1193
     13 O13        27.7760    4.5170   32.1050 O.3       1 VG5        -0.3840
     14 C14        28.9120    0.3460   31.1300 C.ar      1 VG5        -0.0408
     15 C15        28.7210    4.3580   34.2960 C.3       1 VG5        -0.0026
     16 N16        28.0830    5.6590   34.5450 N.4       1 VG5         0.2478
     17 C17        28.8170    6.8380   35.0720 C.3       1 VG5         0.0639
     18 C18        29.8780    7.2620   34.0130 C.2       1 VG5         0.2245
     19 N19        29.3410    7.9110   32.9590 N.am      1 VG5        -0.2793
     20 O20        31.0790    7.0110   34.1540 O.2       1 VG5        -0.3909
     21 C21        30.1510    8.4020   31.8360 C.3       1 VG5         0.0422
     22 C22        29.4890    6.5020   36.4340 C.3       1 VG5        -0.0039
     23 C23        30.6100    9.8720   32.1020 C.3       1 VG5        -0.0299
     24 C24        31.4680   10.4010   30.9080 C.3       1 VG5        -0.0510
     25 C25        30.7140   10.2680   29.5350 C.3       1 VG5        -0.0529
     26 C26        30.1520    8.8270   29.2950 C.3       1 VG5        -0.0510
     27 C27        29.3300    8.3100   30.5150 C.3       1 VG5        -0.0299
     28 C56        28.1200   -0.8470   31.0530 C.ar      1 VG5        -0.0603
     29 C57        28.7400   -2.1130   30.7580 C.ar      1 VG5        -0.0686
     30 C58        30.1590   -2.1940   30.5430 C.ar      1 VG5        -0.0687
     31 C59        30.9640   -1.0080   30.6180 C.ar      1 VG5        -0.0686
     32 C60        30.3460    0.2540   30.9080 C.ar      1 VG5        -0.0603
     33 N1         29.5790   -3.5360   35.3110 N.pl3     1 VG5        -0.3254
     34 C67        29.0220   -3.8230   34.0000 C.3       1 VG5         0.0206
     35 C68        27.4870   -3.7680   34.0760 C.3       1 VG5        -0.0457
     36 N77        31.8740   -0.7040   38.6120 N.am      1 VG5        -0.2220
     37 C78        33.2150   -0.1180   38.7180 C.3       1 VG5         0.0574
     38 C79        33.5640   -0.1690   40.1970 C.3       1 VG5        -0.0100
     39 C80        32.3800   -0.8000   40.9220 C.3       1 VG5         0.0456
     40 C81        31.3660   -1.1000   39.8130 C.2       1 VG5         0.2058
     41 O88        30.2780   -1.6220   40.0320 O.2       1 VG5        -0.3848
     42 H1         31.5620    1.3186   36.8278 H         1 VG5         0.0448
     43 H2         29.5245   -1.1706   33.8556 H         1 VG5         0.0442
     44 H3         30.8115   -2.9439   37.6073 H         1 VG5         0.0426
     45 H4         28.4977    0.7691   33.8972 H         1 VG5         0.1851
     46 H5         29.8625    2.8866   32.2712 H         1 VG5         0.0606
     47 H6         28.2544    2.3066   30.5531 H         1 VG5         0.0449
     48 H7         27.1851    1.4714   31.7303 H         1 VG5         0.0449
     49 H8         27.0792    3.1721   33.5244 H         1 VG5         0.0672
     50 H9         27.3322    4.0711   31.3932 H         1 VG5         0.2101
     51 H10        29.7738    4.5239   34.0238 H         1 VG5         0.0840
     52 H11        28.6703    3.7549   35.2145 H         1 VG5         0.0840
     53 H12        27.3383    5.4810   35.2006 H         1 VG5         0.2036
     54 H13        27.6916    5.9487   33.6624 H         1 VG5         0.2036
     55 H14        28.1094    7.6662   35.2245 H         1 VG5         0.1096
     56 H15        28.3529    8.0638   32.9415 H         1 VG5         0.1856
     57 H16        31.0447    7.7678   31.7401 H         1 VG5         0.0556
     58 H17        30.0262    7.3869   36.8060 H         1 VG5         0.0310
     59 H18        30.1987    5.6726   36.2980 H         1 VG5         0.0310
     60 H19        28.7174    6.2090   37.1612 H         1 VG5         0.0310
     61 H20        31.2121    9.9025   33.0221 H         1 VG5         0.0287
     62 H21        29.7235   10.5120   32.2224 H         1 VG5         0.0287
     63 H22        32.4017    9.8216   30.8577 H         1 VG5         0.0266
     64 H23        31.7033   11.4613   31.0824 H         1 VG5         0.0266
     65 H24        31.4145   10.5128   28.7230 H         1 VG5         0.0265
     66 H25        29.8755   10.9798   29.5230 H         1 VG5         0.0265
     67 H26        30.9944    8.1421   29.1185 H         1 VG5         0.0266
     68 H27        29.5004    8.8429   28.4089 H         1 VG5         0.0266
     69 H28        28.4196    8.9190   30.6166 H         1 VG5         0.0287
     70 H29        29.0514    7.2605   30.3395 H         1 VG5         0.0287
     71 H30        27.0498   -0.7957   31.2176 H         1 VG5         0.0557
     72 H31        28.1335   -3.0094   30.6978 H         1 VG5         0.0599
     73 H32        30.6208   -3.1501   30.3244 H         1 VG5         0.0559
     74 H33        32.0343   -1.0655   30.4562 H         1 VG5         0.0599
     75 H34        30.9551    1.1490   30.9622 H         1 VG5         0.0557
     76 H35        29.6063   -4.2960   36.0057 H         1 VG5         0.1751
     77 H36        29.3381   -4.8263   33.6782 H         1 VG5         0.0508
     78 H37        29.3809   -3.0759   33.2768 H         1 VG5         0.0508
     79 H38        27.0628   -3.9850   33.0845 H         1 VG5         0.0249
     80 H39        27.1715   -2.7647   34.3982 H         1 VG5         0.0249
     81 H40        27.1287   -4.5150   34.7995 H         1 VG5         0.0249
     82 H41        33.2096    0.9220   38.3598 H         1 VG5         0.0587
     83 H42        33.9382   -0.7040   38.1318 H         1 VG5         0.0587
     84 H43        33.7395    0.8481   40.5775 H         1 VG5         0.0314
     85 H44        34.4669   -0.7785   40.3497 H         1 VG5         0.0314
     86 H45        31.9563   -0.0999   41.6571 H         1 VG5         0.0508
     87 H46        32.6847   -1.7263   41.4311 H         1 VG5         0.0508
@<TRIPOS>BOND
     1    1    2 ar 
     2    1    6 ar 
     3    1   36 1  
     4    2    3 ar 
     5    3    4 ar 
     6    3    7 1  
     7    4    5 ar 
     8    5    6 ar 
     9    5   33 1  
    10    7    8 am 
    11    7    9 2  
    12    8   10 1  
    13   10   11 1  
    14   10   12 1  
    15   11   14 1  
    16   12   13 1  
    17   12   15 1  
    18   14   28 ar 
    19   14   32 ar 
    20   15   16 1  
    21   16   17 1  
    22   17   18 1  
    23   17   22 1  
    24   18   19 am 
    25   18   20 2  
    26   19   21 1  
    27   21   23 1  
    28   21   27 1  
    29   23   24 1  
    30   24   25 1  
    31   25   26 1  
    32   26   27 1  
    33   28   29 ar 
    34   29   30 ar 
    35   30   31 ar 
    36   31   32 ar 
    37   33   34 1  
    38   34   35 1  
    39   36   37 1  
    40   36   40 am 
    41   37   38 1  
    42   38   39 1  
    43   39   40 1  
    44   40   41 2  
    45    2   42 1  
    46    4   43 1  
    47    6   44 1  
    48    8   45 1  
    49   10   46 1  
    50   11   47 1  
    51   11   48 1  
    52   12   49 1  
    53   13   50 1  
    54   15   51 1  
    55   15   52 1  
    56   16   53 1  
    57   16   54 1  
    58   17   55 1  
    59   19   56 1  
    60   21   57 1  
    61   22   58 1  
    62   22   59 1  
    63   22   60 1  
    64   23   61 1  
    65   23   62 1  
    66   24   63 1  
    67   24   64 1  
    68   25   65 1  
    69   25   66 1  
    70   26   67 1  
    71   26   68 1  
    72   27   69 1  
    73   27   70 1  
    74   28   71 1  
    75   29   72 1  
    76   30   73 1  
    77   31   74 1  
    78   32   75 1  
    79   33   76 1  
    80   34   77 1  
    81   34   78 1  
    82   35   79 1  
    83   35   80 1  
    84   35   81 1  
    85   37   82 1  
    86   37   83 1  
    87   38   84 1  
    88   38   85 1  
    89   39   86 1  
    90   39   87 1  
@<TRIPOS>SUBSTRUCTURE
     1 VG5         1

