### 
### Created by X-TOOL on Mon Sep 10 21:12:58 2018
### 

@<TRIPOS>MOLECULE
2vj7_ligand
   77    80     1     0     0
SMALL
GAST_HUCK


@<TRIPOS>ATOM
      1 C1         29.8760   -2.1360   35.5170 C.ar      1 VG6         0.0288
      2 C2         29.8320   -0.9890   34.6750 C.ar      1 VG6        -0.0401
      3 C3         30.3820    0.2510   35.1050 C.ar      1 VG6         0.0255
      4 C4         30.9830    0.3370   36.3820 C.ar      1 VG6        -0.0344
      5 C5         31.0370   -0.7980   37.2360 C.ar      1 VG6         0.0624
      6 C6         30.4780   -2.0280   36.7810 C.ar      1 VG6        -0.0210
      7 C7         30.3540    1.4370   34.2410 C.2       1 VG6         0.1991
      8 N8         29.2570    1.5530   33.4700 N.am      1 VG6        -0.2787
      9 O9         31.2730    2.2560   34.1810 O.2       1 VG6        -0.3847
     10 C10        29.0870    2.6410   32.5160 C.3       1 VG6         0.0818
     11 C11        28.9080    2.1210   31.0630 C.3       1 VG6         0.0065
     12 C12        28.0860    3.7260   32.9980 C.3       1 VG6         0.1192
     13 O13        27.6930    4.5680   31.9430 O.3       1 VG6        -0.3841
     14 C14        29.0980    0.6270   30.8720 C.ar      1 VG6        -0.0408
     15 C15        28.7480    4.6250   34.0360 C.3       1 VG6        -0.0033
     16 N16        27.8840    5.7190   34.4990 N.4       1 VG6         0.2413
     17 C17        28.0220   -0.3000   30.8230 C.ar      1 VG6        -0.0603
     18 C18        28.2880   -1.6780   30.6280 C.ar      1 VG6        -0.0686
     19 C19        29.6190   -2.1400   30.4790 C.ar      1 VG6        -0.0687
     20 C20        30.6920   -1.2270   30.5270 C.ar      1 VG6        -0.0686
     21 C21        30.4300    0.1430   30.7200 C.ar      1 VG6        -0.0603
     22 N38        29.3610   -3.3620   35.1550 N.pl3     1 VG6        -0.3254
     23 C39        28.8020   -3.6900   33.8400 C.3       1 VG6         0.0206
     24 C41        27.2780   -3.5580   33.8770 C.3       1 VG6        -0.0457
     25 N47        31.6340   -0.6980   38.4780 N.am      1 VG6        -0.2220
     26 C48        31.0740   -1.0890   39.6640 C.2       1 VG6         0.2058
     27 C49        32.0530   -0.8140   40.8040 C.3       1 VG6         0.0456
     28 C50        33.3720   -0.5650   40.0750 C.3       1 VG6        -0.0100
     29 C51        32.9760   -0.1430   38.6670 C.3       1 VG6         0.0574
     30 O58        29.9670   -1.5870   39.8270 O.2       1 VG6        -0.3848
     31 C59        28.6360    6.8770   35.0540 C.3       1 VG6         0.0066
     32 C61        29.7010    7.4600   34.1320 C.ar      1 VG6         0.0303
     33 C64        31.0620    7.4600   34.5370 C.ar      1 VG6        -0.0265
     34 C65        32.0670    7.9920   33.6960 C.ar      1 VG6        -0.0376
     35 C66        31.7270    8.5330   32.4350 C.ar      1 VG6        -0.0377
     36 C67        30.3600    8.5560   31.9820 C.ar      1 VG6         0.0411
     37 C68        29.3610    8.0040   32.8690 C.ar      1 VG6        -0.0257
     38 C73        29.9620    9.1520   30.5850 C.3       1 VG6         0.3750
     39 F74        28.9280    9.9810   30.7320 F         1 VG6        -0.2204
     40 F75        29.6230    8.1470   29.7990 F         1 VG6        -0.2204
     41 F76        30.9690    9.8210   30.0190 F         1 VG6        -0.2204
     42 H1         29.3743   -1.0610   33.6950 H         1 VG6         0.0442
     43 H2         31.4069    1.2781   36.7131 H         1 VG6         0.0448
     44 H3         30.5186   -2.8990   37.4250 H         1 VG6         0.0426
     45 H4         28.5331    0.8683   33.5549 H         1 VG6         0.1851
     46 H5         30.0568    3.1599   32.5009 H         1 VG6         0.0606
     47 H6         29.6397    2.6392   30.4257 H         1 VG6         0.0449
     48 H7         27.8897    2.3771   30.7351 H         1 VG6         0.0449
     49 H8         27.2031    3.2336   33.4317 H         1 VG6         0.0672
     50 H9         27.2737    4.0504   31.2656 H         1 VG6         0.2101
     51 H10        29.6545    5.0615   33.5914 H         1 VG6         0.0840
     52 H11        29.0254    4.0091   34.9041 H         1 VG6         0.0840
     53 H12        27.2740    5.3613   35.2173 H         1 VG6         0.2029
     54 H13        27.3323    6.0413   33.7194 H         1 VG6         0.2029
     55 H14        27.0008    0.0461   30.9345 H         1 VG6         0.0557
     56 H15        27.4665   -2.3844   30.5925 H         1 VG6         0.0599
     57 H16        29.8123   -3.1959   30.3280 H         1 VG6         0.0559
     58 H17        31.7119   -1.5772   30.4161 H         1 VG6         0.0599
     59 H18        31.2571    0.8429   30.7536 H         1 VG6         0.0557
     60 H19        29.3695   -4.1078   35.8654 H         1 VG6         0.1751
     61 H20        29.0727   -4.7228   33.5754 H         1 VG6         0.0508
     62 H21        29.2101   -2.9996   33.0872 H         1 VG6         0.0508
     63 H22        26.8645   -3.8052   32.8881 H         1 VG6         0.0249
     64 H23        27.0057   -2.5254   34.1406 H         1 VG6         0.0249
     65 H24        26.8683   -4.2486   34.6288 H         1 VG6         0.0249
     66 H25        32.1308   -1.6816   41.4758 H         1 VG6         0.0508
     67 H26        31.7480    0.0710   41.3817 H         1 VG6         0.0508
     68 H27        33.9766   -1.4835   40.0467 H         1 VG6         0.0314
     69 H28        33.9422    0.2342   40.5712 H         1 VG6         0.0314
     70 H29        32.9583    0.9535   38.5809 H         1 VG6         0.0587
     71 H30        33.6755   -0.5577   37.9263 H         1 VG6         0.0587
     72 H31        29.1301    6.5496   35.9807 H         1 VG6         0.0985
     73 H32        27.9131    7.6732   35.2854 H         1 VG6         0.0985
     74 H33        31.3338    7.0475   35.5019 H         1 VG6         0.0805
     75 H34        33.1016    7.9849   34.0195 H         1 VG6         0.0683
     76 H35        32.5069    8.9366   31.7994 H         1 VG6         0.0802
     77 H36        28.3223    8.0064   32.5589 H         1 VG6         0.0782
@<TRIPOS>BOND
     1    1    2 ar 
     2    1    6 ar 
     3    1   22 1  
     4    2    3 ar 
     5    3    4 ar 
     6    3    7 1  
     7    4    5 ar 
     8    5    6 ar 
     9    5   25 1  
    10    7    8 am 
    11    7    9 2  
    12    8   10 1  
    13   10   11 1  
    14   10   12 1  
    15   11   14 1  
    16   12   13 1  
    17   12   15 1  
    18   14   17 ar 
    19   14   21 ar 
    20   15   16 1  
    21   16   31 1  
    22   17   18 ar 
    23   18   19 ar 
    24   19   20 ar 
    25   20   21 ar 
    26   22   23 1  
    27   23   24 1  
    28   25   26 am 
    29   25   29 1  
    30   26   27 1  
    31   26   30 2  
    32   27   28 1  
    33   28   29 1  
    34   31   32 1  
    35   32   33 ar 
    36   32   37 ar 
    37   33   34 ar 
    38   34   35 ar 
    39   35   36 ar 
    40   36   37 ar 
    41   36   38 1  
    42   38   39 1  
    43   38   40 1  
    44   38   41 1  
    45    2   42 1  
    46    4   43 1  
    47    6   44 1  
    48    8   45 1  
    49   10   46 1  
    50   11   47 1  
    51   11   48 1  
    52   12   49 1  
    53   13   50 1  
    54   15   51 1  
    55   15   52 1  
    56   16   53 1  
    57   16   54 1  
    58   17   55 1  
    59   18   56 1  
    60   19   57 1  
    61   20   58 1  
    62   21   59 1  
    63   22   60 1  
    64   23   61 1  
    65   23   62 1  
    66   24   63 1  
    67   24   64 1  
    68   24   65 1  
    69   27   66 1  
    70   27   67 1  
    71   28   68 1  
    72   28   69 1  
    73   29   70 1  
    74   29   71 1  
    75   31   72 1  
    76   31   73 1  
    77   33   74 1  
    78   34   75 1  
    79   35   76 1  
    80   37   77 1  
@<TRIPOS>SUBSTRUCTURE
     1 VG6         1

