### 
### Created by X-TOOL on Mon Sep 10 21:12:57 2018
### 

@<TRIPOS>MOLECULE
2vj8_ligand
   57    58     1     0     0
SMALL
GAST_HUCK


@<TRIPOS>ATOM
      1 C3          8.1010   39.2790   67.5910 C.ar      1 HA2        -0.0578
      2 C2          8.0020   37.9160   67.9260 C.ar      1 HA2        -0.0685
      3 C1          7.7700   37.5000   69.2450 C.ar      1 HA2        -0.0687
      4 C6          7.6320   38.4700   70.2610 C.ar      1 HA2        -0.0685
      5 C5          7.7190   39.8380   69.9300 C.ar      1 HA2        -0.0578
      6 C4          7.9510   40.2510   68.6080 C.ar      1 HA2        -0.0131
      7 C7          8.0420   41.7380   68.2960 C.3       1 HA2         0.1028
      8 O1          8.3770   41.9640   66.9270 O.3       1 HA2        -0.3099
      9 C8          9.7120   42.1700   66.4550 C.ar      1 HA2         0.0868
     10 C13         9.9750   43.1500   65.4750 C.ar      1 HA2        -0.0393
     11 C12        11.2920   43.3460   65.0070 C.ar      1 HA2        -0.0685
     12 C9         10.7740   41.3750   66.9610 C.ar      1 HA2        -0.0393
     13 C10        12.0850   41.5780   66.4950 C.ar      1 HA2        -0.0685
     14 C11        12.3420   42.5640   65.5250 C.ar      1 HA2        -0.0483
     15 C14        13.7930   42.7920   65.0760 C.3       1 HA2         0.0209
     16 C15        14.0900   42.0900   63.7170 C.3       1 HA2         0.0072
     17 N2         13.5620   40.7250   63.7290 N.4       1 HA2         0.2236
     18 C16        15.6120   42.0380   63.4580 C.3       1 HA2         0.1069
     19 N3         16.3700   41.7450   64.7040 N.am      1 HA2        -0.1451
     20 O2         16.1120   40.6190   65.3950 O.3       1 HA2        -0.2689
     21 C17        17.2980   42.6210   65.1480 C.2       1 HA2         0.2015
     22 O3         17.5160   43.6810   64.5390 O.2       1 HA2        -0.3968
     23 C18        18.0540   42.3010   66.4240 C.3       1 HA2         0.0392
     24 C19        18.9630   43.4560   66.8290 C.3       1 HA2        -0.0346
     25 C20        18.4750   44.0680   68.1380 C.3       1 HA2        -0.0394
     26 C21        18.8490   45.5480   68.2010 C.3       1 HA2         0.0003
     27 C22        17.6250   46.4020   68.4790 C.2       1 HA2         0.0348
     28 O5         17.7790   47.3410   69.2660 O.co2     1 HA2        -0.5690
     29 O4         16.5540   46.0980   67.8910 O.co2     1 HA2        -0.5690
     30 H1          8.2897   39.5804   66.5670 H         1 HA2         0.0557
     31 H2          8.1075   37.1702   67.1464 H         1 HA2         0.0599
     32 H3          7.6974   36.4447   69.4818 H         1 HA2         0.0559
     33 H4          7.4606   38.1659   71.2872 H         1 HA2         0.0599
     34 H5          7.6049   40.5832   70.7090 H         1 HA2         0.0557
     35 H6          8.8161   42.1905   68.9331 H         1 HA2         0.0776
     36 H7          7.0707   42.2084   68.5089 H         1 HA2         0.0776
     37 H8          9.1649   43.7530   65.0811 H         1 HA2         0.0525
     38 H9         11.4945   44.0962   64.2512 H         1 HA2         0.0530
     39 H10        10.5744   40.6127   67.7054 H         1 HA2         0.0525
     40 H11        12.8977   40.9747   66.8832 H         1 HA2         0.0530
     41 H12        14.4714   42.3882   65.8420 H         1 HA2         0.0461
     42 H13        13.9668   43.8725   64.9651 H         1 HA2         0.0461
     43 H14        13.6059   42.6580   62.9089 H         1 HA2         0.0892
     44 H15        13.7595   40.2806   62.8460 H         1 HA2         0.1999
     45 H16        12.5652   40.7516   63.8763 H         1 HA2         0.1999
     46 H17        13.9978   40.2027   64.4729 H         1 HA2         0.1999
     47 H18        15.9399   43.0100   63.0610 H         1 HA2         0.0609
     48 H19        15.8217   41.2505   62.7192 H         1 HA2         0.0609
     49 H20        15.2031   40.6195   65.6712 H         1 HA2         0.2493
     50 H21        18.6665   41.4017   66.2626 H         1 HA2         0.0502
     51 H22        17.3315   42.1125   67.2318 H         1 HA2         0.0502
     52 H23        18.9505   44.2233   66.0410 H         1 HA2         0.0290
     53 H24        19.9893   43.0830   66.9614 H         1 HA2         0.0290
     54 H25        18.9414   43.5393   68.9823 H         1 HA2         0.0284
     55 H26        17.3815   43.9667   68.2009 H         1 HA2         0.0284
     56 H27        19.2886   45.8502   67.2390 H         1 HA2         0.0430
     57 H28        19.5849   45.7002   69.0043 H         1 HA2         0.0430
@<TRIPOS>BOND
     1    1    2 ar 
     2    1    6 ar 
     3    2    3 ar 
     4    3    4 ar 
     5    4    5 ar 
     6    5    6 ar 
     7    6    7 1  
     8    7    8 1  
     9    8    9 1  
    10    9   10 ar 
    11    9   12 ar 
    12   10   11 ar 
    13   11   14 ar 
    14   12   13 ar 
    15   13   14 ar 
    16   14   15 1  
    17   15   16 1  
    18   16   17 1  
    19   16   18 1  
    20   18   19 1  
    21   19   20 1  
    22   19   21 am 
    23   21   22 2  
    24   21   23 1  
    25   23   24 1  
    26   24   25 1  
    27   25   26 1  
    28   26   27 1  
    29   27   28 ar 
    30   27   29 ar 
    31    1   30 1  
    32    2   31 1  
    33    3   32 1  
    34    4   33 1  
    35    5   34 1  
    36    7   35 1  
    37    7   36 1  
    38   10   37 1  
    39   11   38 1  
    40   12   39 1  
    41   13   40 1  
    42   15   41 1  
    43   15   42 1  
    44   16   43 1  
    45   17   44 1  
    46   17   45 1  
    47   17   46 1  
    48   18   47 1  
    49   18   48 1  
    50   20   49 1  
    51   23   50 1  
    52   23   51 1  
    53   24   52 1  
    54   24   53 1  
    55   25   54 1  
    56   25   55 1  
    57   26   56 1  
    58   26   57 1  
@<TRIPOS>SUBSTRUCTURE
     1 HA2         1

