### 
### Created by X-TOOL on Mon Sep 10 21:12:58 2018
### 

@<TRIPOS>MOLECULE
2vj9_ligand
   77    80     1     0     0
SMALL
GAST_HUCK


@<TRIPOS>ATOM
      1 C1         30.4160   -2.0680   35.6070 C.ar      1 VG7         0.0288
      2 C2         30.3500   -0.9060   34.7600 C.ar      1 VG7        -0.0401
      3 C3         30.9270    0.3560   35.1590 C.ar      1 VG7         0.0255
      4 C4         31.5850    0.4630   36.4240 C.ar      1 VG7        -0.0344
      5 C5         31.6690   -0.6870   37.2960 C.ar      1 VG7         0.0624
      6 C6         31.0750   -1.9470   36.8630 C.ar      1 VG7        -0.0210
      7 C7         30.8390    1.4850   34.2560 C.2       1 VG7         0.1991
      8 N8         29.6270    1.6330   33.6520 N.am      1 VG7        -0.2787
      9 O9         31.7920    2.2360   34.0140 O.2       1 VG7        -0.3847
     10 C10        29.3300    2.6770   32.6430 C.3       1 VG7         0.0818
     11 C11        28.5830    1.9580   31.4630 C.3       1 VG7         0.0065
     12 C12        28.5240    3.8590   33.2420 C.3       1 VG7         0.1192
     13 O13        28.2410    4.8090   32.2340 O.3       1 VG7        -0.3840
     14 C14        29.2160    0.6140   31.0950 C.ar      1 VG7        -0.0408
     15 C15        29.3280    4.6090   34.2810 C.3       1 VG7        -0.0044
     16 C17        28.4020   -0.5810   31.0510 C.ar      1 VG7        -0.0603
     17 C18        28.9820   -1.8580   30.7130 C.ar      1 VG7        -0.0686
     18 C19        30.3840   -1.9580   30.4180 C.ar      1 VG7        -0.0687
     19 C20        31.2030   -0.7790   30.4580 C.ar      1 VG7        -0.0686
     20 C21        30.6270    0.4960   30.7930 C.ar      1 VG7        -0.0603
     21 N38        29.8780   -3.3040   35.2640 N.pl3     1 VG7        -0.3254
     22 C39        29.3400   -3.6850   33.9500 C.3       1 VG7         0.0206
     23 C41        27.8110   -3.5610   33.9370 C.3       1 VG7        -0.0457
     24 N47        32.3160   -0.5860   38.5220 N.am      1 VG7        -0.2220
     25 C48        31.8190   -1.0230   39.7150 C.2       1 VG7         0.2058
     26 C49        32.8260   -0.7430   40.8260 C.3       1 VG7         0.0456
     27 C50        34.0990   -0.3550   40.0630 C.3       1 VG7        -0.0100
     28 C51        33.6510    0.0210   38.6630 C.3       1 VG7         0.0574
     29 O58        30.7390   -1.5660   39.9160 O.2       1 VG7        -0.3848
     30 N16        28.6010    5.7460   34.8660 N.4       1 VG7         0.2310
     31 C59        29.5290    6.7230   35.4960 C.3       1 VG7        -0.0226
     32 C61        30.0620    6.1540   36.8580 C.3       1 VG7        -0.0097
     33 C62        31.0550    7.1740   37.5690 C.3       1 VG7        -0.0480
     34 C63        31.2610    8.5010   36.7230 C.3       1 VG7        -0.0527
     35 C64        29.8260    9.1080   36.4330 C.3       1 VG7        -0.0480
     36 C65        28.8330    8.0940   35.7380 C.3       1 VG7        -0.0097
     37 H1         29.8547   -0.9802   33.7986 H         1 VG7         0.0442
     38 H2         32.0212    1.4072   36.7294 H         1 VG7         0.0448
     39 H3         31.1369   -2.8120   37.5133 H         1 VG7         0.0426
     40 H4         28.8949    1.0002   33.9042 H         1 VG7         0.1851
     41 H5         30.2791    3.0826   32.2627 H         1 VG7         0.0606
     42 H6         28.6086    2.6127   30.5794 H         1 VG7         0.0449
     43 H7         27.5384    1.7851   31.7612 H         1 VG7         0.0449
     44 H8         27.5926    3.4767   33.6850 H         1 VG7         0.0672
     45 H9         27.7302    4.3973   31.5468 H         1 VG7         0.2101
     46 H10        30.2456    4.9874   33.8069 H         1 VG7         0.0840
     47 H11        29.5935    3.9109   35.0886 H         1 VG7         0.0840
     48 H12        27.3433   -0.5162   31.2747 H         1 VG7         0.0557
     49 H13        28.3582   -2.7440   30.6816 H         1 VG7         0.0599
     50 H14        30.8213   -2.9175   30.1667 H         1 VG7         0.0559
     51 H15        32.2613   -0.8502   30.2345 H         1 VG7         0.0599
     52 H16        31.2564    1.3781   30.8196 H         1 VG7         0.0557
     53 H17        29.8543   -4.0219   36.0022 H         1 VG7         0.1751
     54 H18        29.6202   -4.7262   33.7325 H         1 VG7         0.0508
     55 H19        29.7631   -3.0229   33.1802 H         1 VG7         0.0508
     56 H20        27.4281   -3.8499   32.9471 H         1 VG7         0.0249
     57 H21        27.5257   -2.5205   34.1511 H         1 VG7         0.0249
     58 H22        27.3828   -4.2237   34.7034 H         1 VG7         0.0249
     59 H23        32.9935   -1.6398   41.4406 H         1 VG7         0.0508
     60 H24        32.4847    0.0827   41.4676 H         1 VG7         0.0508
     61 H25        34.7960   -1.2052   40.0255 H         1 VG7         0.0314
     62 H26        34.5901    0.5006   40.5495 H         1 VG7         0.0314
     63 H27        33.5936    1.1141   38.5546 H         1 VG7         0.0587
     64 H28        34.3436   -0.3861   37.9117 H         1 VG7         0.0587
     65 H29        27.9638    5.4013   35.5668 H         1 VG7         0.2017
     66 H30        28.0809    6.2111   34.1385 H         1 VG7         0.2017
     67 H31        30.3819    6.8792   34.8191 H         1 VG7         0.0850
     68 H32        30.5951    5.2110   36.6670 H         1 VG7         0.0320
     69 H33        29.2078    5.9639   37.5245 H         1 VG7         0.0320
     70 H34        32.0308    6.6838   37.7017 H         1 VG7         0.0267
     71 H35        30.6425    7.4420   38.5529 H         1 VG7         0.0267
     72 H36        31.7685    8.2675   35.7755 H         1 VG7         0.0265
     73 H37        31.8649    9.2211   37.2947 H         1 VG7         0.0265
     74 H38        29.9455    9.9819   35.7757 H         1 VG7         0.0267
     75 H39        29.3842    9.4258   37.3889 H         1 VG7         0.0267
     76 H40        27.9567    7.9450   36.3860 H         1 VG7         0.0320
     77 H41        28.5088    8.5100   34.7727 H         1 VG7         0.0320
@<TRIPOS>BOND
     1    1    2 ar 
     2    1    6 ar 
     3    1   21 1  
     4    2    3 ar 
     5    3    4 ar 
     6    3    7 1  
     7    4    5 ar 
     8    5    6 ar 
     9    5   24 1  
    10    7    8 am 
    11    7    9 2  
    12    8   10 1  
    13   10   11 1  
    14   10   12 1  
    15   11   14 1  
    16   12   13 1  
    17   12   15 1  
    18   14   16 ar 
    19   14   20 ar 
    20   15   30 1  
    21   16   17 ar 
    22   17   18 ar 
    23   18   19 ar 
    24   19   20 ar 
    25   21   22 1  
    26   22   23 1  
    27   24   25 am 
    28   24   28 1  
    29   25   26 1  
    30   25   29 2  
    31   26   27 1  
    32   27   28 1  
    33   30   31 1  
    34   31   32 1  
    35   31   36 1  
    36   32   33 1  
    37   33   34 1  
    38   34   35 1  
    39   35   36 1  
    40    2   37 1  
    41    4   38 1  
    42    6   39 1  
    43    8   40 1  
    44   10   41 1  
    45   11   42 1  
    46   11   43 1  
    47   12   44 1  
    48   13   45 1  
    49   15   46 1  
    50   15   47 1  
    51   16   48 1  
    52   17   49 1  
    53   18   50 1  
    54   19   51 1  
    55   20   52 1  
    56   21   53 1  
    57   22   54 1  
    58   22   55 1  
    59   23   56 1  
    60   23   57 1  
    61   23   58 1  
    62   26   59 1  
    63   26   60 1  
    64   27   61 1  
    65   27   62 1  
    66   28   63 1  
    67   28   64 1  
    68   30   65 1  
    69   30   66 1  
    70   31   67 1  
    71   32   68 1  
    72   32   69 1  
    73   33   70 1  
    74   33   71 1  
    75   34   72 1  
    76   34   73 1  
    77   35   74 1  
    78   35   75 1  
    79   36   76 1  
    80   36   77 1  
@<TRIPOS>SUBSTRUCTURE
     1 VG7         1

