### 
### Created by X-TOOL on Mon Sep 10 21:12:57 2018
### 

@<TRIPOS>MOLECULE
2vjx_ligand
   22    22     1     0     0
SMALL
GAST_HUCK


@<TRIPOS>ATOM
      1 O4         27.4990   49.6760    0.1600 O.3       1 IFL        -0.3864
      2 C4         27.8660   48.5600   -0.6650 C.3       1 IFL         0.1048
      3 C3         28.0820   47.3490    0.2770 C.3       1 IFL         0.1695
      4 O3         29.4370   47.3890    0.7070 O.3       1 IFL        -0.3688
      5 C2         27.8500   45.9500   -0.3650 C.2       1 IFL         0.2075
      6 N          27.4610   45.9060   -1.6550 N.am      1 IFL        -0.2843
      7 C7         27.1430   47.0500   -2.5230 C.3       1 IFL         0.0385
      8 C5         26.7460   48.2780   -1.6720 C.3       1 IFL         0.0329
      9 C6         26.3930   49.5350   -2.5100 C.3       1 IFL         0.0514
     10 O6         27.4550   49.8620   -3.3990 O.3       1 IFL        -0.3946
     11 O2         28.0350   44.9030    0.2690 O.2       1 IFL        -0.3941
     12 H1         27.3581   50.4399   -0.3869 H         1 IFL         0.2101
     13 H2         28.7968   48.7809   -1.2079 H         1 IFL         0.0649
     14 H3         27.4067   47.4535    1.1390 H         1 IFL         0.0864
     15 H4         29.6051   46.6572    1.2890 H         1 IFL         0.2134
     16 H5         27.3799   44.9979   -2.0659 H         1 IFL         0.1851
     17 H6         26.3061   46.7816   -3.1844 H         1 IFL         0.0524
     18 H7         28.0251   47.3001   -3.1308 H         1 IFL         0.0524
     19 H8         25.8425   48.0087   -1.1053 H         1 IFL         0.0370
     20 H9         26.2159   50.3829   -1.8320 H         1 IFL         0.0561
     21 H10        25.4822   49.3357   -3.0936 H         1 IFL         0.0561
     22 H11        27.2195   50.6328   -3.9019 H         1 IFL         0.2094
@<TRIPOS>BOND
     1    1    2 1  
     2    2    3 1  
     3    2    8 1  
     4    3    4 1  
     5    3    5 1  
     6    5    6 am 
     7    5   11 2  
     8    6    7 1  
     9    7    8 1  
    10    8    9 1  
    11    9   10 1  
    12    1   12 1  
    13    2   13 1  
    14    3   14 1  
    15    4   15 1  
    16    6   16 1  
    17    7   17 1  
    18    7   18 1  
    19    8   19 1  
    20    9   20 1  
    21    9   21 1  
    22   10   22 1  
@<TRIPOS>SUBSTRUCTURE
     1 IFL         1

