### 
### Created by X-TOOL on Mon Sep 10 21:13:00 2018
### 

@<TRIPOS>MOLECULE
2vk2_ligand
   20    20     1     0     0
SMALL
GAST_HUCK


@<TRIPOS>ATOM
      1 C1         34.3220   26.9450   14.7440 C.2       1 GZL         0.0425
      2 C2         33.8010   26.6480   13.5370 C.2       1 GZL         0.1031
      3 C3         33.0400   27.6390   12.6760 C.3       1 GZL         0.1528
      4 C4         33.1000   29.1180   12.9430 C.2       1 GZL         0.1023
      5 C5         33.2940   29.7790   11.8100 C.2       1 GZL         0.1182
      6 O1         34.9660   26.0270   15.4710 O.3       1 GZL        -0.3759
      7 O2         33.8690   25.3890   13.0900 O.3       1 GZL        -0.3470
      8 O3         33.4680   27.5390   11.3110 O.3       1 GZL        -0.3185
      9 O4         32.8910   29.6460   14.1440 O.3       1 GZL        -0.3606
     10 C6         33.5140   28.8280   10.6890 C.3       1 GZL         0.2016
     11 O5         33.3350   31.0980   11.6130 O.3       1 GZL        -0.3591
     12 O6         32.4950   28.9300    9.7000 O.3       1 GZL        -0.3584
     13 H1         34.2158   27.9556   15.1356 H         1 GZL         0.0542
     14 H2         31.9830   27.3432   12.7477 H         1 GZL         0.0865
     15 H3         34.3784   25.3047   15.6596 H         1 GZL         0.2304
     16 H4         34.3654   24.8621   13.7052 H         1 GZL         0.2417
     17 H5         33.6353   30.1846   14.3858 H         1 GZL         0.2341
     18 H6         34.4942   29.0031   10.2215 H         1 GZL         0.1025
     19 H7         33.1732   31.5451   12.4354 H         1 GZL         0.2347
     20 H8         32.6276   28.2596    9.0400 H         1 GZL         0.2148
@<TRIPOS>BOND
     1    1    2 2  
     2    1    6 1  
     3    2    3 1  
     4    2    7 1  
     5    3    4 1  
     6    3    8 1  
     7    4    5 2  
     8    4    9 1  
     9    5   10 1  
    10    5   11 1  
    11    8   10 1  
    12   10   12 1  
    13    1   13 1  
    14    3   14 1  
    15    6   15 1  
    16    7   16 1  
    17    9   17 1  
    18   10   18 1  
    19   11   19 1  
    20   12   20 1  
@<TRIPOS>SUBSTRUCTURE
     1 GZL         1

