### 
### Created by X-TOOL on Mon Sep 10 21:12:57 2018
### 

@<TRIPOS>MOLECULE
2vk6_ligand
   36    36     1     0     0
SMALL
GAST_HUCK


@<TRIPOS>ATOM
      1 C1          0.8010   36.7770   19.9120 C.2       1 DAN         0.0809
      2 C2          1.7000   35.6550   20.1620 C.2       1 DAN         0.1088
      3 C3          1.2860   34.4930   20.7460 C.2       1 DAN        -0.0276
      4 C4          2.2710   33.3480   20.8140 C.3       1 DAN         0.1003
      5 C5          3.6840   33.9360   20.8820 C.3       1 DAN         0.1064
      6 C6          3.8980   34.7730   19.6310 C.3       1 DAN         0.1321
      7 C7          5.2710   35.4510   19.5640 C.3       1 DAN         0.1154
      8 C8          5.3990   36.4000   18.3420 C.3       1 DAN         0.1068
      9 C9          6.8440   36.8460   18.3090 C.3       1 DAN         0.0727
     10 C10         5.8220   32.9000   21.5750 C.2       1 DAN         0.1734
     11 C11         6.7030   31.6670   21.5320 C.3       1 DAN         0.0257
     12 N5          4.6450   32.8460   20.8920 N.am      1 DAN        -0.2770
     13 O1A         1.1520   37.6470   19.0160 O.co2     1 DAN        -0.5623
     14 O1B        -0.2840   36.8200   20.4590 O.co2     1 DAN        -0.5623
     15 O4          2.0070   32.4330   21.9010 O.3       1 DAN        -0.3807
     16 O6          2.9420   35.8290   19.5650 O.3       1 DAN        -0.3189
     17 O7          5.4900   36.2340   20.7610 O.3       1 DAN        -0.3861
     18 O8          5.0980   35.6760   17.1410 O.3       1 DAN        -0.3869
     19 O9          7.0740   37.7710   17.1870 O.3       1 DAN        -0.3924
     20 O10         6.1890   33.9130   22.2390 O.2       1 DAN        -0.3974
     21 H1          0.2794   34.3938   21.1497 H         1 DAN         0.0480
     22 H2          2.1853   32.7733   19.8800 H         1 DAN         0.0740
     23 H3          3.8009   34.5550   21.7837 H         1 DAN         0.0632
     24 H4          3.7820   34.1145   18.7575 H         1 DAN         0.0697
     25 H5          6.0430   34.6708   19.4916 H         1 DAN         0.0650
     26 H6          4.7246   37.2630   18.4441 H         1 DAN         0.0643
     27 H7          7.4919   35.9650   18.1901 H         1 DAN         0.0584
     28 H8          7.0871   37.3552   19.2532 H         1 DAN         0.0584
     29 H9          7.6144   31.8469   22.1210 H         1 DAN         0.0467
     30 H10         6.9774   31.4486   20.4894 H         1 DAN         0.0467
     31 H11         6.1565   30.8109   21.9544 H         1 DAN         0.0467
     32 H12         4.4322   32.0179   20.3733 H         1 DAN         0.1858
     33 H13         2.6278   31.7148   21.8667 H         1 DAN         0.2127
     34 H14         4.8387   36.9238   20.8104 H         1 DAN         0.2100
     35 H15         5.2403   36.2390   16.3891 H         1 DAN         0.2100
     36 H16         6.8673   37.3332   16.3696 H         1 DAN         0.2095
@<TRIPOS>BOND
     1    2    1 1  
     2    1   13 ar 
     3    1   14 ar 
     4    3    2 2  
     5   16    2 1  
     6    4    3 1  
     7    5    4 1  
     8    4   15 1  
     9    5    6 1  
    10   12    5 1  
    11    6    7 1  
    12    6   16 1  
    13    7    8 1  
    14    7   17 1  
    15    8    9 1  
    16    8   18 1  
    17    9   19 1  
    18   10   11 1  
    19   10   12 am 
    20   10   20 2  
    21    3   21 1  
    22    4   22 1  
    23    5   23 1  
    24    6   24 1  
    25    7   25 1  
    26    8   26 1  
    27    9   27 1  
    28    9   28 1  
    29   11   29 1  
    30   11   30 1  
    31   11   31 1  
    32   12   32 1  
    33   15   33 1  
    34   17   34 1  
    35   18   35 1  
    36   19   36 1  
@<TRIPOS>SUBSTRUCTURE
     1 DAN         1

