### 
### Created by X-TOOL on Mon Sep 10 21:12:57 2018
### 

@<TRIPOS>MOLECULE
2vl4_ligand
   25    25     1     0     0
SMALL
GAST_HUCK


@<TRIPOS>ATOM
      1 C1         27.9420   47.1990    0.2660 C.3       1 MNM         0.1497
      2 C2         27.3400   45.8880   -0.2660 C.3       1 MNM         0.1091
      3 C3         27.6210   48.3830   -0.6710 C.3       1 MNM         0.0986
      4 O4         29.3650   47.0810    0.4150 O.3       1 MNM        -0.3811
      5 O5         27.9690   44.7130    0.2310 O.3       1 MNM        -0.3504
      6 N6         27.4450   45.7790   -1.7160 N.4       1 MNM         0.2513
      7 O7         27.3180   49.5580    0.0990 O.3       1 MNM        -0.3884
      8 C8         26.5030   48.0750   -1.7060 C.3       1 MNM         0.0509
      9 C9         26.1150   49.3000   -2.5750 C.3       1 MNM         0.0543
     10 C10        26.9730   46.8880   -2.5590 C.3       1 MNM        -0.0236
     11 O11        27.2120   49.7050   -3.3890 O.3       1 MNM        -0.3945
     12 H1         27.5015   47.4050    1.2527 H         1 MNM         0.0704
     13 H2         26.2787   45.8725    0.0229 H         1 MNM         0.1211
     14 H3         28.5347   48.5937   -1.2462 H         1 MNM         0.0627
     15 H4         29.5625   46.3524    0.9916 H         1 MNM         0.2103
     16 H5         27.5138   43.9475   -0.0996 H         1 MNM         0.2155
     17 H6         26.9228   44.9608   -1.9876 H         1 MNM         0.2042
     18 H7         28.4203   45.6417   -1.9304 H         1 MNM         0.2042
     19 H8         27.1225   50.2785   -0.4885 H         1 MNM         0.2099
     20 H9         25.6020   47.7690   -1.1541 H         1 MNM         0.0401
     21 H10        25.8261   50.1330   -1.9172 H         1 MNM         0.0562
     22 H11        25.2659   49.0310   -3.2205 H         1 MNM         0.0562
     23 H12        26.1339   46.5364   -3.1773 H         1 MNM         0.0819
     24 H13        27.7954   47.2182   -3.2106 H         1 MNM         0.0819
     25 H14        27.9464   49.9406   -2.8344 H         1 MNM         0.2094
@<TRIPOS>BOND
     1    1    2 1  
     2    1    3 1  
     3    1    4 1  
     4    2    5 1  
     5    2    6 1  
     6    3    7 1  
     7    3    8 1  
     8    6   10 1  
     9    8    9 1  
    10    8   10 1  
    11    9   11 1  
    12    1   12 1  
    13    2   13 1  
    14    3   14 1  
    15    4   15 1  
    16    5   16 1  
    17    6   17 1  
    18    6   18 1  
    19    7   19 1  
    20    8   20 1  
    21    9   21 1  
    22    9   22 1  
    23   10   23 1  
    24   10   24 1  
    25   11   25 1  
@<TRIPOS>SUBSTRUCTURE
     1 MNM         1

