### 
### Created by X-TOOL on Mon Sep 10 21:12:58 2018
### 

@<TRIPOS>MOLECULE
2vle_ligand
   50    53     1     0     0
SMALL
GAST_HUCK


@<TRIPOS>ATOM
      1 O6         93.4260   20.3050   65.3170 O.3       1 DZN        -0.3924
      2 C6         94.2760   21.2430   65.9380 C.3       1 DZN         0.0730
      3 C5         95.5790   20.5310   66.3760 C.3       1 DZN         0.1134
      4 O5         95.4230   19.1190   66.4750 O.3       1 DZN        -0.3367
      5 C4         96.7400   20.9650   65.4690 C.3       1 DZN         0.1119
      6 O4         96.9520   22.4030   65.6240 O.3       1 DZN        -0.3865
      7 C3         97.9970   20.0700   65.7100 C.3       1 DZN         0.1145
      8 O3         98.8340   20.0430   64.5610 O.3       1 DZN        -0.3864
      9 C2         97.7320   18.5890   66.0930 C.3       1 DZN         0.1387
     10 O2         98.9060   18.0640   66.7410 O.3       1 DZN        -0.3837
     11 C1         96.5190   18.4550   67.0590 C.3       1 DZN         0.2104
     12 O1         96.2380   17.0600   67.3200 O.3       1 DZN        -0.2839
     13 C18        95.1490   16.5430   68.0420 C.ar      1 DZN         0.0938
     14 C19        94.9790   15.1600   67.9770 C.ar      1 DZN        -0.0353
     15 C20        93.9520   14.5130   68.6460 C.ar      1 DZN        -0.0574
     16 C21        93.0540   15.2520   69.3980 C.ar      1 DZN         0.0525
     17 C22        93.1940   16.7260   69.4760 C.ar      1 DZN         0.1412
     18 C23        94.2580   17.3310   68.7840 C.ar      1 DZN         0.0095
     19 O24        92.2750   17.4290   70.2340 O.3       1 DZN        -0.2371
     20 C25        91.1750   16.7830   70.9360 C.2       1 DZN         0.1190
     21 C26        90.9720   15.3910   70.9000 C.2       1 DZN         0.0500
     22 C27        91.9400   14.5700   70.1100 C.2       1 DZN         0.1193
     23 O35        91.8520   13.3260   70.0140 O.2       1 DZN        -0.4123
     24 C28        89.8380   14.7300   71.6290 C.ar      1 DZN        -0.0378
     25 C29        88.9450   15.4930   72.3690 C.ar      1 DZN        -0.0702
     26 C30        87.8850   14.9000   73.0450 C.ar      1 DZN        -0.0379
     27 C31        87.7080   13.5280   73.0080 C.ar      1 DZN         0.0833
     28 O34        86.6690   12.9630   73.6840 O.3       1 DZN        -0.3358
     29 C32        88.5940   12.7460   72.2740 C.ar      1 DZN        -0.0379
     30 C33        89.6480   13.3450   71.5940 C.ar      1 DZN        -0.0702
     31 H1         93.2207   19.6100   65.9313 H         1 DZN         0.2095
     32 H2         93.7741   21.6683   66.8196 H         1 DZN         0.0584
     33 H3         94.5167   22.0486   65.2288 H         1 DZN         0.0584
     34 H4         95.8166   20.8870   67.3893 H         1 DZN         0.0647
     35 H5         96.4327   20.7982   64.4261 H         1 DZN         0.0647
     36 H6         97.1632   22.5950   66.5301 H         1 DZN         0.2100
     37 H7         98.5549   20.5301   66.5389 H         1 DZN         0.0648
     38 H8         99.5892   19.4932   64.7336 H         1 DZN         0.2100
     39 H9         97.5267   18.0129   65.1787 H         1 DZN         0.0675
     40 H10        98.7554   17.1571   66.9803 H         1 DZN         0.2101
     41 H11        96.7616   18.9438   68.0141 H         1 DZN         0.0995
     42 H12        95.6717   14.5730   67.3848 H         1 DZN         0.0490
     43 H13        93.8523   13.4355   68.5811 H         1 DZN         0.0619
     44 H14        94.3893   18.4063   68.8242 H         1 DZN         0.0494
     45 H15        90.4844   17.3994   71.5096 H         1 DZN         0.1312
     46 H16        89.0764   16.5678   72.4205 H         1 DZN         0.0543
     47 H17        87.1918   15.5169   73.6054 H         1 DZN         0.0533
     48 H18        85.8500   13.3124   73.3531 H         1 DZN         0.2470
     49 H19        88.4626   11.6708   72.2324 H         1 DZN         0.0533
     50 H20        90.3349   12.7276   71.0265 H         1 DZN         0.0543
@<TRIPOS>BOND
     1    1    2 1  
     2    2    3 1  
     3    3    4 1  
     4    3    5 1  
     5    4   11 1  
     6    5    6 1  
     7    5    7 1  
     8    7    8 1  
     9    7    9 1  
    10    9   10 1  
    11    9   11 1  
    12   11   12 1  
    13   12   13 1  
    14   13   14 ar 
    15   13   18 ar 
    16   14   15 ar 
    17   15   16 ar 
    18   16   17 ar 
    19   16   22 1  
    20   17   18 ar 
    21   17   19 1  
    22   19   20 1  
    23   20   21 2  
    24   21   22 1  
    25   21   24 1  
    26   22   23 2  
    27   24   25 ar 
    28   24   30 ar 
    29   25   26 ar 
    30   26   27 ar 
    31   27   28 1  
    32   27   29 ar 
    33   29   30 ar 
    34    1   31 1  
    35    2   32 1  
    36    2   33 1  
    37    3   34 1  
    38    5   35 1  
    39    6   36 1  
    40    7   37 1  
    41    8   38 1  
    42    9   39 1  
    43   10   40 1  
    44   11   41 1  
    45   14   42 1  
    46   15   43 1  
    47   18   44 1  
    48   20   45 1  
    49   25   46 1  
    50   26   47 1  
    51   28   48 1  
    52   29   49 1  
    53   30   50 1  
@<TRIPOS>SUBSTRUCTURE
     1 DZN         1

