### 
### Created by X-TOOL on Tue Oct 16 15:17:24 2018
### 

@<TRIPOS>MOLECULE
2vmc_ligand
   30    30     1     0     0
SMALL
GAST_HUCK


@<TRIPOS>ATOM
      1 C1         11.1170   10.2320  122.9420 C.3       1 NGA         0.1823
      2 O1         12.1550    9.7630  123.8070 O.3       1 NGA        -0.3651
      3 C2         11.3170    9.6660  121.5380 C.3       1 NGA         0.1208
      4 C3         10.1750   10.1330  120.6020 C.3       1 NGA         0.1110
      5 C4          8.8000    9.8220  121.2070 C.3       1 NGA         0.1116
      6 C5          8.7690   10.3350  122.6620 C.3       1 NGA         0.1130
      7 C6          7.4520   10.0070  123.3540 C.3       1 NGA         0.0730
      8 C7         13.7080    9.3390  121.1950 C.2       1 NGA         0.1733
      9 C8         14.9660    9.9080  120.5910 C.3       1 NGA         0.0257
     10 N2         12.6050   10.0740  120.9860 N.am      1 NGA        -0.2766
     11 O3         10.2690    9.5750  119.2780 O.3       1 NGA        -0.3867
     12 O4          8.5320    8.4190  121.1580 O.3       1 NGA        -0.3865
     13 O5          9.8490    9.8330  123.4620 O.3       1 NGA        -0.3410
     14 O6          7.4320   10.7420  124.5960 O.3       1 NGA        -0.3924
     15 O7         13.6820    8.2830  121.8350 O.2       1 NGA        -0.3974
     16 H1         11.1559   11.3302  122.8938 H         1 NGA         0.0932
     17 H2         12.0359   10.1345  124.6731 H         1 NGA         0.2126
     18 H3         11.2952    8.5680  121.5996 H         1 NGA         0.0633
     19 H4         10.2600   11.2254  120.5055 H         1 NGA         0.0645
     20 H5          8.0269   10.3469  120.6266 H         1 NGA         0.0647
     21 H6          8.8657   11.4299  122.6200 H         1 NGA         0.0647
     22 H7          7.3890    8.9271  123.5534 H         1 NGA         0.0584
     23 H8          6.6063   10.3129  122.7207 H         1 NGA         0.0584
     24 H9         15.8129    9.2418  120.8124 H         1 NGA         0.0467
     25 H10        15.1606   10.9027  121.0184 H         1 NGA         0.0467
     26 H11        14.8429    9.9947  119.5014 H         1 NGA         0.0467
     27 H12        12.6663   10.9126  120.4447 H         1 NGA         0.1857
     28 H13         9.5926    9.9522  118.7278 H         1 NGA         0.2100
     29 H14         8.5559    8.1245  120.2552 H         1 NGA         0.2100
     30 H15         6.6212   10.5610  125.0568 H         1 NGA         0.2095
@<TRIPOS>BOND
     1    1    2 1  
     2    3    1 1  
     3    1   13 1  
     4    3    4 1  
     5   10    3 1  
     6    4    5 1  
     7    4   11 1  
     8    5    6 1  
     9    5   12 1  
    10    6    7 1  
    11   13    6 1  
    12    7   14 1  
    13    8    9 1  
    14    8   10 am 
    15    8   15 2  
    16    1   16 1  
    17    2   17 1  
    18    3   18 1  
    19    4   19 1  
    20    5   20 1  
    21    6   21 1  
    22    7   22 1  
    23    7   23 1  
    24    9   24 1  
    25    9   25 1  
    26    9   26 1  
    27   10   27 1  
    28   11   28 1  
    29   12   29 1  
    30   14   30 1  
@<TRIPOS>SUBSTRUCTURE
     1 NGA         1

