### 
### Created by X-TOOL on Mon Sep 10 21:12:57 2018
### 

@<TRIPOS>MOLECULE
2vmd_ligand
   27    27     1     0     0
SMALL
GAST_HUCK


@<TRIPOS>ATOM
      1 C1          3.3110   14.6140    7.8260 C.3       1 MBG         0.1876
      2 C2          2.6900   14.4450    9.2290 C.3       1 MBG         0.1341
      3 C3          3.6770   13.7030   10.1200 C.3       1 MBG         0.1141
      4 C4          4.0870   12.3720    9.4750 C.3       1 MBG         0.1119
      5 C5          4.5740   12.6390    8.0420 C.3       1 MBG         0.1130
      6 C6          4.9420   11.3410    7.3350 C.3       1 MBG         0.0730
      7 C7          1.0980   15.3950    7.2860 C.3       1 MBG         0.0395
      8 O1          2.5080   15.4000    6.9170 O.3       1 MBG        -0.3520
      9 O2          2.3660   15.6820    9.8740 O.3       1 MBG        -0.3841
     10 O3          3.1090   13.5360   11.4290 O.3       1 MBG        -0.3864
     11 O4          2.9640   11.4730    9.4590 O.3       1 MBG        -0.3865
     12 O5          3.5610   13.2900    7.2690 O.3       1 MBG        -0.3405
     13 O6          5.6630   11.6480    6.1320 O.3       1 MBG        -0.3924
     14 H1          4.2747   15.1307    7.9450 H         1 MBG         0.0937
     15 H2          1.7687   13.8524    9.1287 H         1 MBG         0.0671
     16 H3          4.5830   14.3186   10.2210 H         1 MBG         0.0648
     17 H4          4.9029   11.9197   10.0579 H         1 MBG         0.0647
     18 H5          5.4620   13.2864    8.0904 H         1 MBG         0.0647
     19 H6          4.0260   10.7862    7.0837 H         1 MBG         0.0584
     20 H7          5.5725   10.7279    7.9957 H         1 MBG         0.0584
     21 H8          0.5290   16.0040    6.5681 H         1 MBG         0.0525
     22 H9          0.9818   15.8149    8.2960 H         1 MBG         0.0525
     23 H10         0.7190   14.3624    7.2723 H         1 MBG         0.0525
     24 H11         1.9766   15.5032   10.7220 H         1 MBG         0.2101
     25 H12         3.7459   13.1210   11.9987 H         1 MBG         0.2100
     26 H13         2.6727   11.3161   10.3495 H         1 MBG         0.2100
     27 H14         6.4531   12.1277    6.3514 H         1 MBG         0.2095
@<TRIPOS>BOND
     1    1    2 1  
     2    1    8 1  
     3    1   12 1  
     4    2    3 1  
     5    2    9 1  
     6    3    4 1  
     7    3   10 1  
     8    4    5 1  
     9    4   11 1  
    10    5    6 1  
    11    5   12 1  
    12    6   13 1  
    13    8    7 1  
    14    1   14 1  
    15    2   15 1  
    16    3   16 1  
    17    4   17 1  
    18    5   18 1  
    19    6   19 1  
    20    6   20 1  
    21    7   21 1  
    22    7   22 1  
    23    7   23 1  
    24    9   24 1  
    25   10   25 1  
    26   11   26 1  
    27   13   27 1  
@<TRIPOS>SUBSTRUCTURE
     1 MBG         1

