### 
### Created by X-TOOL on Mon Sep 10 21:12:57 2018
### 

@<TRIPOS>MOLECULE
2vmf_ligand
   26    27     1     0     0
SMALL
GAST_HUCK


@<TRIPOS>ATOM
      1 C1         27.3100   45.7400   -1.8390 C.2       1 MVL         0.1465
      2 N10        26.8680   46.8430   -2.4160 N.pl3     1 MVL        -0.2404
      3 C3         27.7980   46.8180    0.3060 C.3       1 MVL         0.1253
      4 C4         27.5200   48.1230   -0.4960 C.3       1 MVL         0.1183
      5 C5         26.4450   47.9680   -1.5690 C.3       1 MVL         0.1196
      6 C6         26.1240   49.2410   -2.3540 C.3       1 MVL         0.0773
      7 C7         27.6120   45.5840   -4.0000 C.2       1 MVL        -0.0364
      8 C8         27.1560   46.8310   -3.7520 C.2       1 MVL         0.0285
      9 N1         27.7460   44.9390   -2.8210 N.2       1 MVL        -0.3367
     10 O3         29.2060   46.6590    0.4770 O.3       1 MVL        -0.3839
     11 O2         27.9790   44.3630    0.0130 O.3       1 MVL        -0.3699
     12 O4         27.1230   49.2020    0.3640 O.3       1 MVL        -0.3858
     13 C2         27.2640   45.5360   -0.3630 C.3       1 MVL         0.1586
     14 O6         27.1890   49.5940   -3.2240 O.3       1 MVL        -0.3918
     15 H1         27.3207   46.9177    1.2920 H         1 MVL         0.0675
     16 H2         28.4593   48.4043   -0.9945 H         1 MVL         0.0654
     17 H3         25.5120   47.6773   -1.0640 H         1 MVL         0.0704
     18 H4         25.9522   50.0648   -1.6457 H         1 MVL         0.0589
     19 H5         25.2148   49.0744   -2.9502 H         1 MVL         0.0589
     20 H6         27.8336   45.1697   -4.9824 H         1 MVL         0.0408
     21 H7         27.0425   47.6489   -4.4621 H         1 MVL         0.0796
     22 H8         29.3765   45.8628    0.9664 H         1 MVL         0.2103
     23 H9         27.6050   43.6101   -0.4294 H         1 MVL         0.2138
     24 H10        27.0459   49.9998   -0.1458 H         1 MVL         0.2100
     25 H11        26.2161   45.3992   -0.0580 H         1 MVL         0.0858
     26 H12        27.9766   49.7435   -2.7142 H         1 MVL         0.2095
@<TRIPOS>BOND
     1    1    2 1  
     2    1    9 2  
     3   13    1 1  
     4    2    5 1  
     5    2    8 1  
     6    3    4 1  
     7    3   10 1  
     8    3   13 1  
     9    4    5 1  
    10    4   12 1  
    11    5    6 1  
    12    6   14 1  
    13    8    7 2  
    14    7    9 1  
    15   13   11 1  
    16    3   15 1  
    17    4   16 1  
    18    5   17 1  
    19    6   18 1  
    20    6   19 1  
    21    7   20 1  
    22    8   21 1  
    23   10   22 1  
    24   11   23 1  
    25   12   24 1  
    26   13   25 1  
    27   14   26 1  
@<TRIPOS>SUBSTRUCTURE
     1 MVL         1

