### 
### Created by X-TOOL on Mon Sep 10 21:12:57 2018
### 

@<TRIPOS>MOLECULE
2vnf_ligand
   52    51     1     0     0
SMALL
GAST_HUCK


@<TRIPOS>ATOM
      1 N          -2.7400  -16.7790   15.5900 N.4       1 ALA         0.2377
      2 CA         -2.3720  -16.7760   14.1400 C.3       1 ALA         0.0621
      3 C          -1.9840  -18.1580   13.6070 C.2       1 ALA         0.2264
      4 O          -1.5400  -19.0460   14.3580 O.2       1 ALA        -0.3907
      5 CB         -1.2720  -15.7460   13.8650 C.3       1 ALA        -0.0040
      6 N          -2.1720  -18.3650   12.3150 N.am      1 ARG        -0.2610
      7 CA         -1.8100  -19.6410   11.7230 C.3       1 ARG         0.1312
      8 C          -0.3780  -19.6010   11.2080 C.2       1 ARG         0.2040
      9 O          -0.0160  -18.7210   10.4100 O.2       1 ARG        -0.3944
     10 CB         -2.7640  -19.9760   10.5720 C.3       1 ARG        -0.0092
     11 CG         -4.2100  -20.0640   11.0490 C.3       1 ARG        -0.0156
     12 CD         -5.1590  -20.1790    9.8840 C.3       1 ARG         0.0627
     13 NE         -5.1170  -18.9470    9.1030 N.pl3     1 ARG        -0.2723
     14 CZ         -4.5450  -18.8560    7.9010 C.cat     1 ARG         0.2882
     15 NH1        -3.9710  -19.9150    7.3370 N.pl3     1 ARG        -0.2849
     16 NH2        -4.5490  -17.6920    7.2710 N.pl3     1 ARG        -0.2849
     17 N           0.4360  -20.5580   11.6630 N.am      1 THR        -0.2602
     18 CA          1.8340  -20.5740   11.2730 C.3       1 THR         0.1677
     19 C           2.2260  -22.0010   10.9350 C.2       1 THR         0.2597
     20 O           1.5410  -22.9550   11.3320 O.2       1 THR        -0.3679
     21 CB          2.7190  -20.0590   12.4110 C.3       1 THR         0.0937
     22 OG1         2.6990  -21.0120   13.4860 O.3       1 THR        -0.3873
     23 CG2         2.1840  -18.7030   12.9080 C.3       1 THR        -0.0344
     24 O1          3.3146  -22.2300   10.2061 O.3       1 THR        -0.2909
     25 H1         -2.9837  -15.8439   15.8767 H         1 ALA         0.2015
     26 H2         -1.9567  -17.1040   16.1348 H         1 ALA         0.2015
     27 H3         -3.5276  -17.3910   15.7355 H         1 ALA         0.2015
     28 H4         -3.2659  -16.4592   13.5828 H         1 ALA         0.1095
     29 H5         -1.0162  -15.7595   12.7952 H         1 ALA         0.0310
     30 H6         -0.3799  -15.9949   14.4584 H         1 ALA         0.0310
     31 H7         -1.6300  -14.7439   14.1438 H         1 ALA         0.0310
     32 H8         -2.5636  -17.6427   11.7449 H         1 ARG         0.1884
     33 H9         -1.8896  -20.4236   12.4919 H         1 ARG         0.0800
     34 H10        -2.4723  -20.9431   10.1365 H         1 ARG         0.0313
     35 H11        -2.6882  -19.1908    9.8054 H         1 ARG         0.0313
     36 H12        -4.4546  -19.1585   11.6236 H         1 ARG         0.0301
     37 H13        -4.3228  -20.9486   11.6930 H         1 ARG         0.0301
     38 H14        -6.1807  -20.3425   10.2573 H         1 ARG         0.0689
     39 H15        -4.8605  -21.0264    9.2494 H         1 ARG         0.0689
     40 H16        -5.5522  -18.1025    9.5009 H         1 ARG         0.2642
     41 H17        -3.5332  -19.8301    6.4085 H         1 ARG         0.2615
     42 H18        -3.9643  -20.8200    7.8287 H         1 ARG         0.2615
     43 H19        -4.9934  -16.8717    7.7075 H         1 ARG         0.2615
     44 H20        -4.1077  -17.6065    6.3443 H         1 ARG         0.2615
     45 H21         0.0809  -21.2654   12.2741 H         1 THR         0.1885
     46 H22         1.9730  -19.9341   10.3892 H         1 THR         0.0843
     47 H23         3.7501  -19.9347   12.0486 H         1 THR         0.0641
     48 H24         3.0298  -21.8462   13.1743 H         1 THR         0.2101
     49 H25         2.8212  -18.3348   13.7255 H         1 THR         0.0257
     50 H26         1.1539  -18.8269   13.2734 H         1 THR         0.0257
     51 H27         2.1948  -17.9788   12.0801 H         1 THR         0.0257
     52 H28         3.7247  -21.4027    9.9828 H         1 THR         0.2540
@<TRIPOS>BOND
     1    2    1 1  
     2    2    5 1  
     3    3    2 1  
     4    3    4 2  
     5    7    6 1  
     6    7   10 1  
     7    8    7 1  
     8    8    9 2  
     9   10   11 1  
    10   11   12 1  
    11   12   13 1  
    12   13   14 ar 
    13   14   16 ar 
    14   14   15 ar 
    15    6    3 am 
    16   17   18 1  
    17   18   21 1  
    18   18   19 1  
    19   19   20 2  
    20   21   23 1  
    21   21   22 1  
    22    8   17 am 
    23   19   24 1  
    24    1   25 1  
    25    1   26 1  
    26    1   27 1  
    27    2   28 1  
    28    5   29 1  
    29    5   30 1  
    30    5   31 1  
    31    6   32 1  
    32    7   33 1  
    33   10   34 1  
    34   10   35 1  
    35   11   36 1  
    36   11   37 1  
    37   12   38 1  
    38   12   39 1  
    39   13   40 1  
    40   15   41 1  
    41   15   42 1  
    42   16   43 1  
    43   16   44 1  
    44   17   45 1  
    45   18   46 1  
    46   21   47 1  
    47   22   48 1  
    48   23   49 1  
    49   23   50 1  
    50   23   51 1  
    51   24   52 1  
@<TRIPOS>SUBSTRUCTURE
     1 ALA         1

