### 
### Created by X-TOOL on Mon Sep 10 21:12:57 2018
### 

@<TRIPOS>MOLECULE
2vnm_ligand
   81    84     1     0     0
SMALL
GAST_HUCK


@<TRIPOS>ATOM
      1 C02        27.5940   -3.7460   34.1580 C.3       1 CM8        -0.0457
      2 C01        29.0930   -3.7890   34.1330 C.3       1 CM8         0.0206
      3 C06        33.8450   -2.2450   40.1660 C.3       1 CM8        -0.0293
      4 C07        32.3550   -2.7130   40.3140 C.3       1 CM8         0.0902
      5 S08        31.2970   -1.2030   40.0730 S.o2      1 CM8         0.0621
      6 O10        31.5210   -0.3330   41.2100 O.2       1 CM8        -0.1497
      7 O09        29.9080   -1.6170   39.9730 O.2       1 CM8        -0.1497
      8 N11        31.7580   -0.4480   38.7880 N.am      1 CM8        -0.1805
      9 C12        33.2070   -0.1180   38.7200 C.3       1 CM8         0.0553
     10 C13        31.1040   -0.7520   37.5360 C.ar      1 CM8         0.0587
     11 C14        30.9570    0.3880   36.6520 C.ar      1 CM8        -0.0386
     12 C15        30.3550    0.2100   35.3790 C.ar      1 CM8         0.0233
     13 C16        29.9020   -1.0700   34.9410 C.ar      1 CM8        -0.0420
     14 C17        30.0920   -2.2120   35.8170 C.ar      1 CM8         0.0264
     15 C18        30.7130   -2.0430   37.1350 C.ar      1 CM8        -0.0254
     16 C19        30.1590    1.4160   34.4960 C.2       1 CM8         0.1987
     17 O20        31.0480    2.1890   34.2710 O.2       1 CM8        -0.3847
     18 N21        28.9100    1.4440   33.7650 N.am      1 CM8        -0.2788
     19 C22        28.7090    2.4070   32.6750 C.3       1 CM8         0.0818
     20 C23        28.0620    1.6300   31.5080 C.3       1 CM8         0.0065
     21 C24        28.7830    0.2860   31.2290 C.ar      1 CM8        -0.0408
     22 C29        30.2370    0.2220   31.1100 C.ar      1 CM8        -0.0603
     23 C28        30.8960   -1.0350   30.8630 C.ar      1 CM8        -0.0686
     24 C27        30.0670   -2.2180   30.7060 C.ar      1 CM8        -0.0687
     25 C26        28.6330   -2.1640   30.8210 C.ar      1 CM8        -0.0686
     26 C25        27.9540   -0.9060   31.0760 C.ar      1 CM8        -0.0603
     27 C30        27.7450    3.5220   33.1810 C.3       1 CM8         0.1192
     28 O31        27.4050    4.3810   32.0630 O.3       1 CM8        -0.3841
     29 C32        28.5220    4.4310   34.1680 C.3       1 CM8        -0.0033
     30 N33        27.6380    5.5780   34.5200 N.4       1 CM8         0.2413
     31 C34        28.4170    6.6630   35.1540 C.3       1 CM8         0.0066
     32 C35        29.4250    7.2870   34.1560 C.ar      1 CM8         0.0303
     33 C36        30.8230    7.3540   34.5250 C.ar      1 CM8        -0.0265
     34 C37        31.7980    7.9330   33.6260 C.ar      1 CM8        -0.0376
     35 C38        31.3850    8.4430   32.3470 C.ar      1 CM8        -0.0377
     36 C39        29.9870    8.3600   31.9800 C.ar      1 CM8         0.0411
     37 C31        34.0590   -1.4330   38.8260 C.3       1 CM8        -0.0283
     38 C40        29.0030    7.7940   32.8750 C.ar      1 CM8        -0.0257
     39 C41        29.5480    8.9010   30.6400 C.3       1 CM8         0.3750
     40 F44        30.5910    9.4780   29.9790 F         1 CM8        -0.2204
     41 F43        29.0130    7.9130   29.8910 F         1 CM8        -0.2204
     42 N03        29.6870   -3.5480   35.4140 N.pl3     1 CM8        -0.3257
     43 F42        28.6240    9.8490   30.8620 F         1 CM8        -0.2204
     44 H1         27.2048   -3.9382   33.1473 H         1 CM8         0.0249
     45 H2         27.2612   -2.7537   34.4965 H         1 CM8         0.0249
     46 H3         27.2166   -4.5146   34.8485 H         1 CM8         0.0249
     47 H4         29.4529   -3.0222   33.4312 H         1 CM8         0.0508
     48 H5         29.4082   -4.7831   33.7832 H         1 CM8         0.0508
     49 H6         34.4997   -3.1289   40.1583 H         1 CM8         0.0282
     50 H7         34.1059   -1.6029   41.0201 H         1 CM8         0.0282
     51 H8         32.1882   -3.1374   41.3150 H         1 CM8         0.0524
     52 H9         32.1170   -3.4688   39.5510 H         1 CM8         0.0524
     53 H10        33.4677    0.5537   39.5511 H         1 CM8         0.0554
     54 H11        33.4232    0.3808   37.7637 H         1 CM8         0.0554
     55 H12        31.3038    1.3675   36.9607 H         1 CM8         0.0428
     56 H13        29.4259   -1.1874   33.9743 H         1 CM8         0.0427
     57 H14        30.8676   -2.8952   37.7869 H         1 CM8         0.0404
     58 H15        28.1798    0.8038   34.0037 H         1 CM8         0.1851
     59 H16        29.6663    2.8477   32.3597 H         1 CM8         0.0606
     60 H17        28.1065    2.2509   30.6011 H         1 CM8         0.0449
     61 H18        27.0114    1.4229   31.7595 H         1 CM8         0.0449
     62 H19        30.8250    1.1273   31.2083 H         1 CM8         0.0557
     63 H20        31.9762   -1.0964   30.7964 H         1 CM8         0.0599
     64 H21        30.5424   -3.1693   30.4961 H         1 CM8         0.0559
     65 H22        28.0529   -3.0737   30.7159 H         1 CM8         0.0599
     66 H23        26.8738   -0.8540   31.1499 H         1 CM8         0.0557
     67 H24        26.8486    3.0873   33.6473 H         1 CM8         0.0672
     68 H25        26.9792    3.8662   31.3876 H         1 CM8         0.2101
     69 H26        29.4425    4.7999   33.6920 H         1 CM8         0.0840
     70 H27        28.7798    3.8647   35.0751 H         1 CM8         0.0840
     71 H28        26.9269    5.2631   35.1612 H         1 CM8         0.2029
     72 H29        27.2026    5.9297   33.6816 H         1 CM8         0.2029
     73 H30        28.9693    6.2535   36.0127 H         1 CM8         0.0985
     74 H31        27.7258    7.4449   35.5017 H         1 CM8         0.0985
     75 H32        31.1431    6.9662   35.4853 H         1 CM8         0.0805
     76 H33        32.8410    7.9822   33.9173 H         1 CM8         0.0683
     77 H34        32.1079    8.8822   31.6690 H         1 CM8         0.0802
     78 H35        33.7907   -2.0854   37.9820 H         1 CM8         0.0287
     79 H36        35.1223   -1.1604   38.7552 H         1 CM8         0.0287
     80 H37        27.9592    7.7515   32.5856 H         1 CM8         0.0782
     81 H38        29.8297   -4.3363   36.0614 H         1 CM8         0.1751
@<TRIPOS>BOND
     1    2    1 1  
     2   42    2 1  
     3    4    3 1  
     4   37    3 1  
     5    5    4 1  
     6    5    6 2  
     7    5    7 2  
     8    8    5 am 
     9    8    9 1  
    10   10    8 1  
    11    9   37 1  
    12   10   11 ar 
    13   15   10 ar 
    14   12   11 ar 
    15   13   12 ar 
    16   12   16 1  
    17   14   13 ar 
    18   14   15 ar 
    19   14   42 1  
    20   16   17 2  
    21   16   18 am 
    22   18   19 1  
    23   19   20 1  
    24   19   27 1  
    25   20   21 1  
    26   21   22 ar 
    27   21   26 ar 
    28   22   23 ar 
    29   23   24 ar 
    30   24   25 ar 
    31   25   26 ar 
    32   27   28 1  
    33   27   29 1  
    34   29   30 1  
    35   30   31 1  
    36   31   32 1  
    37   32   33 ar 
    38   32   38 ar 
    39   33   34 ar 
    40   34   35 ar 
    41   35   36 ar 
    42   36   38 ar 
    43   36   39 1  
    44   39   40 1  
    45   39   41 1  
    46   39   43 1  
    47    1   44 1  
    48    1   45 1  
    49    1   46 1  
    50    2   47 1  
    51    2   48 1  
    52    3   49 1  
    53    3   50 1  
    54    4   51 1  
    55    4   52 1  
    56    9   53 1  
    57    9   54 1  
    58   11   55 1  
    59   13   56 1  
    60   15   57 1  
    61   18   58 1  
    62   19   59 1  
    63   20   60 1  
    64   20   61 1  
    65   22   62 1  
    66   23   63 1  
    67   24   64 1  
    68   25   65 1  
    69   26   66 1  
    70   27   67 1  
    71   28   68 1  
    72   29   69 1  
    73   29   70 1  
    74   30   71 1  
    75   30   72 1  
    76   31   73 1  
    77   31   74 1  
    78   33   75 1  
    79   34   76 1  
    80   35   77 1  
    81   37   78 1  
    82   37   79 1  
    83   38   80 1  
    84   42   81 1  
@<TRIPOS>SUBSTRUCTURE
     1 CM8         1

