### 
### Created by X-TOOL on Mon Sep 10 21:12:57 2018
### 

@<TRIPOS>MOLECULE
2vnn_ligand
   80    84     1     0     0
SMALL
GAST_HUCK


@<TRIPOS>ATOM
      1 C01        28.0290   -3.7130   34.0220 C.3       1 CM7        -0.0609
      2 C02        29.5170   -4.1010   34.0840 C.3       1 CM7        -0.0397
      3 C03        30.1880   -3.4720   35.3270 C.2       1 CM7        -0.0497
      4 C04        30.7030   -4.1960   36.4760 C.2       1 CM7         0.0178
      5 N05        31.1790   -3.2100   37.3480 N.pl3     1 CM7        -0.2756
      6 C06        31.8340   -3.7520   38.5960 C.3       1 CM7         0.0692
      7 C07        31.8670   -3.0210   39.9480 C.3       1 CM7         0.1158
      8 S08        31.4380   -1.2320   39.7790 S.o2      1 CM7         0.0638
      9 O09        31.8700   -0.5150   41.0080 O.2       1 CM7        -0.1497
     10 O10        29.9970   -1.2530   39.6780 O.2       1 CM7        -0.1497
     11 N11        32.0540   -0.4680   38.5710 N.am      1 CM7        -0.1825
     12 C12        33.4640   -0.0320   38.5780 C.3       1 CM7         0.0433
     13 C13        31.4460   -0.5260   37.2340 C.ar      1 CM7         0.0901
     14 C14        31.1400    0.6180   36.4380 C.ar      1 CM7        -0.0429
     15 C15        30.5060    0.4270   35.1950 C.ar      1 CM7         0.0136
     16 C16        30.1070   -0.8920   34.6760 C.ar      1 CM7        -0.0731
     17 C17        30.4090   -2.0590   35.5230 C.ar      1 CM7        -0.0296
     18 C18        31.0590   -1.8730   36.7730 C.ar      1 CM7         0.0889
     19 C19        30.2720    1.6930   34.4300 C.2       1 CM7         0.1919
     20 O20        31.1980    2.4440   34.2440 O.2       1 CM7        -0.3894
     21 N21        29.0830    1.7020   33.6420 N.am      1 CM7        -0.2802
     22 C22        28.8930    2.6290   32.5370 C.3       1 CM7         0.0816
     23 C23        28.1850    1.7930   31.4290 C.3       1 CM7         0.0065
     24 C24        28.9130    0.4470   31.1660 C.ar      1 CM7        -0.0408
     25 C25        30.3650    0.3810   31.0300 C.ar      1 CM7        -0.0603
     26 C26        30.9940   -0.8900   30.7820 C.ar      1 CM7        -0.0686
     27 C27        30.1570   -2.0920   30.6660 C.ar      1 CM7        -0.0687
     28 C28        28.7190   -2.0330   30.7990 C.ar      1 CM7        -0.0686
     29 C29        28.0880   -0.7550   31.0420 C.ar      1 CM7        -0.0603
     30 C30        27.9810    3.7610   33.0520 C.3       1 CM7         0.1192
     31 O31        27.6430    4.6050   31.9330 O.3       1 CM7        -0.3841
     32 C32        28.7370    4.6580   34.0760 C.3       1 CM7        -0.0033
     33 N33        27.8310    5.7880   34.4490 N.4       1 CM7         0.2413
     34 C34        28.5550    6.9540   35.0210 C.3       1 CM7         0.0066
     35 C35        29.6340    7.5070   34.0570 C.ar      1 CM7         0.0303
     36 C36        31.0420    7.4930   34.4380 C.ar      1 CM7        -0.0265
     37 C37        32.0430    8.0170   33.5250 C.ar      1 CM7        -0.0376
     38 C38        31.6450    8.5720   32.2390 C.ar      1 CM7        -0.0377
     39 C39        30.2480    8.5690   31.8650 C.ar      1 CM7         0.0411
     40 C40        29.2390    8.0480   32.7670 C.ar      1 CM7        -0.0257
     41 C41        29.7930    9.1300   30.5180 C.3       1 CM7         0.3750
     42 F42        28.7770   10.0050   30.6680 F         1 CM7        -0.2204
     43 F43        29.3420    8.1140   29.7590 F         1 CM7        -0.2204
     44 F44        30.8140    9.7480   29.8910 F         1 CM7        -0.2204
     45 H1         27.5681   -4.1683   33.1330 H         1 CM7         0.0244
     46 H2         27.9376   -2.6184   33.9624 H         1 CM7         0.0244
     47 H3         27.5177   -4.0750   34.9262 H         1 CM7         0.0244
     48 H4         30.0237   -3.7396   33.1770 H         1 CM7         0.0346
     49 H5         29.6037   -5.1961   34.1408 H         1 CM7         0.0346
     50 H6         30.7160   -5.2744   36.6267 H         1 CM7         0.0792
     51 H7         32.8866   -3.9243   38.3269 H         1 CM7         0.0612
     52 H8         31.3432   -4.7165   38.7929 H         1 CM7         0.0612
     53 H9         32.8783   -3.1050   40.3724 H         1 CM7         0.0550
     54 H10        31.1438   -3.4969   40.6267 H         1 CM7         0.0550
     55 H11        33.6923    0.4858   37.6348 H         1 CM7         0.0516
     56 H12        34.1187   -0.9098   38.6822 H         1 CM7         0.0516
     57 H13        33.6318    0.6529   39.4222 H         1 CM7         0.0516
     58 H14        31.3906    1.6145   36.7832 H         1 CM7         0.0397
     59 H15        29.6145   -0.9992   33.7163 H         1 CM7         0.0441
     60 H16        28.3561    1.0496   33.8562 H         1 CM7         0.1848
     61 H17        29.8482    3.0362   32.1740 H         1 CM7         0.0606
     62 H18        28.1703    2.3774   30.4972 H         1 CM7         0.0449
     63 H19        27.1530    1.5831   31.7466 H         1 CM7         0.0449
     64 H20        30.9639    1.2805   31.1149 H         1 CM7         0.0557
     65 H21        32.0712   -0.9593   30.6821 H         1 CM7         0.0599
     66 H22        30.6305   -3.0484   30.4756 H         1 CM7         0.0559
     67 H23        28.1220   -2.9342   30.7177 H         1 CM7         0.0599
     68 H24        27.0098   -0.6877   31.1318 H         1 CM7         0.0557
     69 H25        27.0758    3.3369   33.5110 H         1 CM7         0.0672
     70 H26        27.1891    4.0908   31.2757 H         1 CM7         0.2101
     71 H27        29.6580    5.0512   33.6209 H         1 CM7         0.0840
     72 H28        28.9918    4.0714   34.9710 H         1 CM7         0.0840
     73 H29        27.1685    5.4556   35.1321 H         1 CM7         0.2029
     74 H30        27.3388    6.0902   33.6229 H         1 CM7         0.2029
     75 H31        29.0426    6.6432   35.9567 H         1 CM7         0.0985
     76 H32        27.8283    7.7520   35.2336 H         1 CM7         0.0985
     77 H33        31.3406    7.0926   35.4001 H         1 CM7         0.0805
     78 H34        33.0907    7.9948   33.8022 H         1 CM7         0.0683
     79 H35        32.3896    8.9840   31.5675 H         1 CM7         0.0802
     80 H36        28.1937    8.0620   32.4802 H         1 CM7         0.0782
@<TRIPOS>BOND
     1    1    2 1  
     2    2    3 1  
     3    3    4 2  
     4    3   17 1  
     5    4    5 1  
     6    5    6 1  
     7    5   18 1  
     8    6    7 1  
     9    7    8 1  
    10    8    9 2  
    11    8   10 2  
    12    8   11 am 
    13   11   12 1  
    14   11   13 1  
    15   13   14 ar 
    16   13   18 ar 
    17   14   15 ar 
    18   15   16 ar 
    19   15   19 1  
    20   16   17 ar 
    21   17   18 ar 
    22   19   20 2  
    23   19   21 am 
    24   21   22 1  
    25   22   23 1  
    26   22   30 1  
    27   23   24 1  
    28   24   25 ar 
    29   24   29 ar 
    30   25   26 ar 
    31   26   27 ar 
    32   27   28 ar 
    33   28   29 ar 
    34   30   31 1  
    35   30   32 1  
    36   32   33 1  
    37   33   34 1  
    38   34   35 1  
    39   35   36 ar 
    40   35   40 ar 
    41   36   37 ar 
    42   37   38 ar 
    43   38   39 ar 
    44   39   40 ar 
    45   39   41 1  
    46   41   42 1  
    47   41   43 1  
    48   41   44 1  
    49    1   45 1  
    50    1   46 1  
    51    1   47 1  
    52    2   48 1  
    53    2   49 1  
    54    4   50 1  
    55    6   51 1  
    56    6   52 1  
    57    7   53 1  
    58    7   54 1  
    59   12   55 1  
    60   12   56 1  
    61   12   57 1  
    62   14   58 1  
    63   16   59 1  
    64   21   60 1  
    65   22   61 1  
    66   23   62 1  
    67   23   63 1  
    68   25   64 1  
    69   26   65 1  
    70   27   66 1  
    71   28   67 1  
    72   29   68 1  
    73   30   69 1  
    74   31   70 1  
    75   32   71 1  
    76   32   72 1  
    77   33   73 1  
    78   33   74 1  
    79   34   75 1  
    80   34   76 1  
    81   36   77 1  
    82   37   78 1  
    83   38   79 1  
    84   40   80 1  
@<TRIPOS>SUBSTRUCTURE
     1 CM7         1

