### 
### Created by X-TOOL on Mon Sep 10 21:12:59 2018
### 

@<TRIPOS>MOLECULE
2vnt_ligand
   42    44     1     0     0
SMALL
GAST_HUCK


@<TRIPOS>ATOM
      1 N1        -40.9210  177.4850   70.2010 N.pl3     1 QGG        -0.3521
      2 C2        -40.7980  176.3480   69.4720 C.cat     1 QGG         0.1539
      3 N3        -40.2510  175.2830   69.9750 N.pl3     1 QGG        -0.2435
      4 C4        -39.8180  175.1510   71.2640 C.ar      1 QGG         0.2107
      5 N5        -40.2230  175.9580   72.2200 N.ar      1 QGG        -0.1944
      6 C6        -39.8550  175.8330   73.4880 C.ar      1 QGG         0.0890
      7 C7        -39.0350  174.8050   73.8810 C.ar      1 QGG         0.1388
      8 CL8       -38.5660  174.6890   75.5150 Cl        1 QGG         0.0002
      9 C9        -38.5440  173.8570   72.9590 C.ar      1 QGG         0.0778
     10 C10       -37.6860  172.7860   73.3360 C.ar      1 QGG         0.0027
     11 C11       -37.2630  171.9350   72.3950 C.ar      1 QGG         0.0176
     12 C12       -37.6400  172.1200   71.0650 C.ar      1 QGG         0.1605
     13 C13       -38.4680  173.1250   70.6660 C.ar      1 QGG         0.0310
     14 C14       -38.9290  174.0240   71.6130 C.ar      1 QGG         0.1071
     15 S15       -36.9920  171.0050   69.8890 S.o2      1 QGG         0.0885
     16 O16       -37.2850  171.4480   68.5580 O.2       1 QGG        -0.1466
     17 O17       -35.7080  170.9240   70.3800 O.2       1 QGG        -0.1466
     18 N18       -37.8400  169.5680   70.1460 N.am      1 QGG        -0.2153
     19 C19       -37.4950  168.4640   71.0630 C.3       1 QGG         0.0322
     20 C20       -38.8610  167.8720   71.4960 C.3       1 QGG        -0.0325
     21 C21       -39.7580  168.0070   70.2380 C.3       1 QGG        -0.0197
     22 C22       -39.1120  169.2010   69.5140 C.3       1 QGG         0.0932
     23 C24       -38.8990  168.8190   68.0830 C.2       1 QGG         0.0566
     24 O25       -37.9160  168.2270   67.6480 O.co2     1 QGG        -0.5670
     25 O26       -39.8930  169.1860   67.2920 O.co2     1 QGG        -0.5670
     26 N27       -41.1920  176.2670   68.1890 N.pl3     1 QGG        -0.3521
     27 H1        -41.3579  178.3194   69.7840 H         1 QGG         0.1656
     28 H2        -40.5775  177.5141   71.1716 H         1 QGG         0.1656
     29 H3        -40.1341  174.4717   69.3513 H         1 QGG         0.2287
     30 H4        -40.2054  176.5501   74.2215 H         1 QGG         0.1138
     31 H5        -37.3804  172.6621   74.3686 H         1 QGG         0.1021
     32 H6        -36.6265  171.1006   72.6663 H         1 QGG         0.0861
     33 H7        -38.7607  173.2194   69.6265 H         1 QGG         0.1027
     34 H8        -36.9421  168.8425   71.9354 H         1 QGG         0.0479
     35 H9        -36.8895  167.7050   70.5461 H         1 QGG         0.0479
     36 H10       -39.2827  168.4416   72.3373 H         1 QGG         0.0282
     37 H11       -38.7532  166.8162   71.7853 H         1 QGG         0.0282
     38 H12       -40.8014  168.2221   70.5118 H         1 QGG         0.0302
     39 H13       -39.7210  167.0973   69.6208 H         1 QGG         0.0302
     40 H14       -39.7920  170.0643   69.5616 H         1 QGG         0.0683
     41 H15       -41.6328  177.0788   67.7334 H         1 QGG         0.1656
     42 H16       -41.0531  175.3931   67.6618 H         1 QGG         0.1656
@<TRIPOS>BOND
     1    1    2 ar 
     2    2    3 ar 
     3    2   26 ar 
     4    3    4 1  
     5    4    5 ar 
     6    4   14 ar 
     7    5    6 ar 
     8    6    7 ar 
     9    7    8 1  
    10    7    9 ar 
    11    9   10 ar 
    12    9   14 ar 
    13   10   11 ar 
    14   11   12 ar 
    15   12   13 ar 
    16   12   15 1  
    17   13   14 ar 
    18   15   16 2  
    19   15   17 2  
    20   15   18 am 
    21   18   19 1  
    22   18   22 1  
    23   19   20 1  
    24   20   21 1  
    25   21   22 1  
    26   22   23 1  
    27   23   24 ar 
    28   23   25 ar 
    29    1   27 1  
    30    1   28 1  
    31    3   29 1  
    32    6   30 1  
    33   10   31 1  
    34   11   32 1  
    35   13   33 1  
    36   19   34 1  
    37   19   35 1  
    38   20   36 1  
    39   20   37 1  
    40   21   38 1  
    41   21   39 1  
    42   22   40 1  
    43   26   41 1  
    44   26   42 1  
@<TRIPOS>SUBSTRUCTURE
     1 QGG         1

