### 
### Created by X-TOOL on Mon Sep 10 21:12:58 2018
### 

@<TRIPOS>MOLECULE
2vo4_ligand
   18    18     1     0     0
SMALL
GAST_HUCK


@<TRIPOS>ATOM
      1 CAA        33.4910  -45.4870  -10.7280 C.3       1 4NM         0.0271
      2 SAH        34.9880  -46.4940  -10.6520 S.3       1 4NM        -0.1633
      3 CAD        31.4650  -46.4090   -9.6270 C.ar      1 4NM        -0.0510
      4 CAF        30.7030  -46.7270   -8.5070 C.ar      1 4NM        -0.0253
      5 CAJ        31.1480  -46.4180   -7.2150 C.ar      1 4NM         0.1925
      6 NAK        30.2920  -46.7280   -6.1400 N.2       1 4NM         0.3095
      7 OAC        30.4410  -46.2410   -5.0380 O.2       1 4NM         0.1751
      8 OAB        29.3180  -47.4340   -6.3260 O.2       1 4NM         0.1751
      9 CAG        32.3920  -45.7910   -7.0430 C.ar      1 4NM        -0.0253
     10 C1         32.6970  -45.7950   -9.4700 C.ar      1 4NM        -0.0275
     11 CAE        33.1610  -45.4960   -8.1730 C.ar      1 4NM        -0.0510
     12 H1         32.9035  -45.7470  -11.6209 H         1 4NM         0.0548
     13 H2         33.7530  -44.4191  -10.7596 H         1 4NM         0.0548
     14 H3         35.5494  -46.3217  -11.4713 H         1 4NM         0.1042
     15 H4         31.0958  -46.6410  -10.6194 H         1 4NM         0.0574
     16 H5         29.7478  -47.2228   -8.6365 H         1 4NM         0.0676
     17 H6         32.7504  -45.5398   -6.0513 H         1 4NM         0.0676
     18 H7         34.1314  -45.0290   -8.0494 H         1 4NM         0.0574
@<TRIPOS>BOND
     1    1    2 1  
     2   10    1 1  
     3    3    4 ar 
     4    3   10 ar 
     5    4    5 ar 
     6    5    6 1  
     7    5    9 ar 
     8    6    7 2  
     9    6    8 2  
    10    9   11 ar 
    11   10   11 ar 
    12    1   12 1  
    13    1   13 1  
    14    2   14 1  
    15    3   15 1  
    16    4   16 1  
    17    9   17 1  
    18   11   18 1  
@<TRIPOS>SUBSTRUCTURE
     1 4NM         1

