### 
### Created by X-TOOL on Mon Sep 10 21:12:57 2018
### 

@<TRIPOS>MOLECULE
2vo5_ligand
   42    44     1     0     0
SMALL
GAST_HUCK


@<TRIPOS>ATOM
      1 O2         28.0980   44.6850   -0.0200 O.3       1 VBZ        -0.3835
      2 C2         27.5320   45.9020   -0.4860 C.3       1 VBZ         0.1262
      3 C3         28.0950   47.0940    0.2520 C.3       1 VBZ         0.1202
      4 O3         29.3600   46.7230    0.7310 O.3       1 VBZ        -0.3859
      5 C4         28.1710   48.2240   -0.7810 C.3       1 VBZ         0.1387
      6 O4         28.4180   49.4660   -0.0720 O.3       1 VBZ        -0.3803
      7 C5         26.7880   48.3040   -1.4660 C.3       1 VBZ         0.0237
      8 C6         26.4000   49.6390   -2.1070 C.3       1 VBZ         0.0501
      9 O6         27.1900   49.8270   -3.2700 O.3       1 VBZ        -0.3946
     10 C7         26.6230   47.1130   -2.4160 C.3       1 VBZ         0.0007
     11 C8         29.3090   47.9170   -1.7690 C.3       1 VBZ         0.0023
     12 N1         29.0330   46.6270   -2.4470 N.4       1 VBZ         0.2533
     13 C1         27.6950   46.1220   -2.0130 C.3       1 VBZ         0.0102
     14 C9         29.0480   46.7000   -3.9540 C.3       1 VBZ         0.0024
     15 C10        30.2710   47.3530   -4.5820 C.ar      1 VBZ         0.0014
     16 C11        31.5620   46.8800   -4.3340 C.ar      1 VBZ        -0.0553
     17 C12        32.6840   47.4960   -4.9300 C.ar      1 VBZ        -0.0684
     18 C15        30.1230   48.4760   -5.4090 C.ar      1 VBZ        -0.0553
     19 C14        31.2340   49.1100   -5.9950 C.ar      1 VBZ        -0.0684
     20 C13        32.5200   48.6130   -5.7630 C.ar      1 VBZ        -0.0687
     21 H1         27.7238   43.9576   -0.5031 H         1 VBZ         0.2102
     22 H2         26.4535   45.8547   -0.2748 H         1 VBZ         0.0677
     23 H3         27.4469   47.3880    1.0908 H         1 VBZ         0.0652
     24 H4         29.2706   45.9788    1.3147 H         1 VBZ         0.2100
     25 H5         28.4687   50.1807   -0.6958 H         1 VBZ         0.2105
     26 H6         26.0541   48.1580   -0.6598 H         1 VBZ         0.0355
     27 H7         26.5841   50.4588   -1.3971 H         1 VBZ         0.0561
     28 H8         25.3347   49.6233   -2.3808 H         1 VBZ         0.0561
     29 H9         26.9590   50.6531   -3.6782 H         1 VBZ         0.2094
     30 H10        26.7661   47.4308   -3.4593 H         1 VBZ         0.0325
     31 H11        25.6243   46.6662   -2.3024 H         1 VBZ         0.0325
     32 H12        30.2616   47.8490   -1.2231 H         1 VBZ         0.0844
     33 H13        29.3722   48.7200   -2.5182 H         1 VBZ         0.0844
     34 H14        29.7414   45.9697   -2.1603 H         1 VBZ         0.2053
     35 H15        27.5185   45.1628   -2.5217 H         1 VBZ         0.0878
     36 H16        28.1626   47.2704   -4.2714 H         1 VBZ         0.0980
     37 H17        28.9802   45.6724   -4.3407 H         1 VBZ         0.0980
     38 H18        31.7039   46.0301   -3.6763 H         1 VBZ         0.0558
     39 H19        33.6772   47.1039   -4.7430 H         1 VBZ         0.0599
     40 H20        29.1295   48.8646   -5.6012 H         1 VBZ         0.0558
     41 H21        31.0933   49.9812   -6.6245 H         1 VBZ         0.0599
     42 H22        33.3810   49.0855   -6.2217 H         1 VBZ         0.0559
@<TRIPOS>BOND
     1    1    2 1  
     2    2    3 1  
     3    2   13 1  
     4    3    4 1  
     5    3    5 1  
     6    5    6 1  
     7    5    7 1  
     8    5   11 1  
     9    7    8 1  
    10    7   10 1  
    11    8    9 1  
    12   10   13 1  
    13   11   12 1  
    14   12   13 1  
    15   12   14 1  
    16   14   15 1  
    17   15   16 ar 
    18   15   18 ar 
    19   16   17 ar 
    20   17   20 ar 
    21   18   19 ar 
    22   19   20 ar 
    23    1   21 1  
    24    2   22 1  
    25    3   23 1  
    26    4   24 1  
    27    6   25 1  
    28    7   26 1  
    29    8   27 1  
    30    8   28 1  
    31    9   29 1  
    32   10   30 1  
    33   10   31 1  
    34   11   32 1  
    35   11   33 1  
    36   12   34 1  
    37   13   35 1  
    38   14   36 1  
    39   14   37 1  
    40   16   38 1  
    41   17   39 1  
    42   18   40 1  
    43   19   41 1  
    44   20   42 1  
@<TRIPOS>SUBSTRUCTURE
     1 VBZ         1

