### 
### Created by X-TOOL on Mon Sep 10 21:12:57 2018
### 

@<TRIPOS>MOLECULE
2vo7_ligand
   45    48     1     0     0
SMALL
GAST_HUCK


@<TRIPOS>ATOM
      1 N1         -6.8090   -8.3940   -8.2000 N.pl3     1 M05        -0.2873
      2 C8         -8.0300   -8.8050   -7.4940 C.3       1 M05         0.0385
      3 C4        -10.2160   -7.1850   -9.1930 C.3       1 M05         0.0271
      4 C5         -9.3830   -8.4080   -9.6390 C.3       1 M05        -0.0001
      5 N6        -10.0730   -9.2030  -10.7130 N.4       1 M05         0.2245
      6 C2         -7.1240   -7.3290   -9.1570 C.3       1 M05         0.0385
      7 C9        -11.5230   -7.4600   -8.4960 C.ar      1 M05        -0.0371
      8 C10       -12.5540   -8.1380   -9.1480 C.ar      1 M05        -0.0595
      9 C11       -13.7510   -8.3720   -8.5030 C.ar      1 M05        -0.0546
     10 C12       -13.9420   -7.9130   -7.2090 C.ar      1 M05         0.0330
     11 CL1       -15.4510   -8.1970   -6.4020 Cl        1 M05        -0.0771
     12 C14       -12.9280   -7.2230   -6.5610 C.ar      1 M05        -0.0546
     13 C15       -11.7290   -6.9940   -7.2010 C.ar      1 M05        -0.0595
     14 C16        -5.6360   -9.1770   -8.3300 C.ar      1 M05         0.1212
     15 N17        -5.7040  -10.4630   -7.9200 N.ar      1 M05        -0.2730
     16 C18        -4.6020  -11.2180   -8.0320 C.ar      1 M05         0.0500
     17 N19        -3.3900  -10.8700   -8.4690 N.ar      1 M05        -0.2772
     18 C20        -3.3460   -9.5690   -8.8440 C.ar      1 M05         0.1355
     19 N21        -2.2580   -8.8920   -9.3220 N.pl3     1 M05        -0.2665
     20 C22        -2.6080   -7.6060   -9.5710 C.2       1 M05         0.0249
     21 C23        -3.9280   -7.4410   -9.2500 C.2       1 M05        -0.0545
     22 C3         -9.0580   -9.3560   -8.4710 C.3       1 M05         0.0159
     23 C17        -8.0710   -7.8590  -10.2180 C.3       1 M05         0.0159
     24 C24        -4.4100   -8.6710   -8.7890 C.ar      1 M05         0.0435
     25 H1         -8.4566   -7.9345   -6.9741 H         1 M05         0.0531
     26 H2         -7.7772   -9.5834   -6.7591 H         1 M05         0.0531
     27 H3        -10.4387   -6.5907  -10.0914 H         1 M05         0.0485
     28 H4         -9.5931   -6.5927   -8.5066 H         1 M05         0.0485
     29 H5         -9.4965   -9.9880  -10.9727 H         1 M05         0.2001
     30 H6        -10.2258   -8.6172  -11.5190 H         1 M05         0.2001
     31 H7        -10.9591   -9.5367  -10.3672 H         1 M05         0.2001
     32 H8         -6.1966   -6.9811   -9.6354 H         1 M05         0.0531
     33 H9         -7.6003   -6.4907   -8.6276 H         1 M05         0.0531
     34 H10       -12.4137   -8.4825  -10.1662 H         1 M05         0.0557
     35 H11       -14.5419   -8.9147   -9.0080 H         1 M05         0.0606
     36 H12       -13.0789   -6.8633   -5.5496 H         1 M05         0.0606
     37 H13       -10.9423   -6.4480   -6.6929 H         1 M05         0.0557
     38 H14        -4.7101  -12.2522   -7.7259 H         1 M05         0.0975
     39 H15        -1.3216   -9.2950   -9.4694 H         1 M05         0.2318
     40 H16        -1.9482   -6.8327   -9.9616 H         1 M05         0.0922
     41 H17        -4.5002   -6.5186   -9.3376 H         1 M05         0.0311
     42 H18        -9.9880   -9.5555   -7.9185 H         1 M05         0.0345
     43 H19        -8.6697  -10.2972   -8.8873 H         1 M05         0.0345
     44 H20        -8.3110   -7.0405  -10.9125 H         1 M05         0.0345
     45 H21        -7.5650   -8.6679  -10.7654 H         1 M05         0.0345
@<TRIPOS>BOND
     1    2    1 1  
     2    1    6 1  
     3    1   14 1  
     4   22    2 1  
     5    4    3 1  
     6    3    7 1  
     7    4    5 1  
     8    4   22 1  
     9    4   23 1  
    10    6   23 1  
    11    7    8 ar 
    12    7   13 ar 
    13    8    9 ar 
    14    9   10 ar 
    15   10   11 1  
    16   10   12 ar 
    17   12   13 ar 
    18   14   15 ar 
    19   14   24 ar 
    20   15   16 ar 
    21   16   17 ar 
    22   17   18 ar 
    23   18   19 1  
    24   18   24 ar 
    25   19   20 1  
    26   20   21 2  
    27   21   24 1  
    28    2   25 1  
    29    2   26 1  
    30    3   27 1  
    31    3   28 1  
    32    5   29 1  
    33    5   30 1  
    34    5   31 1  
    35    6   32 1  
    36    6   33 1  
    37    8   34 1  
    38    9   35 1  
    39   12   36 1  
    40   13   37 1  
    41   16   38 1  
    42   19   39 1  
    43   20   40 1  
    44   21   41 1  
    45   22   42 1  
    46   22   43 1  
    47   23   44 1  
    48   23   45 1  
@<TRIPOS>SUBSTRUCTURE
     1 M05         1

