### 
### Created by X-TOOL on Mon Sep 10 21:12:57 2018
### 

@<TRIPOS>MOLECULE
2vpe_ligand
  120   119     1     0     0
SMALL
GAST_HUCK


@<TRIPOS>ATOM
      1 N         -23.4050  -21.3110   14.5260 N.4       1 ALA         0.2377
      2 CA        -22.2250  -20.8350   15.3170 C.3       1 ALA         0.0621
      3 C         -22.3030  -19.3340   15.4860 C.2       1 ALA         0.2264
      4 O         -22.7720  -18.6300   14.5980 O.2       1 ALA        -0.3907
      5 CB        -20.9160  -21.2010   14.6390 C.3       1 ALA        -0.0040
      6 N         -21.8270  -18.8460   16.6290 N.am      1 ARG        -0.2610
      7 CA        -21.8310  -17.4230   16.9330 C.3       1 ARG         0.1312
      8 C         -20.7240  -16.6720   16.1700 C.2       1 ARG         0.2040
      9 O         -19.5320  -16.8500   16.4380 O.2       1 ARG        -0.3944
     10 CB        -21.6700  -17.2320   18.4520 C.3       1 ARG        -0.0092
     11 CG        -21.4290  -15.8070   18.9010 C.3       1 ARG        -0.0156
     12 CD        -22.6180  -15.2580   19.6740 C.3       1 ARG         0.0627
     13 NE        -22.1580  -14.3940   20.7530 N.pl3     1 ARG        -0.2723
     14 CZ        -22.1320  -14.7270   22.0450 C.cat     1 ARG         0.2882
     15 NH1       -22.5690  -15.9130   22.4780 N.pl3     1 ARG        -0.2849
     16 NH2       -21.6700  -13.8540   22.9090 N.pl3     1 ARG        -0.2849
     17 N         -21.1280  -15.8230   15.2290 N.am      1 THR        -0.2613
     18 CA        -20.1650  -14.9780   14.4980 C.3       1 THR         0.1565
     19 C         -20.6100  -13.5350   14.5560 C.2       1 THR         0.2065
     20 O         -21.6450  -13.2340   15.1280 O.2       1 THR        -0.3943
     21 CB        -20.0550  -15.4120   13.0010 C.3       1 THR         0.0924
     22 OG1       -21.2450  -15.0140   12.3080 O.3       1 THR        -0.3874
     23 CG2       -19.8360  -16.9200   12.9040 C.3       1 THR        -0.0346
     24 N         -19.8550  -12.6430   13.9190 N.am      1 MLY        -0.2637
     25 CA        -20.2800  -11.2650   13.7610 C.3       1 MLY         0.1310
     26 CB        -19.0820  -10.3680   13.4450 C.3       1 MLY        -0.0122
     27 CG        -18.0760  -10.3060   14.6000 C.3       1 MLY        -0.0440
     28 CD        -18.7090   -9.7630   15.9010 C.3       1 MLY        -0.0123
     29 CE        -17.7070   -9.7450   17.0710 C.3       1 MLY        -0.0324
     30 NZ        -18.1720   -8.9890   18.2720 N.4       1 MLY         0.2309
     31 CH1       -17.0530   -8.8730   19.2200 C.3       1 MLY        -0.0433
     32 CH2       -19.3220   -9.6330   18.9510 C.3       1 MLY        -0.0433
     33 C         -21.3780  -11.1130   12.7200 C.2       1 MLY         0.2039
     34 O         -21.9900  -10.0470   12.6280 O.2       1 MLY        -0.3944
     35 N         -21.6340  -12.1720   11.9480 N.am      1 GLN        -0.2636
     36 CA        -22.6970  -12.1700   10.9340 C.3       1 GLN         0.1330
     37 C         -24.0320  -12.6270   11.5730 C.2       1 GLN         0.2041
     38 O         -25.0970  -12.4440   10.9880 O.2       1 GLN        -0.3944
     39 CB        -22.2900  -13.0590    9.7340 C.3       1 GLN         0.0045
     40 CG        -23.1210  -12.8850    8.4180 C.3       1 GLN         0.0412
     41 CD        -22.5690  -13.7100    7.2260 C.2       1 GLN         0.1737
     42 OE1       -23.1950  -14.6890    6.7750 O.2       1 GLN        -0.3973
     43 NE2       -21.3950  -13.3260    6.7320 N.am      1 GLN        -0.3009
     44 N         -23.9560  -13.2000   12.7780 N.am      1 THR        -0.2613
     45 CA        -25.1230  -13.7000   13.5290 C.3       1 THR         0.1564
     46 C         -26.1780  -12.6100   13.7310 C.2       1 THR         0.2059
     47 O         -25.8540  -11.5170   14.1850 O.2       1 THR        -0.3943
     48 CB        -24.6880  -14.2930   14.8850 C.3       1 THR         0.0924
     49 OG1       -23.8970  -15.4560   14.6410 O.3       1 THR        -0.3874
     50 CG2       -25.9000  -14.7100   15.7570 C.3       1 THR        -0.0346
     51 N         -27.4350  -12.9280   13.3940 N.am      1 ALA        -0.2697
     52 CA        -28.5340  -11.9580   13.4370 C.3       1 ALA         0.0916
     53 C         -28.8260  -11.4710   14.8610 C.2       1 ALA         0.0598
     54 O         -28.5829  -12.2012   15.8587 O.co2     1 ALA        -0.5666
     55 CB        -29.7950  -12.5550   12.8100 C.3       1 ALA        -0.0300
     56 O         -29.3162  -10.3236   15.0364 O.co2     1 ALA        -0.5666
     57 H1        -23.3527  -22.3113   14.4136 H         1 ALA         0.2015
     58 H2        -23.4017  -20.8704   13.6194 H         1 ALA         0.2015
     59 H3        -24.2546  -21.0716   15.0128 H         1 ALA         0.2015
     60 H4        -22.2520  -21.3098   16.3089 H         1 ALA         0.1095
     61 H5        -20.0742  -20.8368   15.2462 H         1 ALA         0.0310
     62 H6        -20.8770  -20.7370   13.6424 H         1 ALA         0.0310
     63 H7        -20.8488  -22.2942   14.5374 H         1 ALA         0.0310
     64 H8        -21.4524  -19.4812   17.3044 H         1 ARG         0.1884
     65 H9        -22.8013  -17.0049   16.6269 H         1 ARG         0.0800
     66 H10       -20.8165  -17.8418   18.7830 H         1 ARG         0.0313
     67 H11       -22.5883  -17.5914   18.9393 H         1 ARG         0.0313
     68 H12       -21.2568  -15.1774   18.0156 H         1 ARG         0.0301
     69 H13       -20.5396  -15.7815   19.5477 H         1 ARG         0.0301
     70 H14       -23.1938  -16.0940   20.0978 H         1 ARG         0.0689
     71 H15       -23.2590  -14.6793   18.9927 H         1 ARG         0.0689
     72 H16       -21.8269  -13.4524   20.4987 H         1 ARG         0.2642
     73 H17       -22.5351  -16.1390   23.4823 H         1 ARG         0.2615
     74 H18       -22.9398  -16.6014   21.8075 H         1 ARG         0.2615
     75 H19       -21.3311  -12.9373   22.5838 H         1 ARG         0.2615
     76 H20       -21.6463  -14.0855   23.9124 H         1 ARG         0.2615
     77 H21       -22.1022  -15.7564   15.0133 H         1 THR         0.1884
     78 H22       -19.1770  -15.0735   14.9721 H         1 THR         0.0826
     79 H23       -19.1932  -14.9036   12.5440 H         1 THR         0.0639
     80 H24       -21.1823  -15.2761   11.3970 H         1 THR         0.2101
     81 H25       -19.7603  -17.2122   11.8462 H         1 THR         0.0257
     82 H26       -20.6836  -17.4443   13.3695 H         1 THR         0.0257
     83 H27       -18.9063  -17.1899   13.4263 H         1 THR         0.0257
     84 H28       -18.9747  -12.9292   13.5407 H         1 MLY         0.1883
     85 H29       -20.6968  -10.9364   14.7245 H         1 MLY         0.0800
     86 H30       -19.4470   -9.3508   13.2398 H         1 MLY         0.0312
     87 H31       -18.5719  -10.7614   12.5534 H         1 MLY         0.0312
     88 H32       -17.2443   -9.6473   14.3097 H         1 MLY         0.0269
     89 H33       -17.6922  -11.3193   14.7896 H         1 MLY         0.0269
     90 H34       -19.5614  -10.4024   16.1742 H         1 MLY         0.0317
     91 H35       -19.0629   -8.7370   15.7217 H         1 MLY         0.0317
     92 H36       -16.7726   -9.2856   16.7163 H         1 MLY         0.0814
     93 H37       -17.5128  -10.7847   17.3733 H         1 MLY         0.0814
     94 H38       -18.4536   -8.0668   17.9782 H         1 MLY         0.2028
     95 H39       -17.3828   -8.3174   20.1103 H         1 MLY         0.0777
     96 H40       -16.2205   -8.3369   18.7408 H         1 MLY         0.0777
     97 H41       -16.7190   -9.8779   19.5178 H         1 MLY         0.0777
     98 H42       -20.1614   -9.7218   18.2457 H         1 MLY         0.0777
     99 H43       -19.6295   -9.0208   19.8116 H         1 MLY         0.0777
    100 H44       -19.0284  -10.6342   19.2994 H         1 MLY         0.0777
    101 H45       -21.0815  -12.9973   12.0644 H         1 GLN         0.1883
    102 H46       -22.8279  -11.1413   10.5671 H         1 GLN         0.0801
    103 H47       -22.3817  -14.1086   10.0501 H         1 GLN         0.0337
    104 H48       -21.2389  -12.8381    9.4965 H         1 GLN         0.0337
    105 H49       -23.1129  -11.8211    8.1388 H         1 GLN         0.0504
    106 H50       -24.1551  -13.2048    8.6139 H         1 GLN         0.0504
    107 H51       -20.9902  -13.8208    5.9630 H         1 GLN         0.1814
    108 H52       -20.9174  -12.5426    7.1296 H         1 GLN         0.1814
    109 H53       -23.0527  -13.2956   13.1961 H         1 THR         0.1884
    110 H54       -25.5819  -14.5060   12.9377 H         1 THR         0.0826
    111 H55       -24.0933  -13.5445   15.4292 H         1 THR         0.0639
    112 H56       -24.4121  -16.0926   14.1594 H         1 THR         0.2101
    113 H57       -25.5404  -15.1254   16.7099 H         1 THR         0.0257
    114 H58       -26.4902  -15.4706   15.2249 H         1 THR         0.0257
    115 H59       -26.5294  -13.8299   15.9550 H         1 THR         0.0257
    116 H60       -27.6316  -13.8638   13.1016 H         1 ALA         0.1875
    117 H61       -28.2344  -11.0849   12.8388 H         1 ALA         0.0723
    118 H62       -30.6092  -11.8164   12.8498 H         1 ALA         0.0270
    119 H63       -30.0901  -13.4563   13.3672 H         1 ALA         0.0270
    120 H64       -29.5926  -12.8215   11.7622 H         1 ALA         0.0270
@<TRIPOS>BOND
     1    1    2 1  
     2    2    3 1  
     3    2    5 1  
     4    3    4 2  
     5    3    6 am 
     6    6    7 1  
     7    7    8 1  
     8    7   10 1  
     9    8    9 2  
    10    8   17 am 
    11   10   11 1  
    12   11   12 1  
    13   12   13 1  
    14   13   14 ar 
    15   14   15 ar 
    16   14   16 ar 
    17   17   18 1  
    18   18   19 1  
    19   18   21 1  
    20   19   20 2  
    21   19   24 am 
    22   21   22 1  
    23   21   23 1  
    24   24   25 1  
    25   25   26 1  
    26   25   33 1  
    27   26   27 1  
    28   27   28 1  
    29   28   29 1  
    30   29   30 1  
    31   30   31 1  
    32   30   32 1  
    33   33   34 2  
    34   33   35 am 
    35   35   36 1  
    36   36   37 1  
    37   36   39 1  
    38   37   38 2  
    39   37   44 am 
    40   39   40 1  
    41   40   41 1  
    42   41   42 2  
    43   41   43 am 
    44   44   45 1  
    45   45   46 1  
    46   45   48 1  
    47   46   47 2  
    48   46   51 am 
    49   48   49 1  
    50   48   50 1  
    51   51   52 1  
    52   52   53 1  
    53   52   55 1  
    54   53   54 ar 
    55   53   56 ar 
    56    1   57 1  
    57    1   58 1  
    58    1   59 1  
    59    2   60 1  
    60    5   61 1  
    61    5   62 1  
    62    5   63 1  
    63    6   64 1  
    64    7   65 1  
    65   10   66 1  
    66   10   67 1  
    67   11   68 1  
    68   11   69 1  
    69   12   70 1  
    70   12   71 1  
    71   13   72 1  
    72   15   73 1  
    73   15   74 1  
    74   16   75 1  
    75   16   76 1  
    76   17   77 1  
    77   18   78 1  
    78   21   79 1  
    79   22   80 1  
    80   23   81 1  
    81   23   82 1  
    82   23   83 1  
    83   24   84 1  
    84   25   85 1  
    85   26   86 1  
    86   26   87 1  
    87   27   88 1  
    88   27   89 1  
    89   28   90 1  
    90   28   91 1  
    91   29   92 1  
    92   29   93 1  
    93   30   94 1  
    94   31   95 1  
    95   31   96 1  
    96   31   97 1  
    97   32   98 1  
    98   32   99 1  
    99   32  100 1  
   100   35  101 1  
   101   36  102 1  
   102   39  103 1  
   103   39  104 1  
   104   40  105 1  
   105   40  106 1  
   106   43  107 1  
   107   43  108 1  
   108   44  109 1  
   109   45  110 1  
   110   48  111 1  
   111   49  112 1  
   112   50  113 1  
   113   50  114 1  
   114   50  115 1  
   115   51  116 1  
   116   52  117 1  
   117   55  118 1  
   118   55  119 1  
   119   55  120 1  
@<TRIPOS>SUBSTRUCTURE
     1 ALA         1

