### 
### Created by X-TOOL on Mon Sep 10 21:12:57 2018
### 

@<TRIPOS>MOLECULE
2vpn_ligand
   19    19     1     0     0
SMALL
GAST_HUCK


@<TRIPOS>ATOM
      1 O          43.8610   31.4390   35.0790 O.co2     1 4CS        -0.5665
      2 C          43.5350   31.1580   33.9000 C.2       1 4CS         0.0612
      3 OXT        43.4610   29.9940   33.4780 O.co2     1 4CS        -0.5665
      4 CA         43.2840   32.2710   32.9390 C.3       1 4CS         0.0983
      5 CB         42.3870   33.3630   33.5100 C.3       1 4CS        -0.0138
      6 CAD        42.1870   34.4380   32.4490 C.3       1 4CS        -0.0217
      7 NAG        41.8370   33.8640   31.1570 N.2       1 4CS        -0.3750
      8 CAI        42.0700   32.6140   30.8420 C.2       1 4CS         0.0901
      9 CAA        41.5400   32.1210   29.5190 C.3       1 4CS         0.0187
     10 N          42.7150   31.8090   31.6740 N.pl3     1 4CS        -0.2736
     11 H1         44.2609   32.7259   32.7181 H         1 4CS         0.0739
     12 H2         42.8617   33.8044   34.3987 H         1 4CS         0.0308
     13 H3         41.4136   32.9335   33.7893 H         1 4CS         0.0308
     14 H4         43.1196   35.0115   32.3429 H         1 4CS         0.0302
     15 H5         41.3779   35.1100   32.7710 H         1 4CS         0.0302
     16 H6         41.0426   32.9486   28.9920 H         1 4CS         0.0525
     17 H7         40.8174   31.3100   29.6927 H         1 4CS         0.0525
     18 H8         42.3733   31.7449   28.9073 H         1 4CS         0.0525
     19 H9         42.8198   30.8166   31.4188 H         1 4CS         0.1956
@<TRIPOS>BOND
     1    1    2 ar 
     2    2    3 ar 
     3    2    4 1  
     4    4    5 1  
     5    4   10 1  
     6    5    6 1  
     7    6    7 1  
     8    7    8 2  
     9    8    9 1  
    10    8   10 1  
    11    4   11 1  
    12    5   12 1  
    13    5   13 1  
    14    6   14 1  
    15    6   15 1  
    16    9   16 1  
    17    9   17 1  
    18    9   18 1  
    19   10   19 1  
@<TRIPOS>SUBSTRUCTURE
     1 4CS         1

