### 
### Created by X-TOOL on Mon Sep 10 21:12:57 2018
### 

@<TRIPOS>MOLECULE
2vpo_ligand
   20    20     1     0     0
SMALL
GAST_HUCK


@<TRIPOS>ATOM
      1 O          43.5300   29.8500   33.4510 O.co2     1 6CS        -0.5684
      2 C          43.6750   31.0110   33.8780 C.2       1 6CS         0.0437
      3 OXT        44.0070   31.2240   35.0690 O.co2     1 6CS        -0.5684
      4 CA         43.5020   32.1680   32.9050 C.3       1 6CS         0.0675
      5 N          42.8700   31.7640   31.6420 N.2       1 6CS        -0.3547
      6 CAI        42.1840   32.5680   30.9210 C.2       1 6CS         0.0903
      7 CAA        41.5790   32.0840   29.6210 C.3       1 6CS         0.0187
      8 NAG        41.9840   33.8400   31.2840 N.pl3     1 6CS        -0.2867
      9 CG2        42.4050   34.4470   32.5450 C.3       1 6CS         0.0629
     10 CB         42.6500   33.2880   33.5100 C.3       1 6CS         0.0935
     11 OG1        43.2810   33.8230   34.6840 O.3       1 6CS        -0.3875
     12 H1         44.5021   32.5675   32.6809 H         1 6CS         0.0528
     13 H2         41.8341   31.0247   29.4698 H         1 6CS         0.0525
     14 H3         41.9777   32.6798   28.7867 H         1 6CS         0.0525
     15 H4         40.4854   32.1955   29.6615 H         1 6CS         0.0525
     16 H5         41.4887   34.4461   30.6145 H         1 6CS         0.1932
     17 H6         41.6157   35.1073   32.9335 H         1 6CS         0.0560
     18 H7         43.3292   35.0258   32.4007 H         1 6CS         0.0560
     19 H8         41.6773   32.8581   33.7912 H         1 6CS         0.0637
     20 H9         43.4448   33.1205   35.3022 H         1 6CS         0.2100
@<TRIPOS>BOND
     1    1    2 ar 
     2    2    3 ar 
     3    2    4 1  
     4    4    5 1  
     5    4   10 1  
     6    5    6 2  
     7    6    7 1  
     8    6    8 1  
     9    8    9 1  
    10    9   10 1  
    11   10   11 1  
    12    4   12 1  
    13    7   13 1  
    14    7   14 1  
    15    7   15 1  
    16    8   16 1  
    17    9   17 1  
    18    9   18 1  
    19   10   19 1  
    20   11   20 1  
@<TRIPOS>SUBSTRUCTURE
     1 6CS         1

