### 
### Created by X-TOOL on Mon Sep 10 21:13:01 2018
### 

@<TRIPOS>MOLECULE
2vpp_ligand
   29    30     1     0     0
SMALL
GAST_HUCK


@<TRIPOS>ATOM
      1 O5'        57.2890   20.9970   11.7070 O.3       1 GEO        -0.3924
      2 C5'        58.0570   21.8500   10.8450 C.3       1 GEO         0.0732
      3 C4'        58.7980   20.9710    9.8500 C.3       1 GEO         0.1171
      4 O4'        59.8590   20.2730   10.5220 O.3       1 GEO        -0.3323
      5 C1'        59.9460   18.9270   10.0040 C.3       1 GEO         0.2498
      6 N1         60.5630   18.0170   10.9820 N.am      1 GEO        -0.1615
      7 C6         60.2740   18.1040   12.2840 C.2       1 GEO         0.0796
      8 C5         60.8830   17.2630   13.1980 C.2       1 GEO         0.0083
      9 C4         61.8260   16.3500   12.7210 C.2       1 GEO         0.0850
     10 N3         62.1010   16.3070   11.4060 N.2       1 GEO        -0.2774
     11 C2         61.4740   17.1390   10.5520 C.2       1 GEO         0.2513
     12 O2         61.7740   17.0490    9.2340 O.2       1 GEO        -0.4066
     13 N4         62.4730   15.4930   13.5450 N.pl3     1 GEO        -0.3156
     14 C2'        58.5110   18.5770    9.6250 C.3       1 GEO         0.3327
     15 F1         58.5260   17.7370    8.6000 F         1 GEO        -0.1964
     16 F2         57.8930   18.0860   10.6780 F         1 GEO        -0.1964
     17 C3'        57.8790   19.9060    9.2570 C.3       1 GEO         0.1521
     18 O3'        57.8670   20.0190    7.8390 O.3       1 GEO        -0.3830
     19 H1         56.8172   21.5282   12.3378 H         1 GEO         0.2095
     20 H2         58.7782   22.4296   11.4399 H         1 GEO         0.0584
     21 H3         57.3874   22.5382   10.3083 H         1 GEO         0.0584
     22 H4         59.2074   21.5997    9.0456 H         1 GEO         0.0648
     23 H5         60.5694   18.9167    9.0978 H         1 GEO         0.1062
     24 H6         59.5526   18.8436   12.6284 H         1 GEO         0.1328
     25 H7         60.6347   17.3114   14.2572 H         1 GEO         0.0373
     26 H8         63.1632   14.8317   13.1613 H         1 GEO         0.1833
     27 H9         62.2752   15.5021   14.5558 H         1 GEO         0.1833
     28 H10        56.8593   19.9918    9.6604 H         1 GEO         0.0682
     29 H11        57.4735   20.8475    7.5918 H         1 GEO         0.2101
@<TRIPOS>BOND
     1    1    2 1  
     2    2    3 1  
     3    3    4 1  
     4    3   17 1  
     5    4    5 1  
     6    5    6 1  
     7    5   14 1  
     8    6    7 am 
     9    6   11 am 
    10    7    8 2  
    11    8    9 1  
    12    9   10 2  
    13    9   13 1  
    14   10   11 1  
    15   11   12 2  
    16   14   15 1  
    17   14   16 1  
    18   14   17 1  
    19   17   18 1  
    20    1   19 1  
    21    2   20 1  
    22    2   21 1  
    23    3   22 1  
    24    5   23 1  
    25    7   24 1  
    26    8   25 1  
    27   13   26 1  
    28   13   27 1  
    29   17   28 1  
    30   18   29 1  
@<TRIPOS>SUBSTRUCTURE
     1 GEO         1

