### 
### Created by X-TOOL on Mon Sep 10 21:12:59 2018
### 

@<TRIPOS>MOLECULE
2vqj_ligand
   45    48     1     0     0
SMALL
GAST_HUCK


@<TRIPOS>ATOM
      1 C14        17.4590   74.0380   43.3590 C.ar      1 TFG        -0.0574
      2 C15        17.1750   74.2930   44.6940 C.ar      1 TFG        -0.0654
      3 C16        17.1960   75.5990   45.1830 C.ar      1 TFG        -0.0656
      4 C17        17.5070   76.6620   44.3370 C.ar      1 TFG        -0.0654
      5 C18        17.7910   76.4020   42.9980 C.ar      1 TFG        -0.0574
      6 C13        17.7600   75.0950   42.5000 C.ar      1 TFG        -0.0040
      7 C19        18.0830   74.8260   41.1680 C.2       1 TFG         0.0741
      8 C12        17.6760   73.8730   40.3310 C.2       1 TFG        -0.0204
      9 N3         18.3120   74.0180   39.1600 N.2       1 TFG        -0.3269
     10 C11        19.1490   75.0510   39.2300 C.2       1 TFG         0.1419
     11 C10        20.1030   75.6110   38.1580 C.3       1 TFG         0.1116
     12 N2         19.0310   75.5890   40.5150 N.pl3     1 TFG        -0.2378
     13 C9         19.7830   76.7560   40.9870 C.3       1 TFG         0.0776
     14 C8         20.9710   76.9710   40.1040 C.3       1 TFG         0.0643
     15 N1         20.5870   76.8860   38.6760 N.am      1 TFG        -0.2435
     16 C7         20.6840   78.0160   37.9880 C.2       1 TFG         0.2617
     17 O1         21.1230   78.9710   38.6340 O.2       1 TFG        -0.3593
     18 C4         20.4730   78.2510   36.4970 C.2       1 TFG         0.1616
     19 S1         20.1870   79.7750   35.8800 S.3       1 TFG         0.0185
     20 C3         20.6420   77.4050   35.4750 C.2       1 TFG         0.0158
     21 C2         20.4860   77.9730   34.2490 C.2       1 TFG        -0.0140
     22 C1         20.2200   79.2970   34.2650 C.2       1 TFG         0.0626
     23 C5         20.0180   80.2860   33.0780 C.3       1 TFG         0.2324
     24 C6         19.6110   79.6320   31.7570 C.3       1 TFG         0.3980
     25 F1         20.4430   78.6420   31.4460 F         1 TFG        -0.1798
     26 F2         18.3690   79.2160   31.8450 F         1 TFG        -0.1798
     27 F3         19.6670   80.5430   30.8120 F         1 TFG        -0.1798
     28 O3         19.0660   81.3140   33.4170 O.3       1 TFG        -0.4243
     29 O2         21.2750   80.9910   32.8330 O.3       1 TFG        -0.4243
     30 H1         17.4468   73.0205   42.9854 H         1 TFG         0.0589
     31 H2         16.9355   73.4721   45.3602 H         1 TFG         0.0607
     32 H3         16.9694   75.7882   46.2260 H         1 TFG         0.0585
     33 H4         17.5277   77.6775   44.7157 H         1 TFG         0.0607
     34 H5         18.0390   77.2223   42.3341 H         1 TFG         0.0589
     35 H6         16.9441   73.1002   40.5611 H         1 TFG         0.0482
     36 H7         19.5658   75.7629   37.2102 H         1 TFG         0.0770
     37 H8         20.9438   74.9204   37.9964 H         1 TFG         0.0770
     38 H9         20.1198   76.5826   42.0197 H         1 TFG         0.0632
     39 H10        19.1371   77.6459   40.9565 H         1 TFG         0.0632
     40 H11        21.7258   76.2008   40.3209 H         1 TFG         0.0552
     41 H12        21.3944   77.9662   40.3050 H         1 TFG         0.0552
     42 H13        20.8837   76.3521   35.6126 H         1 TFG         0.0724
     43 H14        20.5693   77.4034   33.3246 H         1 TFG         0.0985
     44 H15        18.2205   80.9166   33.5894 H         1 TFG         0.1887
     45 H16        21.9494   80.3628   32.6027 H         1 TFG         0.1887
@<TRIPOS>BOND
     1    1    2 ar 
     2    1    6 ar 
     3    2    3 ar 
     4    3    4 ar 
     5    4    5 ar 
     6    5    6 ar 
     7    6    7 1  
     8    7    8 2  
     9    7   12 1  
    10    8    9 1  
    11    9   10 2  
    12   10   11 1  
    13   10   12 1  
    14   11   15 1  
    15   12   13 1  
    16   13   14 1  
    17   14   15 1  
    18   15   16 am 
    19   16   17 2  
    20   16   18 1  
    21   18   19 1  
    22   18   20 2  
    23   19   22 1  
    24   20   21 1  
    25   21   22 2  
    26   22   23 1  
    27   23   24 1  
    28   23   28 1  
    29   23   29 1  
    30   24   25 1  
    31   24   26 1  
    32   24   27 1  
    33    1   30 1  
    34    2   31 1  
    35    3   32 1  
    36    4   33 1  
    37    5   34 1  
    38    8   35 1  
    39   11   36 1  
    40   11   37 1  
    41   13   38 1  
    42   13   39 1  
    43   14   40 1  
    44   14   41 1  
    45   20   42 1  
    46   21   43 1  
    47   28   44 1  
    48   29   45 1  
@<TRIPOS>SUBSTRUCTURE
     1 TFG         1

