### 
### Created by X-TOOL on Mon Sep 10 21:12:58 2018
### 

@<TRIPOS>MOLECULE
2vqm_ligand
   42    45     1     0     0
SMALL
GAST_HUCK


@<TRIPOS>ATOM
      1 CAA        17.3680   -5.0840   -9.3040 C.ar      1 HA3        -0.0574
      2 CAB        17.0230   -5.2880  -10.6380 C.ar      1 HA3        -0.0654
      3 CAC        17.0750   -6.5700  -11.1940 C.ar      1 HA3        -0.0656
      4 CAD        17.4880   -7.6460  -10.4020 C.ar      1 HA3        -0.0654
      5 CAE        17.8380   -7.4380   -9.0710 C.ar      1 HA3        -0.0574
      6 CAF        17.7780   -6.1520   -8.5000 C.ar      1 HA3        -0.0040
      7 CAG        18.1470   -5.9070   -7.1670 C.2       1 HA3         0.0741
      8 CAH        17.7870   -4.9090   -6.3450 C.2       1 HA3        -0.0204
      9 NAI        18.4090   -5.0470   -5.1610 N.2       1 HA3        -0.3269
     10 CAJ        19.1990   -6.1210   -5.1680 C.2       1 HA3         0.1418
     11 CAK        20.1230   -6.6990   -4.0480 C.3       1 HA3         0.1106
     12 NAL        19.0580   -6.7030   -6.4590 N.pl3     1 HA3        -0.2378
     13 CAM        19.7760   -7.9120   -6.8620 C.3       1 HA3         0.0775
     14 CAN        21.0040   -8.0170   -6.0080 C.3       1 HA3         0.0632
     15 NAO        20.6060   -7.9870   -4.5940 N.am      1 HA3        -0.2517
     16 CAP        20.6270   -9.1590   -3.9700 C.2       1 HA3         0.2191
     17 OAQ        21.0230  -10.1520   -4.6000 O.2       1 HA3        -0.3865
     18 CAR        20.3530   -9.3820   -2.5220 C.2       1 HA3         0.1087
     19 SAS        19.8070  -10.8420   -1.9240 S.3       1 HA3        -0.0069
     20 CAT        20.6990   -8.5630   -1.5270 C.2       1 HA3        -0.0439
     21 CAU        20.4490   -9.0700   -0.3000 C.2       1 HA3        -0.0438
     22 CAV        19.9460  -10.3070   -0.3350 C.2       1 HA3         0.1101
     23 CAW        19.5660  -11.1530    0.8670 C.2       1 HA3         0.2369
     24 OAY        19.3640  -12.3580    0.7130 O.2       1 HA3        -0.3871
     25 NAX        19.5020  -10.5070    2.0410 N.am      1 HA3        -0.1636
     26 OAZ        19.1660  -11.2050    3.1600 O.3       1 HA3        -0.2723
     27 H1         17.3181   -4.0858   -8.8843 H         1 HA3         0.0589
     28 H2         16.7124   -4.4480  -11.2487 H         1 HA3         0.0607
     29 H3         16.7976   -6.7284  -12.2299 H         1 HA3         0.0585
     30 H4         17.5356   -8.6429  -10.8250 H         1 HA3         0.0607
     31 H5         18.1611   -8.2772   -8.4657 H         1 HA3         0.0589
     32 H6         17.0948   -4.1075   -6.5989 H         1 HA3         0.0482
     33 H7         19.5552   -6.8588   -3.1195 H         1 HA3         0.0769
     34 H8         20.9656   -6.0201   -3.8503 H         1 HA3         0.0769
     35 H9         20.0614   -7.8428   -7.9221 H         1 HA3         0.0632
     36 H10        19.1377   -8.7950   -6.7110 H         1 HA3         0.0632
     37 H11        21.6747   -7.1714   -6.2205 H         1 HA3         0.0551
     38 H12        21.5246   -8.9614   -6.2248 H         1 HA3         0.0551
     39 H13        21.1403   -7.5806   -1.6885 H         1 HA3         0.0540
     40 H14        20.6383   -8.5255    0.6239 H         1 HA3         0.0539
     41 H15        19.6981   -9.5278    2.0931 H         1 HA3         0.2207
     42 H16        19.8006  -11.8975    3.3024 H         1 HA3         0.2490
@<TRIPOS>BOND
     1    1    2 ar 
     2    1    6 ar 
     3    2    3 ar 
     4    3    4 ar 
     5    4    5 ar 
     6    5    6 ar 
     7    6    7 1  
     8    7    8 2  
     9    7   12 1  
    10    8    9 1  
    11    9   10 2  
    12   10   11 1  
    13   10   12 1  
    14   11   15 1  
    15   12   13 1  
    16   13   14 1  
    17   14   15 1  
    18   15   16 am 
    19   16   17 2  
    20   16   18 1  
    21   18   19 1  
    22   18   20 2  
    23   19   22 1  
    24   20   21 1  
    25   21   22 2  
    26   22   23 1  
    27   23   24 2  
    28   23   25 am 
    29   25   26 1  
    30    1   27 1  
    31    2   28 1  
    32    3   29 1  
    33    4   30 1  
    34    5   31 1  
    35    8   32 1  
    36   11   33 1  
    37   11   34 1  
    38   13   35 1  
    39   13   36 1  
    40   14   37 1  
    41   14   38 1  
    42   20   39 1  
    43   21   40 1  
    44   25   41 1  
    45   26   42 1  
@<TRIPOS>SUBSTRUCTURE
     1 HA3         1

