### 
### Created by X-TOOL on Mon Sep 10 21:12:57 2018
### 

@<TRIPOS>MOLECULE
2vqt_ligand
   33    33     1     0     0
SMALL
GAST_HUCK


@<TRIPOS>ATOM
      1 O6         26.8870   49.7360   -3.5530 O.3       1 15A        -0.3925
      2 C6         25.9940   49.6520   -2.5910 C.3       1 15A         0.0707
      3 C5         26.3510   48.4220   -1.7190 C.3       1 15A         0.0976
      4 C4         27.5270   48.5780   -0.7100 C.3       1 15A         0.1124
      5 O4         27.2290   49.5370    0.2070 O.3       1 15A        -0.3864
      6 C3         27.9770   47.2330   -0.0400 C.3       1 15A         0.1289
      7 O3         29.2890   47.1180    0.0840 O.3       1 15A        -0.3832
      8 C2         27.4200   45.9670   -0.7780 C.3       1 15A         0.1647
      9 O2         28.0270   44.7830   -0.4910 O.3       1 15A        -0.3647
     10 N5         26.5860   47.3310   -2.5920 N.pl3     1 15A        -0.2792
     11 C1         27.3150   46.2420   -2.2690 C.2       1 15A         0.1244
     12 N1         27.8990   45.4260   -3.1680 N.2       1 15A        -0.3676
     13 C7         28.1310   45.7100   -4.5470 C.3       1 15A         0.0150
     14 C8         29.3210   46.6510   -4.9110 C.3       1 15A        -0.0323
     15 N2         30.6010   45.9580   -4.6720 N.4       1 15A         0.2187
     16 H1         26.6889   50.4849   -4.1029 H         1 15A         0.2095
     17 H2         24.9900   49.5260   -3.0224 H         1 15A         0.0582
     18 H3         26.0177   50.5649   -1.9777 H         1 15A         0.0582
     19 H4         25.4597   48.1916   -1.1170 H         1 15A         0.0619
     20 H5         28.3917   48.9397   -1.2857 H         1 15A         0.0647
     21 H6         27.0856   50.3645   -0.2370 H         1 15A         0.2100
     22 H7         27.5530   47.2334    0.9750 H         1 15A         0.0682
     23 H8         29.6918   47.1568   -0.7755 H         1 15A         0.2103
     24 H9         26.3877   45.8481   -0.4171 H         1 15A         0.0923
     25 H10        27.6138   44.0876   -0.9893 H         1 15A         0.2149
     26 H11        26.1735   47.3716   -3.5349 H         1 15A         0.1937
     27 H12        27.2153   46.1721   -4.9444 H         1 15A         0.0352
     28 H13        28.3067   44.7496   -5.0537 H         1 15A         0.0352
     29 H14        29.2743   47.5559   -4.2873 H         1 15A         0.0815
     30 H15        29.2516   46.9329   -5.9720 H         1 15A         0.0815
     31 H16        31.3647   46.5717   -4.9092 H         1 15A         0.1994
     32 H17        30.6461   45.1290   -5.2436 H         1 15A         0.1994
     33 H18        30.6670   45.6998   -3.6999 H         1 15A         0.1994
@<TRIPOS>BOND
     1    1    2 1  
     2    2    3 1  
     3    3    4 1  
     4    3   10 1  
     5    4    5 1  
     6    4    6 1  
     7    6    7 1  
     8    6    8 1  
     9    8    9 1  
    10    8   11 1  
    11   10   11 1  
    12   11   12 2  
    13   12   13 1  
    14   13   14 1  
    15   14   15 1  
    16    1   16 1  
    17    2   17 1  
    18    2   18 1  
    19    3   19 1  
    20    4   20 1  
    21    5   21 1  
    22    6   22 1  
    23    7   23 1  
    24    8   24 1  
    25    9   25 1  
    26   10   26 1  
    27   13   27 1  
    28   13   28 1  
    29   14   29 1  
    30   14   30 1  
    31   15   31 1  
    32   15   32 1  
    33   15   33 1  
@<TRIPOS>SUBSTRUCTURE
     1 15A         1

