### 
### Created by X-TOOL on Mon Sep 10 21:12:57 2018
### 

@<TRIPOS>MOLECULE
2vr4_ligand
   39    39     1     0     0
SMALL
GAST_HUCK


@<TRIPOS>ATOM
      1 C8         29.5950   46.6310   -6.3240 C.3       1 17B        -0.0107
      2 C2         27.4400   45.8710   -0.5910 C.3       1 17B         0.1646
      3 C3         27.8810   47.1310    0.2300 C.3       1 17B         0.1271
      4 C4         27.5730   48.4660   -0.5100 C.3       1 17B         0.0944
      5 C5         26.4470   48.2670   -1.5740 C.3       1 17B         0.0385
      6 C6         26.0000   49.5260   -2.3360 C.3       1 17B         0.0525
      7 O2         28.0900   44.6220   -0.3750 O.3       1 17B        -0.3647
      8 O3         29.2770   47.0030    0.4690 O.3       1 17B        -0.3833
      9 O4         27.2360   49.5130    0.4040 O.3       1 17B        -0.3884
     10 N5         26.8710   47.2740   -2.5080 N.2       1 17B        -0.3646
     11 O6         27.0450   49.9150   -3.2470 O.3       1 17B        -0.3945
     12 N1         31.8730   46.8640   -7.3280 N.4       1 17B         0.2185
     13 C7         30.7030   47.5930   -6.8020 C.3       1 17B        -0.0353
     14 C10        28.3310   45.5570   -4.3910 C.3       1 17B         0.0352
     15 C9         29.5140   46.4600   -4.8000 C.3       1 17B        -0.0269
     16 N2         28.1720   45.3870   -2.9500 N.pl3     1 17B        -0.2870
     17 C1         27.5150   46.1980   -2.1250 C.2       1 17B         0.1242
     18 H1         29.7811   45.6433   -6.7711 H         1 17B         0.0317
     19 H2         28.6280   47.0176   -6.6782 H         1 17B         0.0317
     20 H3         26.3836   45.7065   -0.3323 H         1 17B         0.0923
     21 H4         27.3451   47.1375    1.1906 H         1 17B         0.0682
     22 H5         28.4867   48.7703   -1.0416 H         1 17B         0.0628
     23 H6         25.5637   47.8865   -1.0402 H         1 17B         0.0384
     24 H7         25.8096   50.3414   -1.6226 H         1 17B         0.0563
     25 H8         25.0805   49.3096   -2.8996 H         1 17B         0.0563
     26 H9         27.7092   43.9652   -0.9460 H         1 17B         0.2149
     27 H10        29.7411   47.0106   -0.3600 H         1 17B         0.2103
     28 H11        27.1220   50.3255   -0.0750 H         1 17B         0.2099
     29 H12        27.8379   50.0998   -2.7574 H         1 17B         0.2094
     30 H13        32.5726   47.5242   -7.6292 H         1 17B         0.1994
     31 H14        31.5902   46.2941   -8.1098 H         1 17B         0.1994
     32 H15        32.2556   46.2758   -6.6044 H         1 17B         0.1994
     33 H16        31.0236   48.2161   -5.9541 H         1 17B         0.0813
     34 H17        30.2975   48.2361   -7.5970 H         1 17B         0.0813
     35 H18        28.4847   44.5644   -4.8395 H         1 17B         0.0533
     36 H19        27.4063   46.0001   -4.7892 H         1 17B         0.0533
     37 H20        29.3849   47.4491   -4.3363 H         1 17B         0.0287
     38 H21        30.4498   46.0063   -4.4416 H         1 17B         0.0287
     39 H22        28.6125   44.5561   -2.5299 H         1 17B         0.1932
@<TRIPOS>BOND
     1    1   13 1  
     2   15    1 1  
     3    2    3 1  
     4    2    7 1  
     5   17    2 1  
     6    3    4 1  
     7    3    8 1  
     8    5    4 1  
     9    4    9 1  
    10    5    6 1  
    11   10    5 1  
    12    6   11 1  
    13   17   10 2  
    14   13   12 1  
    15   14   15 1  
    16   16   14 1  
    17   16   17 1  
    18    1   18 1  
    19    1   19 1  
    20    2   20 1  
    21    3   21 1  
    22    4   22 1  
    23    5   23 1  
    24    6   24 1  
    25    6   25 1  
    26    7   26 1  
    27    8   27 1  
    28    9   28 1  
    29   11   29 1  
    30   12   30 1  
    31   12   31 1  
    32   12   32 1  
    33   13   33 1  
    34   13   34 1  
    35   14   35 1  
    36   14   36 1  
    37   15   37 1  
    38   15   38 1  
    39   16   39 1  
@<TRIPOS>SUBSTRUCTURE
     1 17B         1

