### 
### Created by X-TOOL on Mon Sep 10 21:12:58 2018
### 

@<TRIPOS>MOLECULE
2vrj_ligand
   50    51     1     0     0
SMALL
GAST_HUCK


@<TRIPOS>ATOM
      1 S1          0.2420    7.8640   11.4280 S.2       1 NCW        -0.3116
      2 C7         -0.6110    7.9650   10.0870 C.2       1 NCW         0.1410
      3 N1         -1.2620    9.0930    9.7300 N.am      1 NCW        -0.2319
      4 C5         -2.0640    9.2390    8.5310 C.3       1 NCW         0.1048
      5 C4         -1.1450   10.0620    7.6440 C.3       1 NCW         0.1105
      6 O4         -1.9100   10.3860    6.4730 O.3       1 NCW        -0.3866
      7 C3         -0.5970   11.3480    8.3160 C.3       1 NCW         0.1139
      8 O3          0.5910   11.8390    7.6950 O.3       1 NCW        -0.3864
      9 C2         -0.2190   11.1670    9.7920 C.3       1 NCW         0.1328
     10 O2          0.0160   12.4530   10.4040 O.3       1 NCW        -0.3842
     11 C6         -3.1740   10.1240    9.0590 C.3       1 NCW         0.0781
     12 O1         -2.6060   10.8130   10.1920 O.3       1 NCW        -0.3473
     13 C1         -1.2890   10.3230   10.4910 C.3       1 NCW         0.1799
     14 N2         -0.6770    6.8830    9.3030 N.am      1 NCW        -0.2824
     15 C8          0.3010    5.8010    9.3510 C.3       1 NCW         0.0365
     16 C9         -0.2490    4.5530    8.6730 C.3       1 NCW        -0.0310
     17 C10        -0.8990    4.8970    7.3310 C.3       1 NCW        -0.0511
     18 C11        -0.3780    4.0570    6.1870 C.3       1 NCW        -0.0530
     19 C12         1.1570    4.2110    6.1560 C.3       1 NCW        -0.0531
     20 C13         1.7700    2.9700    6.5910 C.3       1 NCW        -0.0533
     21 C14         0.6890    1.8730    6.4360 C.3       1 NCW        -0.0559
     22 C15         1.0310    0.7550    7.3610 C.3       1 NCW        -0.0653
     23 H1         -2.4123    8.3038    8.0683 H         1 NCW         0.0631
     24 H2         -0.2838    9.4408    7.3568 H         1 NCW         0.0646
     25 H3         -2.1783    9.5843    6.0396 H         1 NCW         0.2100
     26 H4         -1.3829   12.1141    8.2424 H         1 NCW         0.0648
     27 H5          0.4102   12.0429    6.7850 H         1 NCW         0.2100
     28 H6          0.7256   10.6054    9.8392 H         1 NCW         0.0670
     29 H7         -0.7728   12.9792   10.3455 H         1 NCW         0.2101
     30 H8         -4.0361    9.5160    9.3706 H         1 NCW         0.0586
     31 H9         -3.4915   10.8437    8.2901 H         1 NCW         0.0586
     32 H10        -1.1059   10.2059   11.5693 H         1 NCW         0.0921
     33 H11        -1.4332    6.8122    8.6525 H         1 NCW         0.1973
     34 H12         0.5334    5.5696   10.4010 H         1 NCW         0.0542
     35 H13         1.2183    6.1192    8.8339 H         1 NCW         0.0542
     36 H14        -1.0013    4.0899    9.3284 H         1 NCW         0.0286
     37 H15         0.5747    3.8442    8.5021 H         1 NCW         0.0286
     38 H16        -0.7004    5.9554    7.1069 H         1 NCW         0.0266
     39 H17        -1.9840    4.7376    7.4165 H         1 NCW         0.0266
     40 H18        -0.8093    4.4074    5.2377 H         1 NCW         0.0265
     41 H19        -0.6459    3.0018    6.3442 H         1 NCW         0.0265
     42 H20         1.4586    5.0263    6.8300 H         1 NCW         0.0265
     43 H21         1.4829    4.4428    5.1313 H         1 NCW         0.0265
     44 H22         2.0846    3.0487    7.6421 H         1 NCW         0.0265
     45 H23         2.6426    2.7359    5.9636 H         1 NCW         0.0265
     46 H24         0.6740    1.5077    5.3985 H         1 NCW         0.0263
     47 H25        -0.2985    2.2828    6.6949 H         1 NCW         0.0263
     48 H26         0.2762   -0.0400    7.2701 H         1 NCW         0.0230
     49 H27         1.0483    1.1275    8.3958 H         1 NCW         0.0230
     50 H28         2.0207    0.3525    7.0995 H         1 NCW         0.0230
@<TRIPOS>BOND
     1    1    2 2  
     2    2    3 am 
     3    2   14 am 
     4    3    4 1  
     5    3   13 1  
     6    4    5 1  
     7    4   11 1  
     8    5    6 1  
     9    5    7 1  
    10    7    8 1  
    11    7    9 1  
    12    9   10 1  
    13    9   13 1  
    14   11   12 1  
    15   12   13 1  
    16   14   15 1  
    17   15   16 1  
    18   16   17 1  
    19   17   18 1  
    20   18   19 1  
    21   19   20 1  
    22   20   21 1  
    23   21   22 1  
    24    4   23 1  
    25    5   24 1  
    26    6   25 1  
    27    7   26 1  
    28    8   27 1  
    29    9   28 1  
    30   10   29 1  
    31   11   30 1  
    32   11   31 1  
    33   13   32 1  
    34   14   33 1  
    35   15   34 1  
    36   15   35 1  
    37   16   36 1  
    38   16   37 1  
    39   17   38 1  
    40   17   39 1  
    41   18   40 1  
    42   18   41 1  
    43   19   42 1  
    44   19   43 1  
    45   20   44 1  
    46   20   45 1  
    47   21   46 1  
    48   21   47 1  
    49   22   48 1  
    50   22   49 1  
    51   22   50 1  
@<TRIPOS>SUBSTRUCTURE
     1 NCW         1

