### 
### Created by X-TOOL on Mon Sep 10 21:12:57 2018
### 

@<TRIPOS>MOLECULE
2vrx_ligand
   70    74     1     0     0
SMALL
GAST_HUCK


@<TRIPOS>ATOM
      1 CAT        16.9480   -4.8250    2.4360 C.3       1 447        -0.0078
      2 CAQ        17.3820   -6.2530    2.0430 C.3       1 447         0.0878
      3 OBA        16.5960   -7.2470    2.7910 O.3       1 447        -0.3693
      4 CAR        15.1470   -7.1230    2.5830 C.3       1 447         0.0878
      5 CAU        14.6970   -5.6620    2.7900 C.3       1 447        -0.0078
      6 NBL        15.8080   -4.8830    3.3800 N.4       1 447         0.2385
      7 CAS        15.3820   -3.5720    3.9270 C.3       1 447        -0.0292
      8 CAO        15.0790   -2.4420    2.9320 C.3       1 447         0.0154
      9 CAP        14.4450   -1.2650    3.6960 C.3       1 447         0.0759
     10 OBB        13.0060   -1.3450    3.5830 O.3       1 447        -0.3128
     11 CBH        12.2380   -0.2830    3.9940 C.ar      1 447         0.1324
     12 CAM        12.7310    0.7920    4.7430 C.ar      1 447        -0.0171
     13 CBG        10.8780   -0.3020    3.6260 C.ar      1 447         0.1317
     14 OAZ        10.3890   -1.3700    2.9090 O.3       1 447        -0.3199
     15 CAA        10.9840   -1.6140    1.6320 C.3       1 447         0.0583
     16 CAN        10.0240    0.7310    4.0110 C.ar      1 447        -0.0174
     17 C5         10.5130    1.8090    4.7560 C.ar      1 447         0.0385
     18 C4         11.8710    1.8320    5.1180 C.ar      1 447         0.0259
     19 N3         12.3590    2.8570    5.8350 N.ar      1 447        -0.3061
     20 C2         11.5260    3.9110    6.2290 C.ar      1 447         0.0518
     21 N1         10.1700    3.8940    5.8630 N.ar      1 447        -0.2620
     22 C6          9.6760    2.8680    5.1470 C.ar      1 447         0.1478
     23 NAY         8.3690    2.7990    4.7810 N.pl3     1 447        -0.2564
     24 CBE         7.4690    3.7150    5.2320 C.ar      1 447         0.0540
     25 CAK         6.5350    4.2520    4.3440 C.ar      1 447        -0.0490
     26 CAI         5.5910    5.1880    4.7760 C.ar      1 447        -0.0485
     27 CAJ         7.4250    4.1240    6.5690 C.ar      1 447        -0.0490
     28 CAH         6.4830    5.0570    7.0060 C.ar      1 447        -0.0485
     29 CBD         5.5490    5.5900    6.1190 C.ar      1 447         0.0563
     30 NAX         4.6720    6.5130    6.5840 N.am      1 447        -0.2388
     31 CBC         3.4990    6.7670    5.9550 C.2       1 447         0.2298
     32 OAB         3.1050    6.1950    4.9340 O.2       1 447        -0.3743
     33 CBF         2.7220    7.7630    6.5530 C.ar      1 447         0.0554
     34 CAF         1.4280    8.0110    6.0900 C.ar      1 447        -0.0416
     35 CAD         0.6540    9.0080    6.6780 C.ar      1 447        -0.0562
     36 CAC         1.1690    9.7650    7.7290 C.ar      1 447        -0.0576
     37 CAE         2.4560    9.5160    8.1970 C.ar      1 447        -0.0562
     38 CAG         3.2330    8.5240    7.6040 C.ar      1 447        -0.0416
     39 H1         16.6452   -4.2749    1.5329 H         1 447         0.0837
     40 H2         17.7917   -4.3069    2.9154 H         1 447         0.0837
     41 H3         18.4493   -6.3850    2.2743 H         1 447         0.0613
     42 H4         17.2198   -6.3983    0.9648 H         1 447         0.0613
     43 H5         14.6211   -7.7694    3.3011 H         1 447         0.0613
     44 H6         14.8998   -7.4366    1.5580 H         1 447         0.0613
     45 H7         13.8313   -5.6375    3.4682 H         1 447         0.0837
     46 H8         14.4162   -5.2239    1.8209 H         1 447         0.0837
     47 H9         16.1326   -5.4110    4.1749 H         1 447         0.2035
     48 H10        16.1845   -3.2176    4.5906 H         1 447         0.0815
     49 H11        14.4687   -3.7438    4.5155 H         1 447         0.0815
     50 H12        14.3798   -2.8035    2.1637 H         1 447         0.0343
     51 H13        16.0121   -2.1116    2.4523 H         1 447         0.0343
     52 H14        14.7956   -0.3154    3.2655 H         1 447         0.0617
     53 H15        14.7342   -1.3160    4.7561 H         1 447         0.0617
     54 H16        13.7754    0.8195    5.0320 H         1 447         0.0495
     55 H17        10.5065   -2.4886    1.1661 H         1 447         0.0575
     56 H18        12.0593   -1.8078    1.7595 H         1 447         0.0575
     57 H19        10.8439   -0.7334    0.9879 H         1 447         0.0575
     58 H20         8.9771    0.6984    3.7318 H         1 447         0.0546
     59 H21        11.9243    4.7336    6.8119 H         1 447         0.1015
     60 H22         8.0556    2.0440    4.1544 H         1 447         0.2180
     61 H23         6.5420    3.9390    3.3062 H         1 447         0.0509
     62 H24         4.8856    5.6066    4.0672 H         1 447         0.0481
     63 H25         8.1337    3.7099    7.2770 H         1 447         0.0509
     64 H26         6.4778    5.3697    8.0439 H         1 447         0.0481
     65 H27         4.8972    7.0212    7.4153 H         1 447         0.2222
     66 H28         1.0253    7.4260    5.2710 H         1 447         0.0669
     67 H29        -0.3510    9.1958    6.3177 H         1 447         0.0629
     68 H30         0.5684   10.5461    8.1810 H         1 447         0.0652
     69 H31         2.8536   10.0943    9.0232 H         1 447         0.0629
     70 H32         4.2402    8.3424    7.9612 H         1 447         0.0669
@<TRIPOS>BOND
     1    1    2 1  
     2    1    6 1  
     3    2    3 1  
     4    3    4 1  
     5    4    5 1  
     6    5    6 1  
     7    6    7 1  
     8    7    8 1  
     9    8    9 1  
    10    9   10 1  
    11   10   11 1  
    12   11   12 ar 
    13   11   13 ar 
    14   12   18 ar 
    15   13   14 1  
    16   13   16 ar 
    17   14   15 1  
    18   16   17 ar 
    19   17   18 ar 
    20   17   22 ar 
    21   18   19 ar 
    22   19   20 ar 
    23   20   21 ar 
    24   21   22 ar 
    25   22   23 1  
    26   23   24 1  
    27   24   25 ar 
    28   24   27 ar 
    29   25   26 ar 
    30   26   29 ar 
    31   27   28 ar 
    32   28   29 ar 
    33   29   30 1  
    34   30   31 am 
    35   31   32 2  
    36   31   33 1  
    37   33   34 ar 
    38   33   38 ar 
    39   34   35 ar 
    40   35   36 ar 
    41   36   37 ar 
    42   37   38 ar 
    43    1   39 1  
    44    1   40 1  
    45    2   41 1  
    46    2   42 1  
    47    4   43 1  
    48    4   44 1  
    49    5   45 1  
    50    5   46 1  
    51    6   47 1  
    52    7   48 1  
    53    7   49 1  
    54    8   50 1  
    55    8   51 1  
    56    9   52 1  
    57    9   53 1  
    58   12   54 1  
    59   15   55 1  
    60   15   56 1  
    61   15   57 1  
    62   16   58 1  
    63   20   59 1  
    64   23   60 1  
    65   25   61 1  
    66   26   62 1  
    67   27   63 1  
    68   28   64 1  
    69   30   65 1  
    70   34   66 1  
    71   35   67 1  
    72   36   68 1  
    73   37   69 1  
    74   38   70 1  
@<TRIPOS>SUBSTRUCTURE
     1 447         1

