### 
### Created by X-TOOL on Mon Sep 10 21:12:58 2018
### 

@<TRIPOS>MOLECULE
2vsl_ligand
   73    74     1     0     0
SMALL
GAST_HUCK


@<TRIPOS>ATOM
      1 N           7.7810   20.2410   27.4610 N.4       1 MAA         0.2438
      2 CM          6.3860   20.1890   27.9010 C.3       1 MAA        -0.0428
      3 CA          7.9670   18.8040   27.3140 C.3       1 MAA         0.0637
      4 CB          8.8310   18.5030   26.0910 C.3       1 MAA        -0.0039
      5 C           8.6280   18.2500   28.5610 C.2       1 MAA         0.2265
      6 O           9.4150   18.9310   29.2220 O.2       1 MAA        -0.3907
      7 N           8.3010   17.0080   28.8840 N.am      1 LYS        -0.2610
      8 CA          8.8680   16.3620   30.0520 C.3       1 LYS         0.1313
      9 C           9.8090   15.2630   29.5790 C.2       1 LYS         0.2064
     10 O           9.5290   14.5620   28.6020 O.2       1 LYS        -0.3942
     11 CB          7.7520   15.7630   30.9160 C.3       1 LYS        -0.0122
     12 CG          8.2160   15.2460   32.2640 C.3       1 LYS        -0.0440
     13 CD          7.0560   14.7010   33.0830 C.3       1 LYS        -0.0124
     14 CE          7.5440   14.2250   34.4460 C.3       1 LYS        -0.0354
     15 NZ          8.6000   13.1900   34.2970 N.4       1 LYS         0.2185
     16 N          10.9510   15.1140   30.2480 N.am      1 PRO        -0.2498
     17 CA         11.9090   14.0760   29.8630 C.3       1 PRO         0.1338
     18 C          11.4990   12.7350   30.4680 C.2       1 PRO         0.2043
     19 O          10.7260   12.6990   31.4230 O.2       1 PRO        -0.3944
     20 CB         13.2070   14.5810   30.4680 C.3       1 PRO        -0.0104
     21 CG         12.7250   15.2040   31.7490 C.3       1 PRO        -0.0281
     22 CD         11.5190   15.9950   31.2840 C.3       1 PRO         0.0369
     23 N          12.0130   11.6430   29.9110 N.am      1 PHE        -0.2606
     24 CA         11.7320   10.3100   30.4430 C.3       1 PHE         0.1515
     25 C          12.9260    9.4270   30.1160 C.2       1 PHE         0.2591
     26 O          13.6900    9.8540   29.2190 O.2       1 PHE        -0.3678
     27 CB         10.4520    9.7220   29.8300 C.3       1 PHE         0.0228
     28 CG         10.5960    9.3120   28.3960 C.ar      1 PHE        -0.0384
     29 CD1        11.1900    8.1020   28.0600 C.ar      1 PHE        -0.0601
     30 CD2        10.1530   10.1460   27.3750 C.ar      1 PHE        -0.0601
     31 CE1        11.3410    7.7310   26.7260 C.ar      1 PHE        -0.0686
     32 CE2        10.3000    9.7820   26.0400 C.ar      1 PHE        -0.0686
     33 CZ         10.8930    8.5770   25.7140 C.ar      1 PHE        -0.0687
     34 O1         13.1456    8.2744   30.7423 O.3       1 PHE        -0.2908
     35 H1          8.3912   20.6407   28.1566 H         1 MAA         0.2032
     36 H2          7.8937   20.7365   26.5905 H         1 MAA         0.2032
     37 H3          6.0197   21.2107   28.0799 H         1 MAA         0.0777
     38 H4          6.3164   19.6064   28.8314 H         1 MAA         0.0777
     39 H5          5.7735   19.7110   27.1224 H         1 MAA         0.0777
     40 H6          6.9847   18.3263   27.1841 H         1 MAA         0.1096
     41 H7          8.9622   17.4152   25.9936 H         1 MAA         0.0310
     42 H8          9.8142   18.9817   26.2098 H         1 MAA         0.0310
     43 H9          8.3388   18.8952   25.1888 H         1 MAA         0.0310
     44 H10         7.6515   16.5067   28.3123 H         1 LYS         0.1884
     45 H11         9.4296   17.0988   30.6450 H         1 LYS         0.0800
     46 H12         7.2998   14.9264   30.3633 H         1 LYS         0.0312
     47 H13         6.9940   16.5413   31.0879 H         1 LYS         0.0312
     48 H14         8.6890   16.0696   32.8189 H         1 LYS         0.0269
     49 H15         8.9497   14.4420   32.1049 H         1 LYS         0.0269
     50 H16         6.5991   13.8563   32.5466 H         1 LYS         0.0317
     51 H17         6.3072   15.4945   33.2232 H         1 LYS         0.0317
     52 H18         6.6971   13.7983   35.0034 H         1 LYS         0.0813
     53 H19         7.9543   15.0813   35.0013 H         1 LYS         0.0813
     54 H20         8.9075   12.8901   35.2089 H         1 LYS         0.1994
     55 H21         9.3804   13.5768   33.7896 H         1 LYS         0.1994
     56 H22         8.2283   12.4011   33.7915 H         1 LYS         0.1994
     57 H23        11.9873   13.9838   28.7697 H         1 PRO         0.0802
     58 H24        13.6898   15.3250   29.8173 H         1 PRO         0.0313
     59 H25        13.9067   13.7549   30.6625 H         1 PRO         0.0313
     60 H26        12.4399   14.4364   32.4836 H         1 PRO         0.0287
     61 H27        13.4904   15.8627   32.1852 H         1 PRO         0.0287
     62 H28        10.8060   16.1556   32.1061 H         1 PRO         0.0524
     63 H29        11.8172   16.9662   30.8623 H         1 PRO         0.0524
     64 H30        12.6050   11.7350   29.1103 H         1 PHE         0.1886
     65 H31        11.6069   10.3716   31.5341 H         1 PHE         0.0840
     66 H32         9.6575   10.4800   29.8949 H         1 PHE         0.0475
     67 H33        10.1630    8.8368   30.4155 H         1 PHE         0.0475
     68 H34        11.5395    7.4399   28.8439 H         1 PHE         0.0557
     69 H35         9.6867   11.0928   27.6226 H         1 PHE         0.0557
     70 H36        11.8067    6.7847   26.4755 H         1 PHE         0.0599
     71 H37         9.9495   10.4434   25.2560 H         1 PHE         0.0599
     72 H38        11.0091    8.2913   24.6748 H         1 PHE         0.0559
     73 H39        13.1453    7.5662   30.1091 H         1 PHE         0.2540
@<TRIPOS>BOND
     1    1    2 1  
     2    3    1 1  
     3    3    4 1  
     4    5    3 1  
     5    5    6 2  
     6    7    8 1  
     7    8   11 1  
     8    8    9 1  
     9    9   10 2  
    10   11   12 1  
    11   12   13 1  
    12   13   14 1  
    13   14   15 1  
    14   17   18 1  
    15   17   20 1  
    16   16   17 1  
    17   16   22 1  
    18   22   21 1  
    19   21   20 1  
    20   18   19 2  
    21    9   16 am 
    22   23   24 1  
    23   24   27 1  
    24   24   25 1  
    25   25   26 2  
    26   27   28 1  
    27   28   29 ar 
    28   28   30 ar 
    29   30   32 ar 
    30   32   33 ar 
    31   31   33 ar 
    32   29   31 ar 
    33   18   23 am 
    34    5    7 am 
    35   25   34 1  
    36    1   35 1  
    37    1   36 1  
    38    2   37 1  
    39    2   38 1  
    40    2   39 1  
    41    3   40 1  
    42    4   41 1  
    43    4   42 1  
    44    4   43 1  
    45    7   44 1  
    46    8   45 1  
    47   11   46 1  
    48   11   47 1  
    49   12   48 1  
    50   12   49 1  
    51   13   50 1  
    52   13   51 1  
    53   14   52 1  
    54   14   53 1  
    55   15   54 1  
    56   15   55 1  
    57   15   56 1  
    58   17   57 1  
    59   20   58 1  
    60   20   59 1  
    61   21   60 1  
    62   21   61 1  
    63   22   62 1  
    64   22   63 1  
    65   23   64 1  
    66   24   65 1  
    67   27   66 1  
    68   27   67 1  
    69   29   68 1  
    70   30   69 1  
    71   31   70 1  
    72   32   71 1  
    73   33   72 1  
    74   34   73 1  
@<TRIPOS>SUBSTRUCTURE
     1 MAA         1

