### 
### Created by X-TOOL on Mon Sep 10 21:12:59 2018
### 

@<TRIPOS>MOLECULE
2vta_ligand
   15    16     1     0     0
SMALL
GAST_HUCK


@<TRIPOS>ATOM
      1 C1         26.6470    4.4300   64.2630 C.ar      1 LZ1        -0.0139
      2 C2         27.3290    5.6500   64.3750 C.ar      1 LZ1         0.0328
      3 C3         26.8640    6.7380   63.6400 C.ar      1 LZ1        -0.0467
      4 C4         25.7620    6.6120   62.8130 C.ar      1 LZ1        -0.0607
      5 C5         25.1030    5.4010   62.7060 C.ar      1 LZ1        -0.0617
      6 C6         25.5450    4.3090   63.4260 C.ar      1 LZ1        -0.0588
      7 N          27.3080    3.5470   65.0780 N.2       1 LZ1        -0.3343
      8 C9         28.3840    5.4130   65.2900 C.2       1 LZ1         0.1093
      9 N2         28.3640    4.1370   65.6980 N.pl3     1 LZ1        -0.2447
     10 H1         27.3707    7.6932   63.7167 H         1 LZ1         0.0629
     11 H2         25.4132    7.4674   62.2458 H         1 LZ1         0.0618
     12 H3         24.2396    5.3091   62.0570 H         1 LZ1         0.0618
     13 H4         25.0324    3.3579   63.3382 H         1 LZ1         0.0618
     14 H5         29.1068    6.1599   65.6149 H         1 LZ1         0.1369
     15 H6         29.0208    3.6902   66.3537 H         1 LZ1         0.2935
@<TRIPOS>BOND
     1    1    2 ar 
     2    1    6 ar 
     3    1    7 2  
     4    2    3 ar 
     5    2    8 2  
     6    3    4 ar 
     7    4    5 ar 
     8    5    6 ar 
     9    7    9 1  
    10    8    9 1  
    11    3   10 1  
    12    4   11 1  
    13    5   12 1  
    14    6   13 1  
    15    8   14 1  
    16    9   15 1  
@<TRIPOS>SUBSTRUCTURE
     1 LZ1         1

