### 
### Created by X-TOOL on Mon Sep 10 21:12:57 2018
### 

@<TRIPOS>MOLECULE
2vtd_ligand
   51    53     1     0     0
SMALL
GAST_HUCK


@<TRIPOS>ATOM
      1 N31        -1.5900  -11.2160  -21.1870 N.1       1 LKM        -0.3338
      2 C30        -1.4950  -12.3550  -21.2760 C.1       1 LKM         0.0923
      3 C27        -1.4160  -13.6220  -21.4690 C.ar      1 LKM         0.0866
      4 C28        -1.2150  -14.5500  -20.4550 C.ar      1 LKM        -0.0372
      5 C29        -1.1500  -15.9090  -20.7670 C.ar      1 LKM        -0.0475
      6 C26        -1.5550  -14.0700  -22.7700 C.ar      1 LKM         0.0002
      7 C25        -1.4890  -15.4200  -23.0720 C.ar      1 LKM         0.1469
      8 C24        -1.2900  -16.3250  -22.0780 C.ar      1 LKM         0.0306
      9 C23        -1.2130  -17.7630  -22.5010 C.3       1 LKM         0.1098
     10 O22        -0.8630  -18.5110  -21.3670 O.3       1 LKM        -0.3038
     11 C20         0.3100  -19.1810  -21.1530 C.ar      1 LKM         0.0952
     12 C19         1.3150  -19.4640  -22.0710 C.ar      1 LKM        -0.0272
     13 C18         2.4470  -20.1690  -21.6450 C.ar      1 LKM        -0.0562
     14 C21         0.4300  -19.6100  -19.8720 C.ar      1 LKM        -0.0289
     15 C15         1.5190  -20.3020  -19.4600 C.ar      1 LKM        -0.0286
     16 C16         2.5460  -20.5900  -20.3250 C.ar      1 LKM        -0.0229
     17 C17         3.6260  -21.3030  -19.8340 C.ar      1 LKM        -0.0318
     18 C14         1.5310  -20.6730  -18.1430 C.ar      1 LKM        -0.0582
     19 C13         2.5950  -21.3770  -17.6690 C.ar      1 LKM        -0.0386
     20 C12         3.6390  -21.6820  -18.5060 C.ar      1 LKM         0.1052
     21 S11         4.7910  -22.5280  -17.8700 S.o2      1 LKM         0.0683
     22 O33         5.9870  -22.3960  -18.6830 O.2       1 LKM        -0.1507
     23 O32         5.0190  -22.1950  -16.4800 O.2       1 LKM        -0.1507
     24 N           4.2670  -23.9470  -17.8430 N.am      1 LKM        -0.2317
     25 CA          4.0370  -24.7010  -19.0730 C.3       1 LKM         0.0913
     26 C           5.2890  -25.3680  -19.5690 C.2       1 LKM         0.0565
     27 O           6.0630  -25.8580  -18.7480 O.co2     1 LKM        -0.5670
     28 OXT         5.4820  -25.4020  -20.7900 O.co2     1 LKM        -0.5670
     29 CB          2.9370  -25.7340  -18.7930 C.3       1 LKM        -0.0098
     30 CG          2.5170  -26.4180  -20.0780 C.3       1 LKM         0.0034
     31 CD          1.3070  -27.3160  -19.9840 C.2       1 LKM         0.0350
     32 OE1         0.5260  -27.2330  -19.0360 O.co2     1 LKM        -0.5690
     33 OE2         1.1580  -28.1280  -20.9020 O.co2     1 LKM        -0.5690
     34 F2         -1.6170  -15.8710  -24.3240 F         1 LKM        -0.1865
     35 H1         -1.1093  -14.2208  -19.4276 H         1 LKM         0.0668
     36 H2         -0.9897  -16.6383  -19.9812 H         1 LKM         0.0573
     37 H3         -1.7183  -13.3528  -23.5663 H         1 LKM         0.0685
     38 H4         -0.4496  -17.8853  -23.2834 H         1 LKM         0.0792
     39 H5         -2.1885  -18.0955  -22.8854 H         1 LKM         0.0792
     40 H6          1.2234  -19.1432  -23.1024 H         1 LKM         0.0590
     41 H7          3.2458  -20.3862  -22.3449 H         1 LKM         0.0618
     42 H8         -0.3617  -19.3947  -19.1635 H         1 LKM         0.0497
     43 H9          4.4532  -21.5613  -20.4852 H         1 LKM         0.0636
     44 H10         0.7075  -20.4108  -17.4886 H         1 LKM         0.0591
     45 H11         2.6178  -21.6959  -16.6332 H         1 LKM         0.0627
     46 H12         4.0735  -24.3791  -16.9622 H         1 LKM         0.1697
     47 H13         3.6866  -24.0081  -19.8522 H         1 LKM         0.0681
     48 H14         2.0668  -25.2265  -18.3512 H         1 LKM         0.0319
     49 H15         3.3183  -26.4880  -18.0887 H         1 LKM         0.0319
     50 H16         3.3630  -27.0285  -20.4266 H         1 LKM         0.0432
     51 H17         2.2989  -25.6358  -20.8201 H         1 LKM         0.0432
@<TRIPOS>BOND
     1    1    2 3  
     2    2    3 1  
     3    3    4 ar 
     4    3    6 ar 
     5    4    5 ar 
     6    5    8 ar 
     7    6    7 ar 
     8    7    8 ar 
     9    7   34 1  
    10    8    9 1  
    11    9   10 1  
    12   10   11 1  
    13   11   12 ar 
    14   11   14 ar 
    15   12   13 ar 
    16   13   16 ar 
    17   14   15 ar 
    18   15   16 ar 
    19   15   18 ar 
    20   16   17 ar 
    21   17   20 ar 
    22   18   19 ar 
    23   19   20 ar 
    24   20   21 1  
    25   21   22 2  
    26   21   23 2  
    27   21   24 am 
    28   24   25 1  
    29   25   26 1  
    30   25   29 1  
    31   26   27 ar 
    32   26   28 ar 
    33   29   30 1  
    34   30   31 1  
    35   31   32 ar 
    36   31   33 ar 
    37    4   35 1  
    38    5   36 1  
    39    6   37 1  
    40    9   38 1  
    41    9   39 1  
    42   12   40 1  
    43   13   41 1  
    44   14   42 1  
    45   17   43 1  
    46   18   44 1  
    47   19   45 1  
    48   24   46 1  
    49   25   47 1  
    50   29   48 1  
    51   29   49 1  
    52   30   50 1  
    53   30   51 1  
@<TRIPOS>SUBSTRUCTURE
     1 LKM         1

