### 
### Created by X-TOOL on Mon Sep 10 21:12:58 2018
### 

@<TRIPOS>MOLECULE
2vte_ligand
   51    53     1     0     0
SMALL
GAST_HUCK


@<TRIPOS>ATOM
      1 N31       -11.3970   -1.6930   21.5350 N.1       1 IK4        -0.3338
      2 C30       -12.5220   -1.5440   21.5940 C.1       1 IK4         0.0934
      3 C27       -13.7770   -1.4300   21.7460 C.ar      1 IK4         0.0883
      4 C28       -14.2780   -1.2990   23.0500 C.ar      1 IK4        -0.0333
      5 C29       -15.6530   -1.1550   23.2590 C.ar      1 IK4        -0.0461
      6 C26       -14.6200   -1.4380   20.6420 C.ar      1 IK4        -0.0333
      7 C25       -15.9990   -1.3070   20.8660 C.ar      1 IK4        -0.0461
      8 C24       -16.5200   -1.1550   22.1650 C.ar      1 IK4        -0.0034
      9 C23       -18.0040   -0.9880   22.4060 C.3       1 IK4         0.1089
     10 O22       -18.7580   -1.2920   21.2150 O.3       1 IK4        -0.3032
     11 C20       -18.3290   -0.6290   18.9150 C.ar      1 IK4        -0.0272
     12 C19       -19.0120   -0.4290   20.1540 C.ar      1 IK4         0.0953
     13 C18       -19.9810    0.5860   20.3050 C.ar      1 IK4        -0.0289
     14 C21       -18.5780    0.2140   17.8180 C.ar      1 IK4        -0.0562
     15 C15       -19.5460    1.2460   17.9680 C.ar      1 IK4        -0.0246
     16 C16       -20.2500    1.4360   19.2100 C.ar      1 IK4        -0.0268
     17 C17       -21.1900    2.4590   19.3640 C.ar      1 IK4        -0.0334
     18 C14       -19.7970    2.0820   16.8720 C.ar      1 IK4        -0.0566
     19 C13       -20.7420    3.1010   17.0380 C.ar      1 IK4        -0.0382
     20 C12       -21.4440    3.2890   18.2670 C.ar      1 IK4         0.1048
     21 S11       -22.5340    4.4690   18.3270 S.o2      1 IK4         0.0691
     22 O33       -22.3690    5.3400   17.1820 O.2       1 IK4        -0.1503
     23 O32       -22.4130    5.3210   19.4760 O.2       1 IK4        -0.1503
     24 N         -24.0440    3.8210   18.3060 N.am      1 IK4        -0.2314
     25 CA        -24.7800    3.7800   19.5940 C.3       1 IK4         0.0913
     26 C         -25.4260    5.1040   20.0100 C.2       1 IK4         0.0565
     27 O         -25.5800    5.3820   21.2040 O.co2     1 IK4        -0.5670
     28 OXT       -25.8250    5.9550   19.1920 O.co2     1 IK4        -0.5670
     29 CB        -25.7530    2.5960   19.5580 C.3       1 IK4        -0.0098
     30 CG        -26.9310    2.6900   20.5170 C.3       1 IK4         0.0034
     31 CD        -27.6770    1.3730   20.5610 C.2       1 IK4         0.0350
     32 OE1       -28.4880    1.2340   21.5150 O.co2     1 IK4        -0.5690
     33 OE2       -27.5310    0.4950   19.6520 O.co2     1 IK4        -0.5690
     34 H1        -13.5993   -1.3094   23.8952 H         1 IK4         0.0701
     35 H2        -16.0432   -1.0441   24.2642 H         1 IK4         0.0584
     36 H3        -14.2246   -1.5423   19.6381 H         1 IK4         0.0701
     37 H4        -16.6776   -1.3232   20.0208 H         1 IK4         0.0584
     38 H5        -18.2054    0.0516   22.7037 H         1 IK4         0.0800
     39 H6        -18.3162   -1.6675   23.2127 H         1 IK4         0.0800
     40 H7        -17.6130   -1.4374   18.8202 H         1 IK4         0.0590
     41 H8        -20.5087    0.7107   21.2437 H         1 IK4         0.0497
     42 H9        -18.0466    0.0814   16.8825 H         1 IK4         0.0618
     43 H10       -21.7068    2.6048   20.3056 H         1 IK4         0.0610
     44 H11       -19.2783    1.9446   15.9301 H         1 IK4         0.0617
     45 H12       -20.9472    3.7677   16.2083 H         1 IK4         0.0606
     46 H13       -24.4493    3.4696   17.4620 H         1 IK4         0.1697
     47 H14       -24.0369    3.5570   20.3738 H         1 IK4         0.0681
     48 H15       -25.1878    1.6847   19.8030 H         1 IK4         0.0319
     49 H16       -26.1527    2.5161   18.5363 H         1 IK4         0.0319
     50 H17       -27.6136    3.4828   20.1772 H         1 IK4         0.0432
     51 H18       -26.5609    2.9316   21.5243 H         1 IK4         0.0432
@<TRIPOS>BOND
     1    1    2 3  
     2    2    3 1  
     3    3    4 ar 
     4    3    6 ar 
     5    4    5 ar 
     6    5    8 ar 
     7    6    7 ar 
     8    7    8 ar 
     9    8    9 1  
    10    9   10 1  
    11   10   12 1  
    12   12   11 ar 
    13   11   14 ar 
    14   12   13 ar 
    15   13   16 ar 
    16   14   15 ar 
    17   15   16 ar 
    18   15   18 ar 
    19   16   17 ar 
    20   17   20 ar 
    21   18   19 ar 
    22   19   20 ar 
    23   20   21 1  
    24   21   22 2  
    25   21   23 2  
    26   21   24 am 
    27   24   25 1  
    28   25   26 1  
    29   25   29 1  
    30   26   27 ar 
    31   26   28 ar 
    32   29   30 1  
    33   30   31 1  
    34   31   32 ar 
    35   31   33 ar 
    36    4   34 1  
    37    5   35 1  
    38    6   36 1  
    39    7   37 1  
    40    9   38 1  
    41    9   39 1  
    42   11   40 1  
    43   13   41 1  
    44   14   42 1  
    45   17   43 1  
    46   18   44 1  
    47   19   45 1  
    48   24   46 1  
    49   25   47 1  
    50   29   48 1  
    51   29   49 1  
    52   30   50 1  
    53   30   51 1  
@<TRIPOS>SUBSTRUCTURE
     1 IK4         1

