### 
### Created by X-TOOL on Mon Sep 10 21:12:58 2018
### 

@<TRIPOS>MOLECULE
2vth_ligand
   24    25     1     0     0
SMALL
GAST_HUCK


@<TRIPOS>ATOM
      1 N1         26.5070    7.6940   60.1760 N.am      1 LZ2        -0.2612
      2 S2         26.3680    8.5030   61.5540 S.o2      1 LZ2         0.0651
      3 O3         27.0940    9.7370   61.4060 O.2       1 LZ2        -0.1508
      4 O4         24.9730    8.5450   61.8910 O.2       1 LZ2        -0.1508
      5 C5         27.1840    7.5760   62.8150 C.ar      1 LZ2         0.1109
      6 C6         28.1950    8.2060   63.5320 C.ar      1 LZ2        -0.0374
      7 C7         28.8790    7.5250   64.5120 C.ar      1 LZ2        -0.0615
      8 C8         28.5630    6.2070   64.7960 C.ar      1 LZ2        -0.0531
      9 C9         27.5490    5.5410   64.0970 C.ar      1 LZ2         0.0194
     10 C10        27.2160    4.1990   64.3620 C.ar      1 LZ2         0.1009
     11 O11        27.9020    3.5380   65.3270 O.3       1 LZ2        -0.3281
     12 C12        26.2060    3.5710   63.6510 C.ar      1 LZ2        -0.0342
     13 C13        25.5240    4.2550   62.6630 C.ar      1 LZ2        -0.0744
     14 C14        25.8430    5.5690   62.3760 C.ar      1 LZ2        -0.0667
     15 C15        26.8510    6.2390   63.0810 C.ar      1 LZ2         0.0005
     16 H1         27.4089    7.5529   59.7678 H         1 LZ2         0.1634
     17 H2         25.6917    7.3307   59.7251 H         1 LZ2         0.1634
     18 H3         28.4454    9.2387   63.3177 H         1 LZ2         0.0634
     19 H4         29.6685    8.0220   65.0641 H         1 LZ2         0.0591
     20 H5         29.1093    5.6827   65.5717 H         1 LZ2         0.0631
     21 H6         27.5729    2.6495   65.3958 H         1 LZ2         0.2515
     22 H7         25.9503    2.5407   63.8704 H         1 LZ2         0.0499
     23 H8         24.7347    3.7586   62.1101 H         1 LZ2         0.0581
     24 H9         25.3042    6.0895   61.5925 H         1 LZ2         0.0493
@<TRIPOS>BOND
     1    1    2 am 
     2    2    3 2  
     3    2    4 2  
     4    2    5 1  
     5    5    6 ar 
     6    5   15 ar 
     7    6    7 ar 
     8    7    8 ar 
     9    8    9 ar 
    10    9   10 ar 
    11    9   15 ar 
    12   10   11 1  
    13   10   12 ar 
    14   12   13 ar 
    15   13   14 ar 
    16   14   15 ar 
    17    1   16 1  
    18    1   17 1  
    19    6   18 1  
    20    7   19 1  
    21    8   20 1  
    22   11   21 1  
    23   12   22 1  
    24   13   23 1  
    25   14   24 1  
@<TRIPOS>SUBSTRUCTURE
     1 LZ2         1

