### 
### Created by X-TOOL on Mon Sep 10 21:12:57 2018
### 

@<TRIPOS>MOLECULE
2vti_ligand
   34    36     1     0     0
SMALL
GAST_HUCK


@<TRIPOS>ATOM
      1 N1         29.3650    6.3440   64.8890 N.am      1 LZ3        -0.2327
      2 C2         28.1760    6.4260   64.3010 C.2       1 LZ3         0.2673
      3 C3         27.4700    5.1580   64.1070 C.2       1 LZ3         0.2076
      4 C4         25.5550    5.6480   62.4670 C.ar      1 LZ3        -0.0490
      5 C5         24.5010    5.0540   61.7950 C.ar      1 LZ3        -0.0610
      6 C6         24.2700    3.6940   61.9270 C.ar      1 LZ3        -0.0613
      7 C7         25.0950    2.9240   62.7250 C.ar      1 LZ3        -0.0534
      8 C9         26.3690    4.8860   63.3020 C.ar      1 LZ3         0.0404
      9 O11        27.7090    7.4980   63.8860 O.2       1 LZ3        -0.3777
     10 N12        27.9260    4.0410   64.6890 N.pl3     1 LZ3        -0.2165
     11 N17        27.1080    3.0460   64.2680 N.2       1 LZ3        -0.2721
     12 C20        30.4330    8.1040   63.6190 C.ar      1 LZ3        -0.0395
     13 C21        31.3590    9.1170   63.5230 C.ar      1 LZ3        -0.0490
     14 C22        32.1550    9.4290   64.6110 C.ar      1 LZ3         0.0924
     15 C23        32.0300    8.7200   65.7930 C.ar      1 LZ3        -0.0490
     16 C24        31.1030    7.6970   65.8850 C.ar      1 LZ3        -0.0395
     17 S27        33.3630   10.6960   64.4650 S.o2      1 LZ3         0.0591
     18 O28        34.3260   10.2290   63.5230 O.2       1 LZ3        -0.1524
     19 O29        33.8050   11.0330   65.7970 O.2       1 LZ3        -0.1524
     20 N30        32.6660   12.0040   63.8450 N.am      1 LZ3        -0.2625
     21 C8         30.3090    7.3760   64.8020 C.ar      1 LZ3         0.0653
     22 C16        26.1450    3.5130   63.4150 C.ar      1 LZ3         0.0143
     23 H1         29.5929    5.5210   65.4093 H         1 LZ3         0.2242
     24 H2         25.7474    6.7076   62.3434 H         1 LZ3         0.0626
     25 H3         23.8549    5.6537   61.1642 H         1 LZ3         0.0618
     26 H4         23.4404    3.2330   61.4032 H         1 LZ3         0.0618
     27 H5         24.9214    1.8575   62.8120 H         1 LZ3         0.0622
     28 H6         28.7317    3.9560   65.3250 H         1 LZ3         0.3028
     29 H7         29.7976    7.8709   62.7722 H         1 LZ3         0.0503
     30 H8         31.4648    9.6698   62.5966 H         1 LZ3         0.0596
     31 H9         32.6559    8.9652   66.6434 H         1 LZ3         0.0596
     32 H10        30.9996    7.1447   66.8120 H         1 LZ3         0.0503
     33 H11        33.2052   12.8317   63.6893 H         1 LZ3         0.1633
     34 H12        31.6930   11.9905   63.6148 H         1 LZ3         0.1633
@<TRIPOS>BOND
     1    1    2 am 
     2   21    1 1  
     3    2    3 1  
     4    2    9 2  
     5    3    8 2  
     6    3   10 1  
     7    4    5 ar 
     8    8    4 ar 
     9    5    6 ar 
    10    7    6 ar 
    11   22    7 ar 
    12    8   22 ar 
    13   10   11 1  
    14   11   22 2  
    15   12   13 ar 
    16   12   21 ar 
    17   13   14 ar 
    18   14   15 ar 
    19   14   17 1  
    20   15   16 ar 
    21   16   21 ar 
    22   17   18 2  
    23   17   19 2  
    24   17   20 am 
    25    1   23 1  
    26    4   24 1  
    27    5   25 1  
    28    6   26 1  
    29    7   27 1  
    30   10   28 1  
    31   12   29 1  
    32   13   30 1  
    33   15   31 1  
    34   16   32 1  
    35   20   33 1  
    36   20   34 1  
@<TRIPOS>SUBSTRUCTURE
     1 LZ3         1

