### 
### Created by X-TOOL on Mon Sep 10 21:12:57 2018
### 

@<TRIPOS>MOLECULE
2vtj_ligand
   27    28     1     0     0
SMALL
GAST_HUCK


@<TRIPOS>ATOM
      1 N1         33.7280   10.7150   65.9980 N.am      1 LZ4        -0.2622
      2 S2         33.3900   10.4230   64.4600 S.o2      1 LZ4         0.0607
      3 O3         33.1620   11.6880   63.8110 O.2       1 LZ4        -0.1520
      4 O4         34.4200    9.5500   63.9490 O.2       1 LZ4        -0.1520
      5 C5         31.8740    9.5190   64.4050 C.ar      1 LZ4         0.0961
      6 C6         30.6730   10.1960   64.2540 C.ar      1 LZ4        -0.0450
      7 C7         29.4930    9.4860   64.2020 C.ar      1 LZ4        -0.0368
      8 C8         29.4990    8.0950   64.3100 C.ar      1 LZ4         0.0630
      9 N9         28.2950    7.3750   64.2670 N.pl3     1 LZ4        -0.2544
     10 C10        28.0360    6.0050   64.3840 C.ar      1 LZ4         0.1589
     11 C11        28.7650    5.1590   65.2090 C.ar      1 LZ4         0.0603
     12 N12        28.4960    3.8550   65.3060 N.ar      1 LZ4        -0.2870
     13 C13        27.4790    3.3990   64.5710 C.ar      1 LZ4         0.0434
     14 C14        26.7590    4.2540   63.7640 C.ar      1 LZ4         0.1334
     15 CL1        25.4450    3.6360   62.8150 Cl        1 LZ4        -0.0334
     16 N16        27.0110    5.5580   63.6410 N.ar      1 LZ4        -0.2416
     17 C17        30.7110    7.4290   64.4730 C.ar      1 LZ4        -0.0368
     18 C18        31.8910    8.1390   64.5220 C.ar      1 LZ4        -0.0450
     19 H1         33.1285   11.3055   66.5383 H         1 LZ4         0.1633
     20 H2         34.5385   10.3068   66.4180 H         1 LZ4         0.1633
     21 H3         30.6625   11.2772   64.1773 H         1 LZ4         0.0606
     22 H4         28.5535   10.0120   64.0763 H         1 LZ4         0.0535
     23 H5         27.4565    7.9560   64.1246 H         1 LZ4         0.2146
     24 H6         29.5795    5.5710   65.7937 H         1 LZ4         0.0816
     25 H7         27.2172    2.3478   64.6091 H         1 LZ4         0.0792
     26 H8         30.7263    6.3487   64.5616 H         1 LZ4         0.0535
     27 H9         32.8324    7.6176   64.6521 H         1 LZ4         0.0606
@<TRIPOS>BOND
     1    1    2 am 
     2    2    3 2  
     3    2    4 2  
     4    2    5 1  
     5    5    6 ar 
     6    5   18 ar 
     7    6    7 ar 
     8    7    8 ar 
     9    8    9 1  
    10    8   17 ar 
    11    9   10 1  
    12   10   11 ar 
    13   10   16 ar 
    14   11   12 ar 
    15   12   13 ar 
    16   13   14 ar 
    17   14   15 1  
    18   14   16 ar 
    19   17   18 ar 
    20    1   19 1  
    21    1   20 1  
    22    6   21 1  
    23    7   22 1  
    24    9   23 1  
    25   11   24 1  
    26   13   25 1  
    27   17   26 1  
    28   18   27 1  
@<TRIPOS>SUBSTRUCTURE
     1 LZ4         1

