### 
### Created by X-TOOL on Mon Sep 10 21:12:57 2018
### 

@<TRIPOS>MOLECULE
2vtl_ligand
   23    24     1     0     0
SMALL
GAST_HUCK


@<TRIPOS>ATOM
      1 O1         27.9710    7.4380   64.2760 O.2       1 LZ5        -0.3709
      2 C2         28.4240    6.4680   64.8110 C.2       1 LZ5         0.2596
      3 N3         29.5830    6.4870   65.4960 N.am      1 LZ5        -0.2312
      4 C4         30.5080    7.5370   65.5400 C.ar      1 LZ5         0.0660
      5 C5         30.7720    8.2960   64.3990 C.ar      1 LZ5        -0.0412
      6 C6         31.6830    9.3330   64.4490 C.ar      1 LZ5        -0.0755
      7 C7         32.3420    9.6160   65.6300 C.ar      1 LZ5        -0.0771
      8 C8         32.0880    8.8690   66.7630 C.ar      1 LZ5        -0.0755
      9 C9         31.1830    7.8310   66.7210 C.ar      1 LZ5        -0.0412
     10 C10        27.7530    5.1670   64.7050 C.2       1 LZ5         0.1624
     11 C11        26.6060    4.8700   63.9800 C.2       1 LZ5        -0.0257
     12 C12        26.3960    3.5520   64.1780 C.2       1 LZ5         0.0042
     13 N13        27.3880    3.1130   64.9720 N.2       1 LZ5        -0.2103
     14 N15        28.2460    4.1110   65.2970 N.pl3     1 LZ5        -0.2037
     15 H1         29.8054    5.6690   66.0266 H         1 LZ5         0.2252
     16 H2         30.2603    8.0709   63.4703 H         1 LZ5         0.0503
     17 H3         31.8808    9.9244   63.5623 H         1 LZ5         0.0577
     18 H4         33.0605   10.4268   65.6671 H         1 LZ5         0.0488
     19 H5         32.6024    9.1000   67.6888 H         1 LZ5         0.0577
     20 H6         30.9960    7.2412   67.6111 H         1 LZ5         0.0503
     21 H7         26.0058    5.5534   63.3811 H         1 LZ5         0.0432
     22 H8         25.5789    2.9574   63.7721 H         1 LZ5         0.0679
     23 H9         29.0940    4.0508   65.8785 H         1 LZ5         0.2591
@<TRIPOS>BOND
     1    1    2 2  
     2    2    3 am 
     3    2   10 1  
     4    3    4 1  
     5    4    5 ar 
     6    4    9 ar 
     7    5    6 ar 
     8    6    7 ar 
     9    7    8 ar 
    10    8    9 ar 
    11   10   11 2  
    12   10   14 1  
    13   11   12 1  
    14   12   13 2  
    15   13   14 1  
    16    3   15 1  
    17    5   16 1  
    18    6   17 1  
    19    7   18 1  
    20    8   19 1  
    21    9   20 1  
    22   11   21 1  
    23   12   22 1  
    24   14   23 1  
@<TRIPOS>SUBSTRUCTURE
     1 LZ5         1

