### 
### Created by X-TOOL on Mon Sep 10 21:12:59 2018
### 

@<TRIPOS>MOLECULE
2vtm_ligand
   15    16     1     0     0
SMALL
GAST_HUCK


@<TRIPOS>ATOM
      1 N1         24.3040    4.3290   62.8490 N.1       1 LZM        -0.3772
      2 C2         25.2450    4.3530   63.4930 C.1       1 LZM         0.0487
      3 C3         26.4160    4.3810   64.2970 C.2       1 LZM         0.1204
      4 C4         26.9870    3.3140   64.9370 C.2       1 LZM         0.0226
      5 N5         28.0740    3.6690   65.6150 N.2       1 LZM        -0.1924
      6 N6         28.1910    5.0030   65.4010 N.pl3     1 LZM        -0.1171
      7 C7         29.1430    5.8210   65.8590 C.2       1 LZM         0.1223
      8 C8         29.0980    7.1530   65.5250 C.2       1 LZM         0.0147
      9 C9         28.0760    7.6100   64.7190 C.2       1 LZM         0.0220
     10 N10        27.1240    6.8010   64.2400 N.2       1 LZM        -0.2526
     11 C11        27.1950    5.5020   64.5920 C.2       1 LZM         0.2068
     12 H1         26.5980    2.2977   64.8957 H         1 LZM         0.0747
     13 H2         29.9441    5.4370   66.4888 H         1 LZM         0.1407
     14 H3         29.8596    7.8394   65.8920 H         1 LZM         0.0639
     15 H4         28.0428    8.6680   64.4632 H         1 LZM         0.1025
@<TRIPOS>BOND
     1    1    2 3  
     2    2    3 1  
     3    3    4 1  
     4    3   11 2  
     5    4    5 2  
     6    5    6 1  
     7    6    7 1  
     8    6   11 1  
     9    7    8 2  
    10    8    9 1  
    11    9   10 2  
    12   10   11 1  
    13    4   12 1  
    14    7   13 1  
    15    8   14 1  
    16    9   15 1  
@<TRIPOS>SUBSTRUCTURE
     1 LZM         1

