### 
### Created by X-TOOL on Mon Sep 10 21:12:58 2018
### 

@<TRIPOS>MOLECULE
2vtn_ligand
   30    31     1     0     0
SMALL
GAST_HUCK


@<TRIPOS>ATOM
      1 C1         24.2750    6.0400   61.0510 C.3       1 LZ7         0.0304
      2 C2         24.8560    4.9370   61.8700 C.2       1 LZ7         0.1945
      3 O3         24.3790    3.8160   61.8750 O.2       1 LZ7        -0.3881
      4 N4         25.9500    5.2560   62.5890 N.am      1 LZ7        -0.2447
      5 C5         26.6360    4.4170   63.4520 C.2       1 LZ7         0.1013
      6 C6         26.3900    3.1130   63.7670 C.2       1 LZ7         0.0341
      7 N7         27.3230    2.7500   64.6350 N.2       1 LZ7        -0.2151
      8 N9         28.1660    3.7680   64.9080 N.pl3     1 LZ7        -0.2183
      9 C10        27.7600    4.7770   64.1830 C.2       1 LZ7         0.1721
     10 C11        28.4830    6.0710   64.2200 C.2       1 LZ7         0.2387
     11 O12        28.0460    7.0580   63.6490 O.2       1 LZ7        -0.3871
     12 N13        29.6540    6.0800   64.8810 N.am      1 LZ7        -0.2382
     13 C14        30.5230    7.1520   65.0130 C.ar      1 LZ7         0.0614
     14 C15        31.1450    7.4050   66.2340 C.ar      1 LZ7        -0.0428
     15 C16        32.0030    8.4790   66.3690 C.ar      1 LZ7        -0.0417
     16 C17        32.2420    9.2910   65.2830 C.ar      1 LZ7         0.1158
     17 F18        33.0790   10.3340   65.4190 F         1 LZ7        -0.1963
     18 C19        31.6430    9.0590   64.0580 C.ar      1 LZ7        -0.0417
     19 C20        30.7810    7.9880   63.9230 C.ar      1 LZ7        -0.0428
     20 H1         24.8637    6.9571   61.2007 H         1 LZ7         0.0470
     21 H2         23.2345    6.2176   61.3605 H         1 LZ7         0.0470
     22 H3         24.2984    5.7588   59.9878 H         1 LZ7         0.0470
     23 H4         26.3002    6.1874   62.4902 H         1 LZ7         0.2180
     24 H5         25.5838    2.4913   63.3804 H         1 LZ7         0.0655
     25 H6         28.9665    3.7529   65.5559 H         1 LZ7         0.2491
     26 H7         29.9260    5.2252   65.3229 H         1 LZ7         0.2229
     27 H8         30.9547    6.7563   67.0814 H         1 LZ7         0.0494
     28 H9         32.4831    8.6805   67.3198 H         1 LZ7         0.0566
     29 H10        31.8473    9.7091   63.2150 H         1 LZ7         0.0566
     30 H11        30.3034    7.7954   62.9691 H         1 LZ7         0.0494
@<TRIPOS>BOND
     1    1    2 1  
     2    2    3 2  
     3    2    4 am 
     4    4    5 1  
     5    5    6 1  
     6    5    9 2  
     7    6    7 2  
     8    7    8 1  
     9    8    9 1  
    10    9   10 1  
    11   10   11 2  
    12   10   12 am 
    13   12   13 1  
    14   13   14 ar 
    15   13   19 ar 
    16   14   15 ar 
    17   15   16 ar 
    18   16   17 1  
    19   16   18 ar 
    20   18   19 ar 
    21    1   20 1  
    22    1   21 1  
    23    1   22 1  
    24    4   23 1  
    25    6   24 1  
    26    8   25 1  
    27   12   26 1  
    28   14   27 1  
    29   15   28 1  
    30   18   29 1  
    31   19   30 1  
@<TRIPOS>SUBSTRUCTURE
     1 LZ7         1

