### 
### Created by X-TOOL on Mon Sep 10 21:12:57 2018
### 

@<TRIPOS>MOLECULE
2vto_ligand
   37    39     1     0     0
SMALL
GAST_HUCK


@<TRIPOS>ATOM
      1 F1         33.5770   10.5780   66.5070 F         1 LZ8        -0.1963
      2 C2         32.7220    9.5520   66.3340 C.ar      1 LZ8         0.1158
      3 C3         32.2580    9.2660   65.0640 C.ar      1 LZ8        -0.0417
      4 C4         31.3900    8.2020   64.8890 C.ar      1 LZ8        -0.0428
      5 C5         31.0030    7.4230   65.9860 C.ar      1 LZ8         0.0614
      6 N6         30.1130    6.3450   65.8150 N.am      1 LZ8        -0.2382
      7 C7         28.9890    6.4120   65.0920 C.2       1 LZ8         0.2389
      8 O8         28.6320    7.4480   64.5320 O.2       1 LZ8        -0.3870
      9 C9         28.1920    5.1680   64.9940 C.2       1 LZ8         0.1724
     10 N10        28.5150    4.1060   65.7230 N.pl3     1 LZ8        -0.2182
     11 N11        27.6060    3.1490   65.4010 N.2       1 LZ8        -0.2150
     12 C12        26.7240    3.5790   64.5040 C.2       1 LZ8         0.0342
     13 C13        27.0630    4.8880   64.2070 C.2       1 LZ8         0.1012
     14 N14        26.4680    5.7830   63.3360 N.am      1 LZ8        -0.2436
     15 C15        25.3430    5.5830   62.6120 C.2       1 LZ8         0.2263
     16 O16        24.6900    4.5400   62.6630 O.2       1 LZ8        -0.3761
     17 C17        24.9210    6.7240   61.7420 C.ar      1 LZ8         0.0547
     18 C18        23.5840    7.0940   61.6650 C.ar      1 LZ8        -0.0417
     19 C20        23.1990    8.1590   60.8710 C.ar      1 LZ8        -0.0563
     20 C21        24.1430    8.8610   60.1470 C.ar      1 LZ8        -0.0576
     21 C22        25.4750    8.5040   60.2190 C.ar      1 LZ8        -0.0563
     22 C23        25.8650    7.4410   61.0130 C.ar      1 LZ8        -0.0417
     23 C25        31.4860    7.7390   67.2580 C.ar      1 LZ8        -0.0428
     24 C26        32.3440    8.8070   67.4320 C.ar      1 LZ8        -0.0417
     25 H1         32.5694    9.8664   64.2169 H         1 LZ8         0.0566
     26 H2         31.0092    7.9715   63.9006 H         1 LZ8         0.0494
     27 H3         30.3343    5.4775   66.2606 H         1 LZ8         0.2229
     28 H4         29.2929    4.0247   66.3932 H         1 LZ8         0.2491
     29 H5         25.8950    3.0112   64.0840 H         1 LZ8         0.0655
     30 H6         26.9164    6.6706   63.2306 H         1 LZ8         0.2177
     31 H7         22.8391    6.5454   62.2299 H         1 LZ8         0.0669
     32 H8         22.1544    8.4434   60.8167 H         1 LZ8         0.0629
     33 H9         23.8380    9.6925   59.5220 H         1 LZ8         0.0652
     34 H10        26.2154    9.0574   59.6528 H         1 LZ8         0.0629
     35 H11        26.9118    7.1648   61.0678 H         1 LZ8         0.0669
     36 H12        31.1860    7.1432   68.1124 H         1 LZ8         0.0494
     37 H13        32.7159    9.0569   68.4191 H         1 LZ8         0.0566
@<TRIPOS>BOND
     1    1    2 1  
     2    2    3 ar 
     3    2   24 ar 
     4    3    4 ar 
     5    4    5 ar 
     6    5    6 1  
     7    5   23 ar 
     8    6    7 am 
     9    7    8 2  
    10    7    9 1  
    11    9   10 1  
    12    9   13 2  
    13   10   11 1  
    14   11   12 2  
    15   12   13 1  
    16   13   14 1  
    17   14   15 am 
    18   15   16 2  
    19   15   17 1  
    20   17   18 ar 
    21   17   22 ar 
    22   18   19 ar 
    23   19   20 ar 
    24   20   21 ar 
    25   21   22 ar 
    26   23   24 ar 
    27    3   25 1  
    28    4   26 1  
    29    6   27 1  
    30   10   28 1  
    31   12   29 1  
    32   14   30 1  
    33   18   31 1  
    34   19   32 1  
    35   20   33 1  
    36   21   34 1  
    37   22   35 1  
    38   23   36 1  
    39   24   37 1  
@<TRIPOS>SUBSTRUCTURE
     1 LZ8         1

