### 
### Created by X-TOOL on Mon Sep 10 21:12:57 2018
### 

@<TRIPOS>MOLECULE
2vtp_ligand
   37    39     1     0     0
SMALL
GAST_HUCK


@<TRIPOS>ATOM
      1 F1         33.2340   10.5830   65.7540 F         1 LZ9        -0.1963
      2 C2         32.4260    9.5130   65.6500 C.ar      1 LZ9         0.1158
      3 C3         32.0540    8.8440   66.8020 C.ar      1 LZ9        -0.0417
      4 C4         31.2350    7.7410   66.7010 C.ar      1 LZ9        -0.0428
      5 C5         30.7800    7.3100   65.4460 C.ar      1 LZ9         0.0614
      6 N6         29.9150    6.1840   65.3460 N.am      1 LZ9        -0.2382
      7 C7         28.6570    6.2390   64.8540 C.2       1 LZ9         0.2389
      8 O8         28.1460    7.2840   64.4760 O.2       1 LZ9        -0.3870
      9 C9         27.9360    4.9630   64.7090 C.2       1 LZ9         0.1723
     10 N10        28.2450    3.8760   65.3680 N.pl3     1 LZ9        -0.2182
     11 N11        27.3670    2.9370   64.9340 N.2       1 LZ9        -0.2150
     12 C12        26.5290    3.4120   64.0370 C.2       1 LZ9         0.0342
     13 C13        26.8610    4.7170   63.8500 C.2       1 LZ9         0.1010
     14 N14        26.3230    5.6650   62.9980 N.am      1 LZ9        -0.2450
     15 C15        25.3590    5.4440   62.0910 C.2       1 LZ9         0.2249
     16 O16        24.8160    4.3350   61.9680 O.2       1 LZ9        -0.3807
     17 C17        24.9340    6.6420   61.2760 C.ar      1 LZ9         0.1213
     18 C18        23.6620    7.2140   61.4280 C.ar      1 LZ9         0.1521
     19 F19        22.8030    6.6410   62.2940 F         1 LZ9        -0.1785
     20 C20        23.2730    8.3500   60.7090 C.ar      1 LZ9        -0.0263
     21 C21        24.1670    8.9450   59.8200 C.ar      1 LZ9        -0.0612
     22 C22        25.4390    8.4030   59.6460 C.ar      1 LZ9        -0.0263
     23 C23        25.8140    7.2760   60.3750 C.ar      1 LZ9         0.1521
     24 F24        27.0490    6.7750   60.2190 F         1 LZ9        -0.1785
     25 C25        31.1590    8.0160   64.2930 C.ar      1 LZ9        -0.0428
     26 C26        31.9900    9.1160   64.3970 C.ar      1 LZ9        -0.0417
     27 H1         32.4021    9.1830   67.7710 H         1 LZ9         0.0566
     28 H2         30.9408    7.2037   67.5953 H         1 LZ9         0.0494
     29 H3         30.2587    5.2985   65.6587 H         1 LZ9         0.2229
     30 H4         28.9934    3.7583   66.0658 H         1 LZ9         0.2491
     31 H5         25.7270    2.8666   63.5418 H         1 LZ9         0.0655
     32 H6         26.6837    6.5954   63.0637 H         1 LZ9         0.2174
     33 H7         22.2808    8.7655   60.8428 H         1 LZ9         0.0581
     34 H8         23.8730    9.8283   59.2647 H         1 LZ9         0.0632
     35 H9         26.1332    8.8557   58.9472 H         1 LZ9         0.0581
     36 H10        30.7998    7.6984   63.3208 H         1 LZ9         0.0494
     37 H11        32.2958    9.6598   63.5106 H         1 LZ9         0.0566
@<TRIPOS>BOND
     1    1    2 1  
     2    2    3 ar 
     3    2   26 ar 
     4    3    4 ar 
     5    4    5 ar 
     6    5    6 1  
     7    5   25 ar 
     8    6    7 am 
     9    7    8 2  
    10    7    9 1  
    11    9   10 1  
    12    9   13 2  
    13   10   11 1  
    14   11   12 2  
    15   12   13 1  
    16   13   14 1  
    17   14   15 am 
    18   15   16 2  
    19   15   17 1  
    20   17   18 ar 
    21   17   23 ar 
    22   18   19 1  
    23   18   20 ar 
    24   20   21 ar 
    25   21   22 ar 
    26   22   23 ar 
    27   23   24 1  
    28   25   26 ar 
    29    3   27 1  
    30    4   28 1  
    31    6   29 1  
    32   10   30 1  
    33   12   31 1  
    34   14   32 1  
    35   20   33 1  
    36   21   34 1  
    37   22   35 1  
    38   25   36 1  
    39   26   37 1  
@<TRIPOS>SUBSTRUCTURE
     1 LZ9         1

