### 
### Created by X-TOOL on Mon Sep 10 21:12:58 2018
### 

@<TRIPOS>MOLECULE
2vtq_ligand
   43    45     1     0     0
SMALL
GAST_HUCK


@<TRIPOS>ATOM
      1 C26        31.8560    9.4090   67.1270 C.3       1 LZA        -0.0316
      2 C25        31.1010    8.0860   67.0230 C.3       1 LZA         0.0105
      3 C5         30.5150    7.9240   65.6190 C.3       1 LZA         0.0503
      4 N6         29.7660    6.6740   65.4970 N.am      1 LZA        -0.2857
      5 C7         28.5880    6.6340   64.8530 C.2       1 LZA         0.2126
      6 O8         28.0860    7.6380   64.3640 O.2       1 LZA        -0.3979
      7 C9         27.9030    5.3150   64.7520 C.2       1 LZA         0.1662
      8 N10        28.2710    4.2270   65.4540 N.pl3     1 LZA        -0.2187
      9 N11        27.4230    3.2450   65.0730 N.2       1 LZA        -0.2150
     10 C12        26.5320    3.6940   64.1610 C.2       1 LZA         0.0341
     11 C13        26.8130    5.0110   63.9350 C.2       1 LZA         0.1004
     12 N14        26.2120    5.9150   63.0750 N.am      1 LZA        -0.2451
     13 C15        25.2660    5.6240   62.1680 C.2       1 LZA         0.2249
     14 O16        24.7640    4.4810   62.0410 O.2       1 LZA        -0.3808
     15 C17        24.8600    6.7660   61.2850 C.ar      1 LZA         0.1213
     16 C18        25.7840    7.3770   60.4320 C.ar      1 LZA         0.1521
     17 F19        27.0470    6.9110   60.4250 F         1 LZA        -0.1785
     18 C20        25.4330    8.4480   59.6180 C.ar      1 LZA        -0.0263
     19 C21        24.1320    8.9190   59.6350 C.ar      1 LZA        -0.0612
     20 C22        23.1910    8.3250   60.4710 C.ar      1 LZA        -0.0263
     21 C23        23.5690    7.2630   61.2930 C.ar      1 LZA         0.1521
     22 F24        22.6580    6.6780   62.0950 F         1 LZA        -0.1785
     23 C4         31.6260    8.0240   64.5650 C.3       1 LZA         0.0105
     24 N24        32.9580    9.4510   66.1220 N.4       1 LZA         0.2271
     25 C3         32.4380    9.3220   64.7310 C.3       1 LZA        -0.0316
     26 H1         32.2808    9.5071   68.1369 H         1 LZA         0.0814
     27 H2         31.1607   10.2404   66.9393 H         1 LZA         0.0814
     28 H3         30.2856    8.0734   67.7612 H         1 LZA         0.0339
     29 H4         31.7928    7.2553   67.2265 H         1 LZA         0.0339
     30 H5         29.8119    8.7524   65.4477 H         1 LZA         0.0557
     31 H6         30.1363    5.8366   65.8990 H         1 LZA         0.1835
     32 H7         29.0379    4.1571   66.1381 H         1 LZA         0.2492
     33 H8         25.7380    3.1135   63.6936 H         1 LZA         0.0655
     34 H9         26.5087    6.8681   63.1349 H         1 LZA         0.2174
     35 H10        26.1729    8.9106   58.9749 H         1 LZA         0.0581
     36 H11        23.8463    9.7488   58.9986 H         1 LZA         0.0632
     37 H12        22.1689    8.6859   60.4834 H         1 LZA         0.0581
     38 H13        31.1720    8.0108   63.5631 H         1 LZA         0.0339
     39 H14        32.3013    7.1624   64.6730 H         1 LZA         0.0339
     40 H15        33.5960    8.6922   66.3043 H         1 LZA         0.2013
     41 H16        33.4462   10.3286   66.2085 H         1 LZA         0.2013
     42 H17        31.7906   10.1827   64.5075 H         1 LZA         0.0814
     43 H18        33.2854    9.3087   64.0298 H         1 LZA         0.0814
@<TRIPOS>BOND
     1    1    2 1  
     2    1   24 1  
     3    2    3 1  
     4    3    4 1  
     5    3   23 1  
     6    4    5 am 
     7    5    6 2  
     8    5    7 1  
     9    7    8 1  
    10    7   11 2  
    11    8    9 1  
    12    9   10 2  
    13   10   11 1  
    14   11   12 1  
    15   12   13 am 
    16   13   14 2  
    17   13   15 1  
    18   15   16 ar 
    19   15   21 ar 
    20   16   17 1  
    21   16   18 ar 
    22   18   19 ar 
    23   19   20 ar 
    24   20   21 ar 
    25   21   22 1  
    26   23   25 1  
    27   24   25 1  
    28    1   26 1  
    29    1   27 1  
    30    2   28 1  
    31    2   29 1  
    32    3   30 1  
    33    4   31 1  
    34    8   32 1  
    35   10   33 1  
    36   12   34 1  
    37   18   35 1  
    38   19   36 1  
    39   20   37 1  
    40   23   38 1  
    41   23   39 1  
    42   24   40 1  
    43   24   41 1  
    44   25   42 1  
    45   25   43 1  
@<TRIPOS>SUBSTRUCTURE
     1 LZA         1

