### 
### Created by X-TOOL on Mon Sep 10 21:12:58 2018
### 

@<TRIPOS>MOLECULE
2vtr_ligand
   26    27     1     0     0
SMALL
GAST_HUCK


@<TRIPOS>ATOM
      1 C1         31.5080    8.0800   66.5280 C.3       1 LZB        -0.0409
      2 C2         30.6410    8.1280   65.2800 C.3       1 LZB         0.0425
      3 C3         31.4750    8.2890   64.0120 C.3       1 LZB        -0.0409
      4 N4         29.8220    6.9220   65.1870 N.pl3     1 LZB        -0.2645
      5 C5         28.7000    6.8590   64.3420 C.2       1 LZB         0.2325
      6 C6         28.2330    7.9800   63.6610 C.2       1 LZB         0.0408
      7 C7         27.1300    7.8160   62.8280 C.2       1 LZB         0.1033
      8 CL8        26.4960    9.1700   61.9610 Cl        1 LZB        -0.0355
      9 N9         26.4940    6.6610   62.6220 N.2       1 LZB        -0.2641
     10 C10        26.9350    5.5870   63.2940 C.2       1 LZB         0.1938
     11 C11        26.4980    4.2820   63.3230 C.2       1 LZB         0.1137
     12 C12        25.3960    3.7750   62.5820 C.1       1 LZB         0.0448
     13 N13        24.5150    3.3680   61.9800 N.1       1 LZB        -0.3803
     14 C14        27.3630    3.5990   64.1650 C.2       1 LZB         0.0187
     15 N15        28.3160    4.4390   64.6770 N.2       1 LZB        -0.1953
     16 N16        28.0150    5.6630   64.1490 N.pl3     1 LZB        -0.0938
     17 H1         32.1188    8.9931   66.5855 H         1 LZB         0.0253
     18 H2         32.1669    7.2004   66.4831 H         1 LZB         0.0253
     19 H3         30.8657    8.0120   67.4184 H         1 LZB         0.0253
     20 H4         29.9724    8.9976   65.3625 H         1 LZB         0.0567
     21 H5         30.8094    8.3189   63.1367 H         1 LZB         0.0253
     22 H6         32.1668    7.4390   63.9177 H         1 LZB         0.0253
     23 H7         32.0499    9.2252   64.0676 H         1 LZB         0.0253
     24 H8         30.0722    6.0989   65.7534 H         1 LZB         0.1964
     25 H9         28.7135    8.9505   63.7760 H         1 LZB         0.0470
     26 H10        27.2936    2.5356   64.3893 H         1 LZB         0.0734
@<TRIPOS>BOND
     1    1    2 1  
     2    2    3 1  
     3    2    4 1  
     4    4    5 1  
     5    5    6 2  
     6    5   16 1  
     7    6    7 1  
     8    7    8 1  
     9    7    9 2  
    10    9   10 1  
    11   10   11 2  
    12   10   16 1  
    13   11   12 1  
    14   11   14 1  
    15   12   13 3  
    16   14   15 2  
    17   15   16 1  
    18    1   17 1  
    19    1   18 1  
    20    1   19 1  
    21    2   20 1  
    22    3   21 1  
    23    3   22 1  
    24    3   23 1  
    25    4   24 1  
    26    6   25 1  
    27   14   26 1  
@<TRIPOS>SUBSTRUCTURE
     1 LZB         1

