### 
### Created by X-TOOL on Mon Sep 10 21:12:58 2018
### 

@<TRIPOS>MOLECULE
2vts_ligand
   47    49     1     0     0
SMALL
GAST_HUCK


@<TRIPOS>ATOM
      1 C1         31.7240    8.0410   67.5110 C.3       1 LZC        -0.0411
      2 C2         31.0100    8.0970   66.1600 C.3       1 LZC         0.0417
      3 C3         31.9890    8.0380   64.9870 C.3       1 LZC        -0.0411
      4 N4         30.0560    7.0050   66.0510 N.pl3     1 LZC        -0.2672
      5 C5         28.9560    7.0590   65.2070 C.2       1 LZC         0.2254
      6 C6         28.5190    8.2040   64.5560 C.2       1 LZC         0.0458
      7 C7         27.4090    8.1090   63.7260 C.2       1 LZC         0.0975
      8 N8         26.9100    9.1870   63.0360 N.pl3     1 LZC        -0.3000
      9 C9         25.9330    9.0630   61.9680 C.3       1 LZC         0.0414
     10 C10        25.4090   10.4490   61.5900 C.3       1 LZC        -0.0246
     11 C11        24.4520   10.3920   60.4190 C.3       1 LZC        -0.0077
     12 C12        25.1660    9.8090   59.2200 C.3       1 LZC        -0.0242
     13 N13        24.2510    9.8180   58.0280 N.4       1 LZC         0.2207
     14 C14        25.6620    8.3890   59.5120 C.3       1 LZC        -0.0077
     15 C15        26.5550    8.3460   60.7540 C.3       1 LZC        -0.0246
     16 N16        26.7240    6.9590   63.5520 N.2       1 LZC        -0.2740
     17 C17        27.1590    5.8640   64.1770 C.2       1 LZC         0.1788
     18 C18        26.7310    4.5640   64.1720 C.2       1 LZC         0.1070
     19 C19        25.6120    4.0780   63.4540 C.1       1 LZC         0.0406
     20 N20        24.7040    3.6870   62.8630 N.1       1 LZC        -0.3836
     21 C21        27.5810    3.8630   65.0320 C.2       1 LZC         0.0142
     22 N22        28.5050    4.6760   65.5630 N.2       1 LZC        -0.2013
     23 N23        28.2410    5.9040   65.0120 N.pl3     1 LZC        -0.1019
     24 H1         32.4421    8.8713   67.5809 H         1 LZC         0.0253
     25 H2         32.2594    7.0845   67.6035 H         1 LZC         0.0253
     26 H3         30.9843    8.1269   68.3206 H         1 LZC         0.0253
     27 H4         30.4619    9.0490   66.1028 H         1 LZC         0.0565
     28 H5         31.4302    8.0812   64.0405 H         1 LZC         0.0253
     29 H6         32.5602    7.0991   65.0330 H         1 LZC         0.0253
     30 H7         32.6809    8.8913   65.0435 H         1 LZC         0.0253
     31 H8         30.2022    6.1600   66.6215 H         1 LZC         0.1951
     32 H9         29.0337    9.1540   64.6924 H         1 LZC         0.0410
     33 H10        27.2445   10.1281   63.2879 H         1 LZC         0.1855
     34 H11        25.0888    8.4585   62.3311 H         1 LZC         0.0559
     35 H12        26.2615   11.0901   61.3213 H         1 LZC         0.0290
     36 H13        24.8852   10.8793   62.4563 H         1 LZC         0.0290
     37 H14        24.1017   11.4071   60.1806 H         1 LZC         0.0320
     38 H15        23.5910    9.7584   60.6782 H         1 LZC         0.0320
     39 H16        26.0389   10.4393   58.9946 H         1 LZC         0.0850
     40 H17        24.7319    9.4285   57.2323 H         1 LZC         0.1997
     41 H18        23.9753   10.7657   57.8231 H         1 LZC         0.1997
     42 H19        23.4320    9.2658   58.2289 H         1 LZC         0.1997
     43 H20        26.2369    8.0272   58.6468 H         1 LZC         0.0320
     44 H21        24.7932    7.7342   59.6747 H         1 LZC         0.0320
     45 H22        26.7329    7.2940   61.0215 H         1 LZC         0.0290
     46 H23        27.5130    8.8303   60.5138 H         1 LZC         0.0290
     47 H24        27.5029    2.7974   65.2428 H         1 LZC         0.0721
@<TRIPOS>BOND
     1    1    2 1  
     2    2    3 1  
     3    2    4 1  
     4    4    5 1  
     5    5    6 2  
     6    5   23 1  
     7    6    7 1  
     8    7    8 1  
     9    7   16 2  
    10    8    9 1  
    11    9   10 1  
    12    9   15 1  
    13   10   11 1  
    14   11   12 1  
    15   12   13 1  
    16   12   14 1  
    17   14   15 1  
    18   16   17 1  
    19   17   18 2  
    20   17   23 1  
    21   18   19 1  
    22   18   21 1  
    23   19   20 3  
    24   21   22 2  
    25   22   23 1  
    26    1   24 1  
    27    1   25 1  
    28    1   26 1  
    29    2   27 1  
    30    3   28 1  
    31    3   29 1  
    32    3   30 1  
    33    4   31 1  
    34    6   32 1  
    35    8   33 1  
    36    9   34 1  
    37   10   35 1  
    38   10   36 1  
    39   11   37 1  
    40   11   38 1  
    41   12   39 1  
    42   13   40 1  
    43   13   41 1  
    44   13   42 1  
    45   14   43 1  
    46   14   44 1  
    47   15   45 1  
    48   15   46 1  
    49   21   47 1  
@<TRIPOS>SUBSTRUCTURE
     1 LZC         1

