### 
### Created by X-TOOL on Mon Sep 10 21:12:58 2018
### 

@<TRIPOS>MOLECULE
2vtt_ligand
   43    45     1     0     0
SMALL
GAST_HUCK


@<TRIPOS>ATOM
      1 C2         33.0000    9.6610   65.0650 C.3       1 LZD        -0.0335
      2 C3         32.3270    9.3720   66.4030 C.3       1 LZD        -0.0103
      3 C4         31.5880    8.0390   66.3690 C.3       1 LZD        -0.0203
      4 C5         30.5880    8.0140   65.2130 C.3       1 LZD         0.0805
      5 N6         29.8800    6.7330   65.1390 N.am      1 LZD        -0.2809
      6 C7         28.6430    6.6570   64.5980 C.2       1 LZD         0.2128
      7 O8         28.0660    7.6350   64.1300 O.2       1 LZD        -0.3979
      8 C9         28.0110    5.3230   64.5600 C.2       1 LZD         0.1662
      9 N10        28.4670    4.2590   65.2770 N.pl3     1 LZD        -0.2187
     10 N11        27.6340    3.2320   64.9620 N.2       1 LZD        -0.2150
     11 C12        26.6710    3.6180   64.0940 C.2       1 LZD         0.0341
     12 C13        26.8990    4.9620   63.8100 C.2       1 LZD         0.1004
     13 N14        26.2300    5.8350   62.9630 N.am      1 LZD        -0.2451
     14 C15        25.2840    5.4990   62.0660 C.2       1 LZD         0.2249
     15 O16        24.8090    4.3630   61.9810 O.2       1 LZD        -0.3808
     16 C17        24.8310    6.5970   61.1580 C.ar      1 LZD         0.1213
     17 C18        25.7210    7.2340   60.2860 C.ar      1 LZD         0.1521
     18 F19        27.0130    6.8460   60.2850 F         1 LZD        -0.1785
     19 C20        25.2990    8.2580   59.4360 C.ar      1 LZD        -0.0263
     20 C21        23.9690    8.6470   59.4430 C.ar      1 LZD        -0.0612
     21 C22        23.0710    8.0220   60.2980 C.ar      1 LZD        -0.0263
     22 C23        23.5140    7.0030   61.1410 C.ar      1 LZD         0.1521
     23 F24        22.6500    6.3980   61.9770 F         1 LZD        -0.1785
     24 C25        31.2950    8.3350   63.8840 C.3       1 LZD        -0.0103
     25 N26        31.9970    9.6480   63.9620 N.4       1 LZD         0.2286
     26 H1         33.7624    8.8925   64.8699 H         1 LZD         0.0814
     27 H2         33.4789   10.6504   65.1070 H         1 LZD         0.0814
     28 H3         31.6090   10.1752   66.6249 H         1 LZD         0.0317
     29 H4         33.0938    9.3376   67.1909 H         1 LZD         0.0317
     30 H5         31.0490    7.8989   67.3176 H         1 LZD         0.0291
     31 H6         32.3154    7.2245   66.2368 H         1 LZD         0.0291
     32 H7         29.8402    8.7994   65.3972 H         1 LZD         0.0607
     33 H8         30.3166    5.9057   65.4926 H         1 LZD         0.1837
     34 H9         29.2711    4.2370   65.9204 H         1 LZD         0.2492
     35 H10        25.8709    2.9968   63.6940 H         1 LZD         0.0655
     36 H11        26.4733    6.8030   63.0249 H         1 LZD         0.2174
     37 H12        26.0068    8.7453   58.7752 H         1 LZD         0.0581
     38 H13        23.6305    9.4372   58.7827 H         1 LZD         0.0632
     39 H14        22.0302    8.3247   60.3102 H         1 LZD         0.0581
     40 H15        30.5476    8.3729   63.0778 H         1 LZD         0.0836
     41 H16        32.0295    7.5457   63.6663 H         1 LZD         0.0836
     42 H17        32.4680    9.8210   63.0878 H         1 LZD         0.2014
     43 H18        31.3177   10.3742   64.1272 H         1 LZD         0.2014
@<TRIPOS>BOND
     1    1    2 1  
     2    1   25 1  
     3    2    3 1  
     4    3    4 1  
     5    4    5 1  
     6    4   24 1  
     7    5    6 am 
     8    6    7 2  
     9    6    8 1  
    10    8    9 1  
    11    8   12 2  
    12    9   10 1  
    13   10   11 2  
    14   11   12 1  
    15   12   13 1  
    16   13   14 am 
    17   14   15 2  
    18   14   16 1  
    19   16   17 ar 
    20   16   22 ar 
    21   17   18 1  
    22   17   19 ar 
    23   19   20 ar 
    24   20   21 ar 
    25   21   22 ar 
    26   22   23 1  
    27   24   25 1  
    28    1   26 1  
    29    1   27 1  
    30    2   28 1  
    31    2   29 1  
    32    3   30 1  
    33    3   31 1  
    34    4   32 1  
    35    5   33 1  
    36    9   34 1  
    37   11   35 1  
    38   13   36 1  
    39   19   37 1  
    40   20   38 1  
    41   21   39 1  
    42   24   40 1  
    43   24   41 1  
    44   25   42 1  
    45   25   43 1  
@<TRIPOS>SUBSTRUCTURE
     1 LZD         1

