### 
### Created by X-TOOL on Mon Sep 10 21:12:58 2018
### 

@<TRIPOS>MOLECULE
2vu3_ligand
   43    45     1     0     0
SMALL
GAST_HUCK


@<TRIPOS>ATOM
      1 C26        32.2190    9.3900   64.4900 C.3       1 LZE        -0.0316
      2 C25        31.4440    8.0720   64.4030 C.3       1 LZE         0.0105
      3 C5         30.4040    7.9980   65.5230 C.3       1 LZE         0.0503
      4 N6         29.6370    6.7570   65.4530 N.am      1 LZE        -0.2856
      5 C7         28.4620    6.6600   64.7770 C.2       1 LZE         0.2127
      6 O8         27.8910    7.6330   64.2550 O.2       1 LZE        -0.3979
      7 C9         27.8750    5.3180   64.6820 C.2       1 LZE         0.1663
      8 N10        28.3050    4.2370   65.4030 N.pl3     1 LZE        -0.2186
      9 N11        27.5140    3.2110   64.9970 N.2       1 LZE        -0.2150
     10 C12        26.6020    3.6280   64.0730 C.2       1 LZE         0.0342
     11 C13        26.8230    4.9710   63.8550 C.2       1 LZE         0.1007
     12 N14        26.1960    5.8710   62.9950 N.am      1 LZE        -0.2438
     13 C15        25.3440    5.5340   62.0070 C.2       1 LZE         0.2267
     14 O16        24.9480    4.3810   61.8360 O.2       1 LZE        -0.3763
     15 C17        24.8480    6.6660   61.1660 C.ar      1 LZE         0.0820
     16 C18        23.5390    7.0760   61.2500 C.ar      1 LZE         0.0612
     17 C20        23.0680    8.1540   60.4980 C.ar      1 LZE        -0.0423
     18 C21        23.9300    8.8270   59.6510 C.ar      1 LZE        -0.0567
     19 C22        25.2560    8.4410   59.5750 C.ar      1 LZE        -0.0423
     20 C23        25.7030    7.3650   60.3310 C.ar      1 LZE         0.0612
     21 C4         31.0860    8.1570   66.8880 C.3       1 LZE         0.0105
     22 N24        32.8520    9.5430   65.8300 N.4       1 LZE         0.2271
     23 C3         31.8590    9.4730   66.9420 C.3       1 LZE        -0.0316
     24 CL1        27.3470    6.8660   60.1910 Cl        1 LZE        -0.0648
     25 CL7        22.4610    6.2370   62.2990 Cl        1 LZE        -0.0648
     26 H1         31.5265   10.2277   64.3204 H         1 LZE         0.0814
     27 H2         33.0023    9.3996   63.7178 H         1 LZE         0.0814
     28 H3         32.1454    7.2304   64.5018 H         1 LZE         0.0339
     29 H4         30.9351    8.0129   63.4296 H         1 LZE         0.0339
     30 H5         29.7025    8.8352   65.3930 H         1 LZE         0.0557
     31 H6         29.9903    5.9469   65.9209 H         1 LZE         0.1835
     32 H7         29.0624    4.2082   66.1005 H         1 LZE         0.2492
     33 H8         25.8400    3.0137   63.5956 H         1 LZE         0.0655
     34 H9         26.3940    6.8431   63.1211 H         1 LZE         0.2177
     35 H10        22.0317    8.4621   60.5775 H         1 LZE         0.0636
     36 H11        23.5680    9.6530   59.0496 H         1 LZE         0.0651
     37 H12        25.9428    8.9755   58.9287 H         1 LZE         0.0636
     38 H13        31.7822    7.3201   67.0459 H         1 LZE         0.0339
     39 H14        30.3214    8.1522   67.6788 H         1 LZE         0.0339
     40 H15        33.3172   10.4364   65.8678 H         1 LZE         0.2013
     41 H16        33.5287    8.8063   65.9540 H         1 LZE         0.2013
     42 H17        32.3877    9.5429   67.9041 H         1 LZE         0.0814
     43 H18        31.1529   10.3114   66.8498 H         1 LZE         0.0814
@<TRIPOS>BOND
     1    1    2 1  
     2    1   22 1  
     3    2    3 1  
     4    3    4 1  
     5    3   21 1  
     6    4    5 am 
     7    5    6 2  
     8    5    7 1  
     9    7    8 1  
    10    7   11 2  
    11    8    9 1  
    12    9   10 2  
    13   10   11 1  
    14   11   12 1  
    15   12   13 am 
    16   13   14 2  
    17   13   15 1  
    18   15   16 ar 
    19   15   20 ar 
    20   16   17 ar 
    21   16   25 1  
    22   17   18 ar 
    23   18   19 ar 
    24   19   20 ar 
    25   20   24 1  
    26   21   23 1  
    27   22   23 1  
    28    1   26 1  
    29    1   27 1  
    30    2   28 1  
    31    2   29 1  
    32    3   30 1  
    33    4   31 1  
    34    8   32 1  
    35   10   33 1  
    36   12   34 1  
    37   17   35 1  
    38   18   36 1  
    39   19   37 1  
    40   21   38 1  
    41   21   39 1  
    42   22   40 1  
    43   22   41 1  
    44   23   42 1  
    45   23   43 1  
@<TRIPOS>SUBSTRUCTURE
     1 LZE         1

