### 
### Created by X-TOOL on Mon Sep 10 21:12:57 2018
### 

@<TRIPOS>MOLECULE
2vuk_ligand
   37    39     1     0     0
SMALL
GAST_HUCK


@<TRIPOS>ATOM
      1 C1        125.2080  105.1940  -40.9940 C.ar      1 P83        -0.0447
      2 C2        125.0670  106.6170  -40.9240 C.ar      1 P83        -0.0651
      3 C3        124.7230  107.3860  -42.0870 C.ar      1 P83        -0.0113
      4 C4        124.5170  106.7290  -43.3250 C.ar      1 P83        -0.0617
      5 C4A       124.6530  105.2950  -43.4270 C.ar      1 P83        -0.0094
      6 C4B       124.5150  104.3730  -44.5110 C.ar      1 P83        -0.0048
      7 C5        124.1840  104.5310  -45.9020 C.ar      1 P83        -0.0679
      8 C6        124.1290  103.3890  -46.7440 C.ar      1 P83        -0.0747
      9 C7        124.4010  102.0950  -46.2260 C.ar      1 P83        -0.0730
     10 C8        124.7320  101.9150  -44.8550 C.ar      1 P83        -0.0401
     11 C8A       124.7830  103.0700  -44.0110 C.ar      1 P83         0.0671
     12 N9        125.0730  103.2080  -42.6510 N.pl3     1 P83        -0.2630
     13 C9A       125.0000  104.5460  -42.2620 C.ar      1 P83         0.0625
     14 C91       125.4180  102.0860  -41.7660 C.3       1 P83         0.0439
     15 C92       126.9350  101.9290  -41.6430 C.3       1 P83        -0.0403
     16 C31       124.6090  108.8950  -41.9140 C.3       1 P83        -0.0055
     17 N32       123.2310  109.3010  -41.6100 N.4       1 P83         0.2354
     18 C33       123.1400  110.7510  -41.3370 C.3       1 P83        -0.0437
     19 H1        125.4654  104.6181  -40.1124 H         1 P83         0.0528
     20 H2        125.2225  107.1222  -39.9776 H         1 P83         0.0523
     21 H3        124.2550  107.3077  -44.2034 H         1 P83         0.0510
     22 H4        123.9778  105.5160  -46.3049 H         1 P83         0.0578
     23 H5        123.8771  103.5060  -47.7918 H         1 P83         0.0517
     24 H6        124.3557  101.2344  -46.8836 H         1 P83         0.0570
     25 H7        124.9405  100.9278  -44.4588 H         1 P83         0.0539
     26 H8        124.9930  101.1590  -42.1785 H         1 P83         0.0574
     27 H9        124.9938  102.2716  -40.7682 H         1 P83         0.0574
     28 H10       127.1633  101.0842  -40.9766 H         1 P83         0.0254
     29 H11       127.3666  102.8512  -41.2268 H         1 P83         0.0254
     30 H12       127.3658  101.7386  -42.6371 H         1 P83         0.0254
     31 H13       124.9289  109.3863  -42.8447 H         1 P83         0.0956
     32 H14       125.2644  109.2104  -41.0888 H         1 P83         0.0956
     33 H15       122.9119  108.7946  -40.7990 H         1 P83         0.2023
     34 H16       122.6429  109.0787  -42.3979 H         1 P83         0.2023
     35 H17       122.0963  111.0173  -41.1141 H         1 P83         0.0777
     36 H18       123.4812  111.3124  -42.2193 H         1 P83         0.0777
     37 H19       123.7747  111.0023  -40.4745 H         1 P83         0.0777
@<TRIPOS>BOND
     1    1    2 ar 
     2    1   13 ar 
     3    2    3 ar 
     4    3    4 ar 
     5    3   16 1  
     6    4    5 ar 
     7    5    6 1  
     8    5   13 ar 
     9    6    7 ar 
    10    6   11 ar 
    11    7    8 ar 
    12    8    9 ar 
    13    9   10 ar 
    14   10   11 ar 
    15   11   12 1  
    16   12   13 1  
    17   12   14 1  
    18   14   15 1  
    19   16   17 1  
    20   17   18 1  
    21    1   19 1  
    22    2   20 1  
    23    4   21 1  
    24    7   22 1  
    25    8   23 1  
    26    9   24 1  
    27   10   25 1  
    28   14   26 1  
    29   14   27 1  
    30   15   28 1  
    31   15   29 1  
    32   15   30 1  
    33   16   31 1  
    34   16   32 1  
    35   17   33 1  
    36   17   34 1  
    37   18   35 1  
    38   18   36 1  
    39   18   37 1  
@<TRIPOS>SUBSTRUCTURE
     1 P83         1

