### 
### Created by X-TOOL on Mon Sep 10 21:13:00 2018
### 

@<TRIPOS>MOLECULE
2vur_ligand
   36    36     1     0     0
SMALL
GAST_HUCK


@<TRIPOS>ATOM
      1 O3         64.4780   72.2000   14.1780 O.3       1 YX1        -0.3867
      2 C3         63.1810   71.7080   14.6110 C.3       1 YX1         0.1108
      3 C4         63.2060   70.1630   14.5620 C.3       1 YX1         0.1116
      4 O4         63.4520   69.7150   13.2110 O.3       1 YX1        -0.3865
      5 C5         61.8880   69.5760   15.1260 C.3       1 YX1         0.1130
      6 C6         61.6900   68.0340   15.0720 C.3       1 YX1         0.0730
      7 O6         62.7540   67.4420   15.8330 O.3       1 YX1        -0.3924
      8 O5         61.8350   69.9590   16.5350 O.3       1 YX1        -0.3410
      9 C1         61.7380   71.4240   16.7480 C.3       1 YX1         0.1821
     10 O1         61.7680   71.6410   18.1640 O.3       1 YX1        -0.3651
     11 C2         62.9170   72.1900   16.0550 C.3       1 YX1         0.1213
     12 N2         62.7650   73.6660   16.1210 N.am      1 YX1        -0.2590
     13 CAM        61.7010   74.3560   15.6960 C.2       1 YX1         0.2991
     14 OAG        60.7240   73.7830   15.2060 O.2       1 YX1        -0.3972
     15 NAN        61.7730   75.7040   15.8670 N.am      1 YX1        -0.1903
     16 CAH        60.6570   76.5470   15.4510 C.3       1 YX1         0.0645
     17 NAO        62.8800   76.2690   16.4360 N.4       1 YX1         0.4824
     18 OAP        63.1670   77.4870   15.7840 O.3       1 YX1        -0.3107
     19 H1         64.6475   71.9046   13.2912 H         1 YX1         0.2100
     20 H2         62.3929   72.0885   13.9446 H         1 YX1         0.0645
     21 H3         64.0334   69.8106   15.1954 H         1 YX1         0.0647
     22 H4         63.4656   68.7653   13.1910 H         1 YX1         0.2100
     23 H5         61.0539   70.0388   14.5781 H         1 YX1         0.0647
     24 H6         61.7328   67.6849   14.0298 H         1 YX1         0.0584
     25 H7         60.7179   67.7634   15.5098 H         1 YX1         0.0584
     26 H8         63.5889   67.6857   15.4507 H         1 YX1         0.2095
     27 H9         60.7866   71.7917   16.3361 H         1 YX1         0.0932
     28 H10        61.7077   72.5722   18.3419 H         1 YX1         0.2126
     29 H11        63.8206   71.9459   16.6328 H         1 YX1         0.0630
     30 H12        63.5213   74.1874   16.5162 H         1 YX1         0.1852
     31 H13        60.8929   77.5998   15.6655 H         1 YX1         0.0534
     32 H14        59.7512   76.2546   16.0023 H         1 YX1         0.0534
     33 H15        60.4856   76.4222   14.3716 H         1 YX1         0.0534
     34 H16        63.6644   75.6431   16.3413 H         1 YX1         0.2724
     35 H17        62.7051   76.4430   17.4133 H         1 YX1         0.2724
     36 H18        63.9362   77.8820   16.1775 H         1 YX1         0.2719
@<TRIPOS>BOND
     1    1    2 1  
     2    2    3 1  
     3    2   11 1  
     4    3    4 1  
     5    3    5 1  
     6    5    6 1  
     7    5    8 1  
     8    6    7 1  
     9    8    9 1  
    10    9   10 1  
    11    9   11 1  
    12   11   12 1  
    13   12   13 am 
    14   13   14 2  
    15   13   15 am 
    16   15   16 1  
    17   15   17 1  
    18   17   18 1  
    19    1   19 1  
    20    2   20 1  
    21    3   21 1  
    22    4   22 1  
    23    5   23 1  
    24    6   24 1  
    25    6   25 1  
    26    7   26 1  
    27    9   27 1  
    28   10   28 1  
    29   11   29 1  
    30   12   30 1  
    31   16   31 1  
    32   16   32 1  
    33   16   33 1  
    34   17   34 1  
    35   17   35 1  
    36   18   36 1  
@<TRIPOS>SUBSTRUCTURE
     1 YX1         1

