### 
### Created by X-TOOL on Mon Sep 10 21:12:57 2018
### 

@<TRIPOS>MOLECULE
2vv9_ligand
   61    64     1     0     0
SMALL
GAST_HUCK


@<TRIPOS>ATOM
      1 C1          0.1430   27.8850   11.7300 C.3       1 IM9        -0.0348
      2 C2         -0.2850   27.8580   10.2590 C.3       1 IM9         0.0632
      3 C3         -0.5410   26.4200    9.8130 C.3       1 IM9        -0.0348
      4 N4         -1.4660   28.7070   10.0580 N.pl3     1 IM9        -0.2333
      5 C5         -2.6860   28.5470   10.6050 C.2       1 IM9         0.1219
      6 C6         -3.0600   27.4100   11.5270 C.3       1 IM9         0.0165
      7 N7         -3.4770   29.5310   10.2210 N.2       1 IM9        -0.3184
      8 C8         -2.8090   30.3540    9.4030 C.2       1 IM9        -0.0085
      9 C9         -1.5400   29.8640    9.2960 C.2       1 IM9         0.0971
     10 C10        -0.4490   30.4510    8.4960 C.ar      1 IM9         0.0650
     11 C11        -0.4440   31.8430    8.2470 C.ar      1 IM9        -0.0229
     12 C12         0.5960   32.3380    7.4780 C.ar      1 IM9         0.0065
     13 N13         1.5450   31.5190    7.0220 N.ar      1 IM9        -0.2610
     14 C14         1.5440   30.2190    7.3010 C.ar      1 IM9         0.1986
     15 N15         2.6180   29.5230    6.7600 N.pl3     1 IM9        -0.2501
     16 C16         3.0890   28.2370    7.0170 C.ar      1 IM9         0.0529
     17 C17         2.6380   27.4060    8.0430 C.ar      1 IM9        -0.0489
     18 C18         3.2010   26.1370    8.1780 C.ar      1 IM9        -0.0528
     19 C19         4.2020   25.6810    7.3260 C.ar      1 IM9         0.0295
     20 C20         4.6660   26.5170    6.3170 C.ar      1 IM9        -0.0528
     21 C21         4.1070   27.7820    6.1860 C.ar      1 IM9        -0.0489
     22 N22         4.7890   24.4050    7.4980 N.pl3     1 IM9        -0.3108
     23 C23         4.0950   23.6010    8.5120 C.3       1 IM9         0.0452
     24 C24         4.9130   22.3380    8.7680 C.3       1 IM9         0.0532
     25 N25         5.1630   21.6640    7.4750 N.am      1 IM9        -0.2676
     26 C26         5.7820   22.4540    6.3990 C.3       1 IM9         0.0532
     27 C27         4.8900   23.6990    6.2130 C.3       1 IM9         0.0452
     28 C28         4.8460   20.3640    7.2700 C.2       1 IM9         0.2044
     29 O29         5.1040   19.8400    6.1920 O.2       1 IM9        -0.3943
     30 C30         4.1920   19.5550    8.3640 C.3       1 IM9         0.1333
     31 O31         4.0100   18.1830    7.9730 O.3       1 IM9        -0.3746
     32 N32         0.5460   29.6620    8.0220 N.ar      1 IM9        -0.2570
     33 H1          1.0277   27.2456   11.8662 H         1 IM9         0.0259
     34 H2         -0.6793   27.5118   12.3581 H         1 IM9         0.0259
     35 H3          0.3880   28.9169   12.0217 H         1 IM9         0.0259
     36 H4          0.5361   28.2645    9.6503 H         1 IM9         0.0644
     37 H5         -0.8473   26.4128    8.7565 H         1 IM9         0.0259
     38 H6         -1.3397   25.9816   10.4293 H         1 IM9         0.0259
     39 H7          0.3796   25.8298    9.9318 H         1 IM9         0.0259
     40 H8         -4.1121   27.5149   11.8303 H         1 IM9         0.0483
     41 H9         -2.4170   27.4347   12.4192 H         1 IM9         0.0483
     42 H10        -2.9233   26.4527   11.0028 H         1 IM9         0.0483
     43 H11        -3.2033   31.2446    8.9159 H         1 IM9         0.0571
     44 H12        -1.2181   32.4923    8.6397 H         1 IM9         0.0628
     45 H13         0.6390   33.3959    7.2456 H         1 IM9         0.0866
     46 H14         3.1548   30.0438    6.0518 H         1 IM9         0.2144
     47 H15         1.8634   27.7408    8.7235 H         1 IM9         0.0507
     48 H16         2.8482   25.4867    8.9703 H         1 IM9         0.0490
     49 H17         5.4499   26.1878    5.6445 H         1 IM9         0.0490
     50 H18         4.4780   28.4386    5.4073 H         1 IM9         0.0507
     51 H19         3.0937   23.3276    8.1479 H         1 IM9         0.0529
     52 H20         4.0015   24.1782    9.4437 H         1 IM9         0.0529
     53 H21         4.3547   21.6643    9.4346 H         1 IM9         0.0541
     54 H22         5.8713   22.6064    9.2367 H         1 IM9         0.0541
     55 H23         5.8187   21.8685    5.4685 H         1 IM9         0.0541
     56 H24         6.8012   22.7541    6.6839 H         1 IM9         0.0541
     57 H25         5.3365   24.3645    5.4595 H         1 IM9         0.0529
     58 H26         3.8879   23.3896    5.8813 H         1 IM9         0.0529
     59 H27         3.2098   19.9938    8.5935 H         1 IM9         0.0801
     60 H28         4.8275   19.5889    9.2612 H         1 IM9         0.0801
     61 H29         3.4575   18.1455    7.2010 H         1 IM9         0.2129
@<TRIPOS>BOND
     1    1    2 1  
     2    2    3 1  
     3    2    4 1  
     4    4    5 1  
     5    4    9 1  
     6    5    6 1  
     7    5    7 2  
     8    7    8 1  
     9    8    9 2  
    10    9   10 1  
    11   10   11 ar 
    12   10   32 ar 
    13   11   12 ar 
    14   12   13 ar 
    15   13   14 ar 
    16   14   15 1  
    17   14   32 ar 
    18   15   16 1  
    19   16   17 ar 
    20   16   21 ar 
    21   17   18 ar 
    22   18   19 ar 
    23   19   20 ar 
    24   19   22 1  
    25   20   21 ar 
    26   22   23 1  
    27   22   27 1  
    28   23   24 1  
    29   24   25 1  
    30   25   26 1  
    31   25   28 am 
    32   26   27 1  
    33   28   29 2  
    34   28   30 1  
    35   30   31 1  
    36    1   33 1  
    37    1   34 1  
    38    1   35 1  
    39    2   36 1  
    40    3   37 1  
    41    3   38 1  
    42    3   39 1  
    43    6   40 1  
    44    6   41 1  
    45    6   42 1  
    46    8   43 1  
    47   11   44 1  
    48   12   45 1  
    49   15   46 1  
    50   17   47 1  
    51   18   48 1  
    52   20   49 1  
    53   21   50 1  
    54   23   51 1  
    55   23   52 1  
    56   24   53 1  
    57   24   54 1  
    58   26   55 1  
    59   26   56 1  
    60   27   57 1  
    61   27   58 1  
    62   30   59 1  
    63   30   60 1  
    64   31   61 1  
@<TRIPOS>SUBSTRUCTURE
     1 IM9         1

