### 
### Created by X-TOOL on Mon Sep 10 21:13:01 2018
### 

@<TRIPOS>MOLECULE
2vvc_ligand
   57    60     1     0     0
SMALL
GAST_HUCK


@<TRIPOS>ATOM
      1 F32        18.4580    6.3380   28.4850 F         1 LZF        -0.1956
      2 C17        17.4610    7.0660   28.9970 C.ar      1 LZF         0.1466
      3 C11        17.7560    7.8220   30.1290 C.ar      1 LZF        -0.0056
      4 C9         16.7640    8.5870   30.7190 C.ar      1 LZF         0.0960
      5 N1         17.0790    9.3570   31.8630 N.am      1 LZF        -0.1717
      6 C21        16.9670    8.8640   33.1800 C.2       1 LZF         0.0799
      7 C29        17.2770    9.6510   34.2420 C.2       1 LZF        -0.0402
      8 C30        17.7360   10.9740   34.0260 C.2       1 LZF        -0.0778
      9 C23        17.8640   11.4670   32.7610 C.2       1 LZF        -0.0111
     10 C8         17.5350   10.6650   31.6400 C.2       1 LZF         0.2151
     11 O25        17.6350   11.0640   30.4800 O.2       1 LZF        -0.4155
     12 C26        15.4890    8.5950   30.1450 C.ar      1 LZF        -0.0431
     13 C28        15.1830    7.8360   29.0080 C.ar      1 LZF        -0.0478
     14 C16        16.1860    7.0600   28.4270 C.ar      1 LZF         0.0922
     15 N15        15.9100    6.3400   27.3060 N.am      1 LZF        -0.2336
     16 C14        15.8440    6.9870   26.1210 C.2       1 LZF         0.2463
     17 O27        15.9760    8.1930   26.0420 O.2       1 LZF        -0.3804
     18 C22        15.5850    6.2190   24.8430 C.3       1 LZF         0.0635
     19 N4         15.4400    4.7930   25.1550 N.4       1 LZF         0.2559
     20 C20        15.5750    3.9250   23.9670 C.3       1 LZF        -0.0007
     21 C13        14.8410    2.6470   24.3770 C.3       1 LZF         0.1254
     22 O33        14.2670    1.9130   23.2900 O.3       1 LZF        -0.3720
     23 C34        15.1810    1.5650   22.2430 C.3       1 LZF         0.0372
     24 C18        14.1390    4.4840   25.8000 C.3       1 LZF        -0.0039
     25 C6         13.7140    3.1080   25.2870 C.3       1 LZF         0.1116
     26 N7         13.7210    2.1530   26.4030 N.am      1 LZF        -0.2768
     27 C5         12.6600    1.9890   27.1910 C.2       1 LZF         0.2080
     28 O24        11.6770    2.6510   27.0200 O.2       1 LZF        -0.3910
     29 C2         12.6410    1.0190   28.3150 C.2       1 LZF         0.0995
     30 C12        13.4060   -0.1010   28.6120 C.2       1 LZF        -0.0542
     31 C19        13.0090   -0.7190   29.7850 C.2       1 LZF        -0.0524
     32 S3         11.3770    1.3900   29.4570 S.3       1 LZF        -0.0137
     33 C10        11.9730    0.0230   30.3020 C.2       1 LZF         0.1023
     34 CL1        11.1130   -0.3430   31.8590 Cl        1 LZF        -0.0499
     35 H1         18.7566    7.8116   30.5458 H         1 LZF         0.0513
     36 H2         16.6286    7.8424   33.3464 H         1 LZF         0.1228
     37 H3         17.1733    9.2670   35.2558 H         1 LZF         0.0371
     38 H4         17.9889   11.6030   34.8782 H         1 LZF         0.0636
     39 H5         18.2217   12.4846   32.6112 H         1 LZF         0.0399
     40 H6         14.7143    9.2067   30.5931 H         1 LZF         0.0496
     41 H7         14.1842    7.8515   28.5870 H         1 LZF         0.0473
     42 H8         15.7591    5.3528   27.3577 H         1 LZF         0.2223
     43 H9         16.4293    6.3599   24.1521 H         1 LZF         0.1067
     44 H10        14.6613    6.5881   24.3733 H         1 LZF         0.1067
     45 H11        16.1756    4.5539   25.8014 H         1 LZF         0.2055
     46 H12        16.6331    3.7184   23.7485 H         1 LZF         0.0841
     47 H13        15.1020    4.3855   23.0871 H         1 LZF         0.0841
     48 H14        15.5338    1.9883   24.9212 H         1 LZF         0.0675
     49 H15        14.6465    1.0068   21.4602 H         1 LZF         0.0524
     50 H16        15.9877    0.9398   22.6532 H         1 LZF         0.0524
     51 H17        15.6105    2.4812   21.8116 H         1 LZF         0.0524
     52 H18        13.3893    5.2402   25.5241 H         1 LZF         0.0838
     53 H19        14.2531    4.4627   26.8939 H         1 LZF         0.0838
     54 H20        12.7398    3.1421   24.7774 H         1 LZF         0.0636
     55 H21        14.5440    1.6118   26.5756 H         1 LZF         0.1843
     56 H22        14.2276   -0.4542   27.9906 H         1 LZF         0.0517
     57 H23        13.4365   -1.6226   30.2171 H         1 LZF         0.0447
@<TRIPOS>BOND
     1    1    2 1  
     2    2    3 ar 
     3    2   14 ar 
     4    3    4 ar 
     5    4    5 1  
     6    4   12 ar 
     7    5    6 1  
     8    5   10 am 
     9    6    7 2  
    10    7    8 1  
    11    8    9 2  
    12    9   10 1  
    13   10   11 2  
    14   12   13 ar 
    15   13   14 ar 
    16   14   15 1  
    17   15   16 am 
    18   16   17 2  
    19   16   18 1  
    20   18   19 1  
    21   19   20 1  
    22   19   24 1  
    23   20   21 1  
    24   21   22 1  
    25   21   25 1  
    26   22   23 1  
    27   24   25 1  
    28   25   26 1  
    29   26   27 am 
    30   27   28 2  
    31   27   29 1  
    32   29   30 2  
    33   29   32 1  
    34   30   31 1  
    35   31   33 2  
    36   32   33 1  
    37   33   34 1  
    38    3   35 1  
    39    6   36 1  
    40    7   37 1  
    41    8   38 1  
    42    9   39 1  
    43   12   40 1  
    44   13   41 1  
    45   15   42 1  
    46   18   43 1  
    47   18   44 1  
    48   19   45 1  
    49   20   46 1  
    50   20   47 1  
    51   21   48 1  
    52   23   49 1  
    53   23   50 1  
    54   23   51 1  
    55   24   52 1  
    56   24   53 1  
    57   25   54 1  
    58   26   55 1  
    59   30   56 1  
    60   31   57 1  
@<TRIPOS>SUBSTRUCTURE
     1 LZF         1

