### 
### Created by X-TOOL on Mon Sep 10 21:12:57 2018
### 

@<TRIPOS>MOLECULE
2vvn_ligand
   32    33     1     0     0
SMALL
GAST_HUCK


@<TRIPOS>ATOM
      1 C1          6.3930  -12.1410    4.2100 C.3       1 NHT         0.1369
      2 C2          7.8120  -11.7890    3.8030 C.3       1 NHT         0.0547
      3 C3          7.6180  -10.6840    2.7300 C.3       1 NHT         0.0928
      4 C4          6.5650  -11.0700    1.6530 C.3       1 NHT         0.1098
      5 C5          5.2230  -11.2940    2.3350 C.3       1 NHT         0.1116
      6 C6          4.0720  -11.7090    1.4120 C.3       1 NHT         0.0730
      7 C7          7.5900  -10.6140    5.9080 C.2       1 NHT         0.1594
      8 C10         7.7110   -9.0540    9.2650 C.3       1 NHT        -0.0438
      9 N2          8.3810  -11.0590    4.9600 N.2       1 NHT        -0.3555
     10 O3          8.8330  -10.2560    2.0900 O.3       1 NHT        -0.3886
     11 O4          6.3580  -10.0280    0.6770 O.3       1 NHT        -0.3866
     12 O5          5.4240  -12.3820    3.2010 O.3       1 NHT        -0.3538
     13 N1          7.9820   -9.9040    6.9460 N.pl3     1 NHT        -0.2802
     14 O6          4.4510  -12.8820    0.6970 O.3       1 NHT        -0.3924
     15 S1          5.9220  -11.1740    5.6440 S.3       1 NHT         0.0009
     16 C9          7.0340   -9.5160    7.9880 C.3       1 NHT         0.0329
     17 H1          6.5089  -13.1512    4.6295 H         1 NHT         0.0757
     18 H2          8.4135  -12.6483    3.4716 H         1 NHT         0.0398
     19 H3          7.2211   -9.8089    3.2654 H         1 NHT         0.0626
     20 H4          6.8925  -11.9889    1.1448 H         1 NHT         0.0646
     21 H5          4.9380  -10.3867    2.8878 H         1 NHT         0.0646
     22 H6          3.8578  -10.8970    0.7015 H         1 NHT         0.0584
     23 H7          3.1742  -11.9171    2.0126 H         1 NHT         0.0584
     24 H8          6.9464   -8.7774   10.0059 H         1 NHT         0.0250
     25 H9          8.3448   -8.1813    9.0490 H         1 NHT         0.0250
     26 H10         8.3324   -9.8683    9.6659 H         1 NHT         0.0250
     27 H11         8.6520   -9.5017    1.5416 H         1 NHT         0.2099
     28 H12         5.7006  -10.3080    0.0511 H         1 NHT         0.2100
     29 H13         8.9687   -9.6189    7.0241 H         1 NHT         0.1939
     30 H14         4.6364  -13.5810    1.3131 H         1 NHT         0.2095
     31 H15         6.4099   -8.6949    7.6056 H         1 NHT         0.0531
     32 H16         6.3975  -10.3819    8.2225 H         1 NHT         0.0531
@<TRIPOS>BOND
     1    1    2 1  
     2    1   12 1  
     3   15    1 1  
     4    2    3 1  
     5    9    2 1  
     6    3    4 1  
     7    3   10 1  
     8    5    4 1  
     9    4   11 1  
    10    5    6 1  
    11   12    5 1  
    12    6   14 1  
    13    7    9 2  
    14   13    7 1  
    15    7   15 1  
    16   16    8 1  
    17   13   16 1  
    18    1   17 1  
    19    2   18 1  
    20    3   19 1  
    21    4   20 1  
    22    5   21 1  
    23    6   22 1  
    24    6   23 1  
    25    8   24 1  
    26    8   25 1  
    27    8   26 1  
    28   10   27 1  
    29   11   28 1  
    30   13   29 1  
    31   14   30 1  
    32   16   31 1  
    33   16   32 1  
@<TRIPOS>SUBSTRUCTURE
     1 NHT         1

