### 
### Created by X-TOOL on Mon Sep 10 21:12:58 2018
### 

@<TRIPOS>MOLECULE
2vvs_ligand
   44    45     1     0     0
SMALL
GAST_HUCK


@<TRIPOS>ATOM
      1 CAH       -11.0440  -11.0480    5.0140 C.3       1 OAN         0.0258
      2 CAG       -10.1010  -10.6620    6.1550 C.2       1 OAN         0.1755
      3 OAN       -10.0280   -9.4940    6.5560 O.2       1 OAN        -0.3972
      4 NAI        -9.3900  -11.6960    6.6290 N.am      1 OAN        -0.2641
      5 CAB        -8.4910  -11.6390    7.8050 C.3       1 OAN         0.1483
      6 CAC        -9.3330  -11.3550    9.0850 C.3       1 OAN         0.1223
      7 OAJ        -9.6890  -12.5700    9.7800 O.3       1 OAN        -0.3842
      8 CAD        -8.6020  -10.3850   10.0360 C.3       1 OAN         0.1187
      9 OAK        -9.3910  -10.0790   11.1690 O.3       1 OAN        -0.3859
     10 CAE        -8.2570   -9.0810    9.3020 C.3       1 OAN         0.1375
     11 CAF        -7.7340   -8.0110   10.2590 C.3       1 OAN         0.0780
     12 OAM        -6.3940   -8.2640   10.6250 O.3       1 OAN        -0.3919
     13 OAL        -7.3370   -9.3630    8.2000 O.3       1 OAN        -0.2871
     14 CAA        -7.2930  -10.6400    7.6750 C.2       1 OAN         0.1893
     15 NAY        -6.1040  -11.0150    7.1650 N.2       1 OAN        -0.1541
     16 OAQ        -5.0990  -10.0500    7.1720 O.3       1 OAN        -0.1506
     17 CAP        -3.8640  -10.4690    6.7480 C.2       1 OAN         0.3788
     18 OAR        -3.6570  -11.6350    6.3820 O.2       1 OAN        -0.3643
     19 NAO        -2.9010   -9.5330    6.7790 N.am      1 OAN        -0.2057
     20 CAS        -1.6490   -9.7190    6.3480 C.ar      1 OAN         0.0683
     21 CAT        -1.0970  -10.9990    6.1970 C.ar      1 OAN        -0.0414
     22 CAU         0.1960  -11.1490    5.7070 C.ar      1 OAN        -0.0756
     23 CAV         0.9380  -10.0060    5.3760 C.ar      1 OAN        -0.0773
     24 CAW         0.3880   -8.7220    5.5310 C.ar      1 OAN        -0.0756
     25 CAX        -0.9140   -8.5850    6.0040 C.ar      1 OAN        -0.0414
     26 H1        -10.9560  -12.1262    4.8144 H         1 OAN         0.0467
     27 H2        -10.7742  -10.4844    4.1087 H         1 OAN         0.0467
     28 H3        -12.0799  -10.8112    5.2984 H         1 OAN         0.0467
     29 H4         -9.4731  -12.5713    6.1526 H         1 OAN         0.1888
     30 H5         -8.0490  -12.6402    7.9155 H         1 OAN         0.0821
     31 H6        -10.2664  -10.8696    8.7641 H         1 OAN         0.0672
     32 H7        -10.1998  -12.3542   10.5514 H         1 OAN         0.2103
     33 H8         -7.6703  -10.8630   10.3730 H         1 OAN         0.0653
     34 H9         -8.9145   -9.4815   11.7333 H         1 OAN         0.2100
     35 H10        -9.1866   -8.6910    8.8619 H         1 OAN         0.0708
     36 H11        -8.3580   -8.0038   11.1648 H         1 OAN         0.0588
     37 H12        -7.7920   -7.0294    9.7660 H         1 OAN         0.0588
     38 H13        -6.0955   -7.5851   11.2187 H         1 OAN         0.2095
     39 H14        -3.1368   -8.6349    7.1501 H         1 OAN         0.2276
     40 H15        -1.6794  -11.8738    6.4628 H         1 OAN         0.0501
     41 H16         0.6247  -12.1368    5.5826 H         1 OAN         0.0577
     42 H17         1.9475  -10.1141    4.9962 H         1 OAN         0.0487
     43 H18         0.9739   -7.8441    5.2838 H         1 OAN         0.0577
     44 H19        -1.3551   -7.5999    6.1046 H         1 OAN         0.0501
@<TRIPOS>BOND
     1    1    2 1  
     2    2    3 2  
     3    2    4 am 
     4    4    5 1  
     5    5    6 1  
     6    5   14 1  
     7    6    7 1  
     8    6    8 1  
     9    8    9 1  
    10    8   10 1  
    11   10   11 1  
    12   10   13 1  
    13   11   12 1  
    14   13   14 1  
    15   14   15 2  
    16   15   16 1  
    17   16   17 1  
    18   17   18 2  
    19   17   19 am 
    20   19   20 1  
    21   20   21 ar 
    22   20   25 ar 
    23   21   22 ar 
    24   22   23 ar 
    25   23   24 ar 
    26   24   25 ar 
    27    1   26 1  
    28    1   27 1  
    29    1   28 1  
    30    4   29 1  
    31    5   30 1  
    32    6   31 1  
    33    7   32 1  
    34    8   33 1  
    35    9   34 1  
    36   10   35 1  
    37   11   36 1  
    38   11   37 1  
    39   12   38 1  
    40   19   39 1  
    41   21   40 1  
    42   22   41 1  
    43   23   42 1  
    44   24   43 1  
    45   25   44 1  
@<TRIPOS>SUBSTRUCTURE
     1 OAN         1

