### 
### Created by X-TOOL on Mon Sep 10 21:13:01 2018
### 

@<TRIPOS>MOLECULE
2vvu_ligand
   53    56     1     0     0
SMALL
GAST_HUCK


@<TRIPOS>ATOM
      1 F3         -3.6650    9.7270   19.7840 F         1 H22        -0.1956
      2 C17        -4.8590    9.1110   19.8080 C.ar      1 H22         0.1466
      3 C11        -5.0640    8.0370   18.9520 C.ar      1 H22        -0.0056
      4 C9         -6.2820    7.3840   18.9520 C.ar      1 H22         0.0960
      5 N1         -6.4580    6.2980   18.0600 N.am      1 H22        -0.1717
      6 C21        -6.4190    5.0490   18.5120 C.2       1 H22         0.0799
      7 C29        -6.5930    3.9610   17.6670 C.2       1 H22        -0.0402
      8 C30        -6.8210    4.0840   16.2350 C.2       1 H22        -0.0778
      9 C23        -6.8430    5.4700   15.7930 C.2       1 H22        -0.0111
     10 C8         -6.6730    6.5220   16.6760 C.2       1 H22         0.2151
     11 O25        -6.7070    7.7770   16.1690 O.2       1 H22        -0.4155
     12 C26        -7.2940    7.8130   19.8190 C.ar      1 H22        -0.0431
     13 C28        -7.0830    8.8980   20.6870 C.ar      1 H22        -0.0478
     14 C16        -5.8530    9.5570   20.6690 C.ar      1 H22         0.0922
     15 N15        -5.6040   10.6180   21.4830 N.am      1 H22        -0.2336
     16 C14        -5.1940   11.7920   20.9740 C.2       1 H22         0.2463
     17 O27        -4.9470   11.9650   19.7910 O.2       1 H22        -0.3804
     18 C22        -5.0350   12.9760   21.9050 C.3       1 H22         0.0634
     19 N4         -4.8940   12.5370   23.2970 N.4       1 H22         0.2540
     20 C20        -3.5670   11.9320   23.5430 C.3       1 H22        -0.0065
     21 C24        -3.0640   12.4280   24.8970 C.3       1 H22         0.0855
     22 C34        -4.1500   13.3730   25.4000 C.3       1 H22         0.0154
     23 C31        -5.0300   13.6970   24.1920 C.3       1 H22        -0.0277
     24 N7         -3.0110   11.2760   25.8000 N.am      1 H22        -0.2794
     25 C5         -2.0490   10.3650   25.6450 C.2       1 H22         0.2079
     26 O24        -1.2160   10.4720   24.7550 O.2       1 H22        -0.3910
     27 C2         -1.9620    9.1790   26.5430 C.2       1 H22         0.0995
     28 C12        -2.7000    8.7280   27.6480 C.2       1 H22        -0.0542
     29 C19        -2.2180    7.5250   28.1530 C.2       1 H22        -0.0524
     30 S3         -0.6540    8.1350   26.0730 S.3       1 H22        -0.0137
     31 C10        -1.1280    7.1240   27.3910 C.2       1 H22         0.1023
     32 CL1        -0.1830    5.5740   27.7080 Cl        1 H22        -0.0499
     33 H1         -4.2722    7.7122   18.2867 H         1 H22         0.0513
     34 H2         -6.2461    4.8742   19.5729 H         1 H22         0.1228
     35 H3         -6.5569    2.9620   18.0991 H         1 H22         0.0371
     36 H4         -6.9596    3.2338   15.5688 H         1 H22         0.0636
     37 H5         -6.9977    5.6858   14.7369 H         1 H22         0.0399
     38 H6         -8.2505    7.3029   19.8209 H         1 H22         0.0496
     39 H7         -7.8670    9.2194   21.3630 H         1 H22         0.0473
     40 H8         -5.7274   10.5233   22.4708 H         1 H22         0.2223
     41 H9         -5.9215   13.6217   21.8199 H         1 H22         0.1067
     42 H10        -4.1386   13.5436   21.6147 H         1 H22         0.1067
     43 H11        -5.6129   11.8611   23.5029 H         1 H22         0.2054
     44 H12        -2.8663   12.2350   22.7510 H         1 H22         0.0837
     45 H13        -3.6536   10.8355   23.5562 H         1 H22         0.0837
     46 H14        -2.0862   12.9258   24.8195 H         1 H22         0.0609
     47 H15        -3.6990   14.2929   25.8003 H         1 H22         0.0341
     48 H16        -4.7459   12.8849   26.1853 H         1 H22         0.0341
     49 H17        -6.0778   13.8257   24.5010 H         1 H22         0.0815
     50 H18        -4.6795   14.6127   23.6934 H         1 H22         0.0815
     51 H19        -3.6903   11.1733   26.5266 H         1 H22         0.1842
     52 H20        -3.5544    9.2602   28.0636 H         1 H22         0.0517
     53 H21        -2.6279    6.9859   29.0058 H         1 H22         0.0447
@<TRIPOS>BOND
     1    1    2 1  
     2    2    3 ar 
     3    2   14 ar 
     4    3    4 ar 
     5    4    5 1  
     6    4   12 ar 
     7    5    6 am 
     8    5   10 am 
     9    6    7 2  
    10    7    8 1  
    11    8    9 2  
    12    9   10 1  
    13   10   11 2  
    14   12   13 ar 
    15   13   14 ar 
    16   14   15 1  
    17   15   16 am 
    18   16   17 2  
    19   16   18 1  
    20   18   19 1  
    21   19   20 1  
    22   19   23 1  
    23   20   21 1  
    24   21   22 1  
    25   21   24 1  
    26   22   23 1  
    27   24   25 am 
    28   25   26 2  
    29   25   27 1  
    30   27   28 2  
    31   27   30 1  
    32   28   29 1  
    33   29   31 2  
    34   30   31 1  
    35   31   32 1  
    36    3   33 1  
    37    6   34 1  
    38    7   35 1  
    39    8   36 1  
    40    9   37 1  
    41   12   38 1  
    42   13   39 1  
    43   15   40 1  
    44   18   41 1  
    45   18   42 1  
    46   19   43 1  
    47   20   44 1  
    48   20   45 1  
    49   21   46 1  
    50   22   47 1  
    51   22   48 1  
    52   23   49 1  
    53   23   50 1  
    54   24   51 1  
    55   28   52 1  
    56   29   53 1  
@<TRIPOS>SUBSTRUCTURE
     1 H22         1

