### 
### Created by X-TOOL on Mon Sep 10 21:13:00 2018
### 

@<TRIPOS>MOLECULE
2vvv_ligand
   46    49     1     0     0
SMALL
GAST_HUCK


@<TRIPOS>ATOM
      1 F3         -3.6350    9.6440   19.9520 F         1 H21        -0.1956
      2 C17        -4.8340    9.0660   19.9590 C.ar      1 H21         0.1465
      3 C11        -5.0610    8.0090   19.0820 C.ar      1 H21        -0.0056
      4 C9         -6.2980    7.3880   19.0840 C.ar      1 H21         0.0960
      5 N1         -6.5380    6.2780   18.1860 N.am      1 H21        -0.1717
      6 C21        -6.3240    4.9850   18.5650 C.2       1 H21         0.0799
      7 C29        -6.5390    3.9300   17.7550 C.2       1 H21        -0.0402
      8 C30        -7.0150    4.1770   16.4480 C.2       1 H21        -0.0778
      9 C23        -7.2450    5.4450   16.0460 C.2       1 H21        -0.0111
     10 C8         -7.0110    6.5640   16.8960 C.2       1 H21         0.2151
     11 O25        -7.1930    7.7250   16.5680 O.2       1 H21        -0.4155
     12 C26        -7.2850    7.8420   19.9720 C.ar      1 H21        -0.0431
     13 C28        -7.0540    8.9190   20.8410 C.ar      1 H21        -0.0478
     14 C16        -5.8040    9.5480   20.8340 C.ar      1 H21         0.0921
     15 N15        -5.5050   10.6020   21.6640 N.am      1 H21        -0.2357
     16 C14        -5.2140   11.8080   21.1430 C.2       1 H21         0.2328
     17 O27        -5.2340   11.9710   19.9400 O.2       1 H21        -0.3831
     18 C22        -4.8650   13.0060   22.0170 C.3       1 H21         0.1623
     19 N4         -4.8030   12.6490   23.4180 N.pl3     1 H21        -0.1783
     20 C20        -5.4830   13.1570   24.4410 C.2       1 H21         0.1220
     21 N7         -3.5850   10.7420   26.0210 N.am      1 H21        -0.2202
     22 C5         -2.3420   10.1530   25.8370 C.2       1 H21         0.2345
     23 O24        -1.6140   10.3940   24.8920 O.2       1 H21        -0.3804
     24 C2         -2.0660    9.0860   26.7980 C.2       1 H21         0.1054
     25 C12        -2.7130    8.7270   27.9430 C.2       1 H21        -0.0538
     26 C19        -2.1780    7.5590   28.5160 C.2       1 H21        -0.0524
     27 S3         -0.8190    8.0040   26.3740 S.3       1 H21        -0.0132
     28 C10        -1.1780    7.0690   27.7600 C.2       1 H21         0.1023
     29 CL1        -0.2510    5.6570   27.9990 Cl        1 H21        -0.0499
     30 N2         -5.1480   12.5460   25.5690 N.2       1 H21        -0.2645
     31 N5         -3.9760   11.6780   23.8560 N.2       1 H21        -0.1938
     32 C1         -4.2040   11.7120   25.1430 C.2       1 H21         0.1797
     33 H1         -4.2802    7.6771   18.4072 H         1 H21         0.0513
     34 H2         -5.9607    4.7959   19.5741 H         1 H21         0.1228
     35 H3         -6.3509    2.9139   18.0987 H         1 H21         0.0371
     36 H4         -7.1959    3.3469   15.7668 H         1 H21         0.0636
     37 H5         -7.6217    5.6182   15.0390 H         1 H21         0.0399
     38 H6         -8.2500    7.3484   19.9870 H         1 H21         0.0496
     39 H7         -7.8353    9.2601   21.5105 H         1 H21         0.0473
     40 H8         -5.5037   10.4725   22.6556 H         1 H21         0.2222
     41 H9         -5.6328   13.7818   21.8809 H         1 H21         0.0878
     42 H10        -3.8862   13.4003   21.7064 H         1 H21         0.0878
     43 H11        -6.2126   13.9618   24.3635 H         1 H21         0.1348
     44 H12        -4.1000   10.4716   26.8344 H         1 H21         0.2241
     45 H13        -3.5493    9.2816   28.3661 H         1 H21         0.0517
     46 H14        -2.5260    7.1116   29.4459 H         1 H21         0.0447
@<TRIPOS>BOND
     1    2    1 1  
     2    2    3 ar 
     3   14    2 ar 
     4    3    4 ar 
     5    4    5 1  
     6   12    4 ar 
     7    5    6 1  
     8    5   10 am 
     9    6    7 2  
    10    7    8 1  
    11    9    8 2  
    12   10    9 1  
    13   10   11 2  
    14   13   12 ar 
    15   14   13 ar 
    16   15   14 1  
    17   16   15 am 
    18   16   17 2  
    19   18   16 1  
    20   19   18 1  
    21   20   19 1  
    22   19   31 1  
    23   30   20 2  
    24   21   22 am 
    25   32   21 1  
    26   22   23 2  
    27   22   24 1  
    28   24   25 2  
    29   24   27 1  
    30   25   26 1  
    31   28   26 2  
    32   27   28 1  
    33   28   29 1  
    34   30   32 1  
    35   31   32 2  
    36    3   33 1  
    37    6   34 1  
    38    7   35 1  
    39    8   36 1  
    40    9   37 1  
    41   12   38 1  
    42   13   39 1  
    43   15   40 1  
    44   18   41 1  
    45   18   42 1  
    46   20   43 1  
    47   21   44 1  
    48   25   45 1  
    49   26   46 1  
@<TRIPOS>SUBSTRUCTURE
     1 H21         1

