### 
### Created by X-TOOL on Mon Sep 10 21:12:58 2018
### 

@<TRIPOS>MOLECULE
2vw1_ligand
   36    36     1     0     0
SMALL
GAST_HUCK


@<TRIPOS>ATOM
      1 C1         -2.6680   76.6760   25.8690 C.2       1 DAN         0.0809
      2 C2         -3.3480   76.2080   24.6490 C.2       1 DAN         0.1088
      3 C3         -3.1630   74.9980   24.0900 C.2       1 DAN        -0.0276
      4 C4         -3.9370   74.5240   22.8550 C.3       1 DAN         0.1003
      5 C5         -4.5840   75.6720   22.0670 C.3       1 DAN         0.1064
      6 C6         -5.2300   76.5990   23.1100 C.3       1 DAN         0.1321
      7 C7         -5.9240   77.7760   22.4460 C.3       1 DAN         0.1154
      8 C8         -6.6560   78.7280   23.3820 C.3       1 DAN         0.1068
      9 C9         -5.7540   79.6220   24.2410 C.3       1 DAN         0.0727
     10 C10        -5.8020   75.4990   19.8620 C.2       1 DAN         0.1734
     11 C11        -6.9000   74.7770   19.1420 C.3       1 DAN         0.0257
     12 N5         -5.6270   75.1730   21.1630 N.am      1 DAN        -0.2770
     13 O1A        -1.5250   76.3200   26.2450 O.co2     1 DAN        -0.5623
     14 O1B        -3.2970   77.4700   26.5940 O.co2     1 DAN        -0.5623
     15 O4         -3.2240   73.5030   22.1000 O.3       1 DAN        -0.3807
     16 O6         -4.2860   77.1370   24.0450 O.3       1 DAN        -0.3189
     17 O7         -4.9740   78.4940   21.6520 O.3       1 DAN        -0.3861
     18 O8         -7.4400   79.5680   22.5180 O.3       1 DAN        -0.3869
     19 O9         -5.4890   79.0790   25.5420 O.3       1 DAN        -0.3924
     20 O10        -5.1240   76.3000   19.2340 O.2       1 DAN        -0.3974
     21 H1         -2.4308   74.3257   24.5349 H         1 DAN         0.0480
     22 H2         -4.8002   73.9809   23.2672 H         1 DAN         0.0740
     23 H3         -3.8205   76.2123   21.4881 H         1 DAN         0.0632
     24 H4         -5.9762   76.0114   23.6648 H         1 DAN         0.0697
     25 H5         -6.6826   77.3568   21.7687 H         1 DAN         0.0650
     26 H6         -7.3081   78.1464   24.0502 H         1 DAN         0.0643
     27 H7         -6.2455   80.5984   24.3639 H         1 DAN         0.0584
     28 H8         -4.7960   79.7570   23.7175 H         1 DAN         0.0584
     29 H9         -6.9449   75.1243   18.0992 H         1 DAN         0.0467
     30 H10        -7.8602   74.9814   19.6382 H         1 DAN         0.0467
     31 H11        -6.7009   73.6953   19.1600 H         1 DAN         0.0467
     32 H12        -6.2789   74.5214   21.5509 H         1 DAN         0.1858
     33 H13        -3.8226   73.0837   21.4931 H         1 DAN         0.2127
     34 H14        -4.5250   77.8890   21.0733 H         1 DAN         0.2100
     35 H15        -6.8612   80.0760   21.9616 H         1 DAN         0.2100
     36 H16        -5.0559   78.2384   25.4509 H         1 DAN         0.2095
@<TRIPOS>BOND
     1    2    1 1  
     2    1   13 ar 
     3    1   14 ar 
     4    3    2 2  
     5   16    2 1  
     6    4    3 1  
     7    5    4 1  
     8    4   15 1  
     9    5    6 1  
    10   12    5 1  
    11    6    7 1  
    12    6   16 1  
    13    7    8 1  
    14    7   17 1  
    15    8    9 1  
    16    8   18 1  
    17    9   19 1  
    18   10   11 1  
    19   10   12 am 
    20   10   20 2  
    21    3   21 1  
    22    4   22 1  
    23    5   23 1  
    24    6   24 1  
    25    7   25 1  
    26    8   26 1  
    27    9   27 1  
    28    9   28 1  
    29   11   29 1  
    30   11   30 1  
    31   11   31 1  
    32   12   32 1  
    33   15   33 1  
    34   17   34 1  
    35   18   35 1  
    36   19   36 1  
@<TRIPOS>SUBSTRUCTURE
     1 DAN         1

