### 
### Created by X-TOOL on Mon Sep 10 21:12:58 2018
### 

@<TRIPOS>MOLECULE
2vw2_ligand
   30    30     1     0     0
SMALL
GAST_HUCK


@<TRIPOS>ATOM
      1 C3'        -7.8310   77.2760   20.2640 C.3       1 NHE        -0.0480
      2 C2'        -6.9230   77.0130   21.4710 C.3       1 NHE        -0.0097
      3 C1'        -5.6320   76.2430   21.1580 C.3       1 NHE        -0.0226
      4 C6'        -5.8500   74.9930   20.2930 C.3       1 NHE        -0.0097
      5 N          -4.8970   75.8610   22.3610 N.4       1 NHE         0.2302
      6 C1         -4.5790   76.7680   23.4500 C.3       1 NHE        -0.0166
      7 C2         -3.2820   76.3610   24.1420 C.3       1 NHE         0.0706
      8 S          -2.7870   77.4830   25.2760 S.o2      1 NHE        -0.1866
      9 O1         -3.8400   77.7170   26.2940 O.co2     1 NHE        -0.4844
     10 O2         -2.4810   78.7650   24.6090 O.co2     1 NHE        -0.4844
     11 O3         -1.5650   76.9580   25.9240 O.co2     1 NHE        -0.4844
     12 C5'        -7.0830   75.0150   19.3840 C.3       1 NHE        -0.0480
     13 C4'        -7.5240   76.4300   19.0280 C.3       1 NHE        -0.0527
     14 H1         -7.7305   78.3355   19.9858 H         1 NHE         0.0267
     15 H2         -8.8688   77.0732   20.5671 H         1 NHE         0.0267
     16 H3         -7.4961   76.4321   22.2087 H         1 NHE         0.0320
     17 H4         -6.6439   77.9841   21.9057 H         1 NHE         0.0320
     18 H5         -4.9914   76.9287   20.5840 H         1 NHE         0.0850
     19 H6         -5.9437   74.1288   20.9671 H         1 NHE         0.0320
     20 H7         -4.9631   74.8659   19.6548 H         1 NHE         0.0320
     21 H8         -4.0115   75.5050   22.0367 H         1 NHE         0.2017
     22 H9         -5.4280   75.1123   22.7775 H         1 NHE         0.2017
     23 H10        -5.3985   76.7501   24.1835 H         1 NHE         0.0829
     24 H11        -4.4680   77.7862   23.0489 H         1 NHE         0.0829
     25 H12        -2.4939   76.2556   23.3819 H         1 NHE         0.0521
     26 H13        -3.4378   75.3953   24.6451 H         1 NHE         0.0521
     27 H14        -7.9109   74.5077   19.9010 H         1 NHE         0.0267
     28 H15        -6.8455   74.4759   18.4550 H         1 NHE         0.0267
     29 H16        -6.7193   76.9173   18.4579 H         1 NHE         0.0265
     30 H17        -8.4299   76.3713   18.4068 H         1 NHE         0.0265
@<TRIPOS>BOND
     1    1    2 1  
     2    1   13 1  
     3    2    3 1  
     4    3    4 1  
     5    3    5 1  
     6    4   12 1  
     7    5    6 1  
     8    6    7 1  
     9    7    8 1  
    10    8    9 ar 
    11    8   10 ar 
    12    8   11 ar 
    13   12   13 1  
    14    1   14 1  
    15    1   15 1  
    16    2   16 1  
    17    2   17 1  
    18    3   18 1  
    19    4   19 1  
    20    4   20 1  
    21    5   21 1  
    22    5   22 1  
    23    6   23 1  
    24    6   24 1  
    25    7   25 1  
    26    7   26 1  
    27   12   27 1  
    28   12   28 1  
    29   13   29 1  
    30   13   30 1  
@<TRIPOS>SUBSTRUCTURE
     1 NHE         1

