### 
### Created by X-TOOL on Mon Sep 10 21:12:57 2018
### 

@<TRIPOS>MOLECULE
2vw5_ligand
   78    79     1     0     0
SMALL
GAST_HUCK


@<TRIPOS>ATOM
      1 O37        40.9960   -5.2790   41.7570 O.2       1 BC6        -0.3848
      2 C21        41.0020   -5.7550   40.6250 C.2       1 BC6         0.2138
      3 C20        41.4180   -7.1450   40.5150 C.2       1 BC6         0.0175
      4 C36        42.7470   -7.5080   41.1090 C.3       1 BC6        -0.0331
      5 C19        40.5640   -8.0530   39.9520 C.2       1 BC6        -0.0677
      6 C18        40.7860   -9.5190   39.7600 C.3       1 BC6        -0.0250
      7 C17        40.0280   -9.9160   38.4900 C.3       1 BC6        -0.0362
      8 C16        38.5180  -10.0610   38.6600 C.3       1 BC6        -0.0026
      9 C35        38.1500  -11.0510   39.7780 C.3       1 BC6        -0.0578
     10 N22        40.6430   -4.9780   39.5910 N.am      1 BC6        -0.2407
     11 C3         40.8770   -5.2320   38.2610 C.ar      1 BC6         0.0494
     12 C4         39.8760   -4.9220   37.3560 C.ar      1 BC6        -0.0212
     13 C5         40.0430   -5.1480   35.9880 C.ar      1 BC6         0.0678
     14 O36        38.9920   -4.8630   35.1630 O.3       1 BC6        -0.3387
     15 C6         41.2240   -5.7010   35.4980 C.ar      1 BC6        -0.0476
     16 C1         42.2460   -6.0330   36.4130 C.ar      1 BC6        -0.0648
     17 C2         42.0690   -5.7740   37.7770 C.ar      1 BC6        -0.0516
     18 C7         43.5440   -6.6740   35.9660 C.3       1 BC6        -0.0222
     19 C8         43.4590   -8.2170   35.8600 C.3       1 BC6        -0.0322
     20 C25        43.2910   -8.9200   37.2190 C.3       1 BC6        -0.0605
     21 C9         42.3660   -8.6630   34.8460 C.3       1 BC6        -0.0197
     22 C10        42.1310  -10.1630   34.7050 C.3       1 BC6         0.0859
     23 O26        43.3610  -10.8360   34.3610 O.3       1 BC6        -0.3771
     24 C27        43.3820  -12.2070   34.6920 C.3       1 BC6         0.0369
     25 C11        41.0990  -10.4920   33.6260 C.3       1 BC6         0.0868
     26 O28        41.6470   -9.9950   32.3850 O.3       1 BC6        -0.3877
     27 C12        39.7420   -9.8420   33.9210 C.3       1 BC6        -0.0094
     28 C29        38.7820  -10.2650   32.8140 C.3       1 BC6        -0.0567
     29 C13        39.1360  -10.3870   35.2100 C.2       1 BC6        -0.1009
     30 C14        38.3980   -9.7100   36.1370 C.2       1 BC6        -0.0506
     31 C30        38.0460   -8.2490   36.0160 C.3       1 BC6        -0.0376
     32 C15        37.8750  -10.4970   37.3180 C.3       1 BC6         0.1158
     33 O31        36.4860  -10.2250   37.4330 O.3       1 BC6        -0.2488
     34 C32        35.5900  -11.0430   36.6650 C.2       1 BC6         0.3192
     35 O33        36.0620  -11.8940   35.9290 O.2       1 BC6        -0.3776
     36 N34        34.3080  -10.7740   36.8570 N.am      1 BC6        -0.2762
     37 H1         42.9359   -8.5809   40.9567 H         1 BC6         0.0348
     38 H2         42.7400   -7.2863   42.1864 H         1 BC6         0.0348
     39 H3         43.5395   -6.9230   40.6194 H         1 BC6         0.0348
     40 H4         39.6097   -7.6620   39.6023 H         1 BC6         0.0638
     41 H5         40.3970  -10.0777   40.6240 H         1 BC6         0.0437
     42 H6         41.8595   -9.7276   39.6416 H         1 BC6         0.0437
     43 H7         40.4265  -10.8803   38.1419 H         1 BC6         0.0295
     44 H8         40.2132   -9.1457   37.7269 H         1 BC6         0.0295
     45 H9         38.1116   -9.0763   38.9342 H         1 BC6         0.0350
     46 H10        37.0553  -11.1202   39.8608 H         1 BC6         0.0235
     47 H11        38.5682  -10.6984   40.7323 H         1 BC6         0.0235
     48 H12        38.5631  -12.0424   39.5405 H         1 BC6         0.0235
     49 H13        40.1578   -4.1315   39.8100 H         1 BC6         0.2240
     50 H14        38.9462   -4.4963   37.7157 H         1 BC6         0.0366
     51 H15        39.2332   -5.0594   34.2654 H         1 BC6         0.2475
     52 H16        41.3553   -5.8728   34.4358 H         1 BC6         0.0358
     53 H17        42.8718   -5.9983   38.4700 H         1 BC6         0.0351
     54 H18        44.3291   -6.4164   36.6921 H         1 BC6         0.0424
     55 H19        43.8112   -6.2702   34.9783 H         1 BC6         0.0424
     56 H20        44.4244   -8.5534   35.4541 H         1 BC6         0.0321
     57 H21        43.2384  -10.0079   37.0650 H         1 BC6         0.0234
     58 H22        42.3646   -8.5725   37.6996 H         1 BC6         0.0234
     59 H23        44.1500   -8.6821   37.8636 H         1 BC6         0.0234
     60 H24        42.6520   -8.2764   33.8567 H         1 BC6         0.0295
     61 H25        41.4157   -8.2051   35.1579 H         1 BC6         0.0295
     62 H26        41.7678  -10.5466   35.6699 H         1 BC6         0.0623
     63 H27        44.3492  -12.6404   34.3978 H         1 BC6         0.0524
     64 H28        42.5709  -12.7252   34.1596 H         1 BC6         0.0524
     65 H29        43.2424  -12.3245   35.7767 H         1 BC6         0.0524
     66 H30        40.9625  -11.5817   33.5643 H         1 BC6         0.0637
     67 H31        42.4754  -10.4261   32.2108 H         1 BC6         0.2101
     68 H32        39.8447   -8.7479   33.9706 H         1 BC6         0.0398
     69 H33        37.7943   -9.8154   32.9937 H         1 BC6         0.0247
     70 H34        38.6902  -11.3611   32.8073 H         1 BC6         0.0247
     71 H35        39.1691   -9.9235   31.8426 H         1 BC6         0.0247
     72 H36        39.3133  -11.4417   35.4151 H         1 BC6         0.0246
     73 H37        38.5055   -7.8353   35.1062 H         1 BC6         0.0376
     74 H38        38.4226   -7.7070   36.8960 H         1 BC6         0.0376
     75 H39        36.9531   -8.1387   35.9575 H         1 BC6         0.0376
     76 H40        38.0510  -11.5701   37.1522 H         1 BC6         0.0799
     77 H41        33.6091  -11.2929   36.3648 H         1 BC6         0.1831
     78 H42        34.0386  -10.0519   37.4942 H         1 BC6         0.1831
@<TRIPOS>BOND
     1    1    2 2  
     2    2    3 1  
     3    2   10 am 
     4    3    4 1  
     5    3    5 2  
     6    5    6 1  
     7    6    7 1  
     8    7    8 1  
     9    8    9 1  
    10    8   32 1  
    11   10   11 1  
    12   11   12 ar 
    13   11   17 ar 
    14   12   13 ar 
    15   13   14 1  
    16   13   15 ar 
    17   15   16 ar 
    18   16   17 ar 
    19   16   18 1  
    20   18   19 1  
    21   19   20 1  
    22   19   21 1  
    23   21   22 1  
    24   22   23 1  
    25   22   25 1  
    26   23   24 1  
    27   25   26 1  
    28   25   27 1  
    29   27   28 1  
    30   27   29 1  
    31   29   30 2  
    32   30   31 1  
    33   30   32 1  
    34   32   33 1  
    35   33   34 1  
    36   34   35 2  
    37   34   36 am 
    38    4   37 1  
    39    4   38 1  
    40    4   39 1  
    41    5   40 1  
    42    6   41 1  
    43    6   42 1  
    44    7   43 1  
    45    7   44 1  
    46    8   45 1  
    47    9   46 1  
    48    9   47 1  
    49    9   48 1  
    50   10   49 1  
    51   12   50 1  
    52   14   51 1  
    53   15   52 1  
    54   17   53 1  
    55   18   54 1  
    56   18   55 1  
    57   19   56 1  
    58   20   57 1  
    59   20   58 1  
    60   20   59 1  
    61   21   60 1  
    62   21   61 1  
    63   22   62 1  
    64   24   63 1  
    65   24   64 1  
    66   24   65 1  
    67   25   66 1  
    68   26   67 1  
    69   27   68 1  
    70   28   69 1  
    71   28   70 1  
    72   28   71 1  
    73   29   72 1  
    74   31   73 1  
    75   31   74 1  
    76   31   75 1  
    77   32   76 1  
    78   36   77 1  
    79   36   78 1  
@<TRIPOS>SUBSTRUCTURE
     1 BC6         1

