### 
### Created by X-TOOL on Mon Sep 10 21:12:58 2018
### 

@<TRIPOS>MOLECULE
2vwc_ligand
   82    83     1     0     0
SMALL
GAST_HUCK


@<TRIPOS>ATOM
      1 O23       -26.4460   34.5140   -3.4630 O.2       1 BC2        -0.3350
      2 C2        -25.8930   33.6480   -4.1770 C.2       1 BC2         0.2194
      3 C3        -25.3910   32.3660   -3.5240 C.2       1 BC2         0.1438
      4 C4        -24.8060   31.4320   -4.2890 C.2       1 BC2         0.0020
      5 C5        -24.6140   31.6580   -5.7960 C.2       1 BC2         0.1052
      6 O24       -24.0520   30.7790   -6.5010 O.2       1 BC2        -0.3994
      7 C6        -25.1020   32.9530   -6.4350 C.2       1 BC2        -0.0038
      8 N22       -25.5610   32.1590   -2.1900 N.am      1 BC2        -0.2155
      9 C21       -25.0550   32.9260   -1.1950 C.2       1 BC2         0.2314
     10 O37       -25.2220   32.5990   -0.0230 O.2       1 BC2        -0.3755
     11 C20       -24.3100   34.1790   -1.4180 C.2       1 BC2         0.0244
     12 C36       -24.8420   35.4350   -0.7710 C.3       1 BC2        -0.0273
     13 C19       -23.1680   34.1910   -2.1360 C.2       1 BC2        -0.0657
     14 C18       -22.3940   35.4120   -2.4070 C.2       1 BC2        -0.0751
     15 C17       -21.0990   35.4660   -2.7310 C.2       1 BC2        -0.0682
     16 C16       -20.3170   34.1840   -2.7450 C.3       1 BC2         0.0266
     17 C35       -19.2660   34.1480   -1.6300 C.3       1 BC2        -0.0462
     18 C1        -25.6990   33.8940   -5.6720 C.2       1 BC2         0.0663
     19 C7        -26.1810   35.1780   -6.2560 C.3       1 BC2         0.1093
     20 O38       -26.5670   34.9870   -7.6270 O.3       1 BC2        -0.3635
     21 C39       -27.9240   34.5370   -7.7490 C.3       1 BC2         0.0401
     22 C8        -25.1260   36.2950   -6.2000 C.3       1 BC2        -0.0022
     23 C25       -24.5550   36.6200   -4.8160 C.3       1 BC2        -0.0577
     24 C9        -24.0760   36.1920   -7.3110 C.3       1 BC2        -0.0168
     25 C10       -22.6890   36.7020   -6.9670 C.3       1 BC2         0.0862
     26 O26       -22.8600   38.1010   -7.2780 O.3       1 BC2        -0.3771
     27 C27       -21.8710   39.0060   -6.7710 C.3       1 BC2         0.0369
     28 C11       -21.6100   36.3260   -7.9610 C.3       1 BC2         0.0899
     29 O28       -22.2180   36.1120   -9.2320 O.3       1 BC2        -0.3757
     30 C40       -21.7340   37.0370  -10.2280 C.3       1 BC2         0.0371
     31 C12       -20.9250   34.9900   -7.5790 C.3       1 BC2        -0.0091
     32 C29       -19.8700   34.5870   -8.6070 C.3       1 BC2        -0.0567
     33 C13       -20.2230   34.9200   -6.2300 C.2       1 BC2        -0.1007
     34 C14       -20.4220   33.8670   -5.4070 C.2       1 BC2        -0.0480
     35 C30       -21.3380   32.7340   -5.7820 C.3       1 BC2        -0.0374
     36 C15       -19.7430   33.6930   -4.0860 C.3       1 BC2         0.1267
     37 O31       -18.7630   32.6480   -3.9900 O.3       1 BC2        -0.2460
     38 C32       -17.5420   32.6660   -4.7780 C.2       1 BC2         0.3194
     39 O33       -16.8250   31.6780   -4.6510 O.2       1 BC2        -0.3776
     40 N34       -17.2090   33.6770   -5.5730 N.am      1 BC2        -0.2762
     41 H1        -24.4633   30.5028   -3.8362 H         1 BC2         0.0327
     42 H2        -24.9697   33.1189   -7.5031 H         1 BC2         0.0571
     43 H3        -26.1098   31.3681   -1.9194 H         1 BC2         0.2389
     44 H4        -24.1883   36.2828   -1.0238 H         1 BC2         0.0384
     45 H5        -24.8659   35.3032    0.3208 H         1 BC2         0.0384
     46 H6        -25.8594   35.6342   -1.1387 H         1 BC2         0.0384
     47 H7        -22.7999   33.2473   -2.5359 H         1 BC2         0.0539
     48 H8        -22.9258   36.3598   -2.3371 H         1 BC2         0.0435
     49 H9        -20.6234   36.4139   -2.9782 H         1 BC2         0.0718
     50 H10       -21.0566   33.4164   -2.4735 H         1 BC2         0.0548
     51 H11       -19.7148   34.5053   -0.6914 H         1 BC2         0.0264
     52 H12       -18.4203   34.7966   -1.9022 H         1 BC2         0.0264
     53 H13       -18.9087   33.1163   -1.4960 H         1 BC2         0.0264
     54 H14       -27.0603   35.5035   -5.6808 H         1 BC2         0.0809
     55 H15       -28.1725   34.4055   -8.8125 H         1 BC2         0.0526
     56 H16       -28.5991   35.2830   -7.3043 H         1 BC2         0.0526
     57 H17       -28.0408   33.5775   -7.2239 H         1 BC2         0.0526
     58 H18       -25.6954   37.2001   -6.4579 H         1 BC2         0.0352
     59 H19       -23.8155   37.4295   -4.9053 H         1 BC2         0.0235
     60 H20       -24.0700   35.7247   -4.3999 H         1 BC2         0.0235
     61 H21       -25.3694   36.9393   -4.1491 H         1 BC2         0.0235
     62 H22       -24.4417   36.7682   -8.1737 H         1 BC2         0.0296
     63 H23       -23.9847   35.1319   -7.5902 H         1 BC2         0.0296
     64 H24       -22.4010   36.4762   -5.9297 H         1 BC2         0.0623
     65 H25       -22.1206   40.0320   -7.0791 H         1 BC2         0.0524
     66 H26       -20.8839   38.7327   -7.1721 H         1 BC2         0.0524
     67 H27       -21.8495   38.9480   -5.6728 H         1 BC2         0.0524
     68 H28       -20.8628   37.1313   -8.0178 H         1 BC2         0.0639
     69 H29       -22.2299   36.8339  -11.1887 H         1 BC2         0.0524
     70 H30       -20.6469   36.9156  -10.3437 H         1 BC2         0.0524
     71 H31       -21.9563   38.0666   -9.9111 H         1 BC2         0.0524
     72 H32       -21.7189   34.2287   -7.5751 H         1 BC2         0.0398
     73 H33       -19.4064   33.6368   -8.3034 H         1 BC2         0.0247
     74 H34       -19.0985   35.3688   -8.6664 H         1 BC2         0.0247
     75 H35       -20.3451   34.4651   -9.5916 H         1 BC2         0.0247
     76 H36       -19.5553   35.7248   -5.9260 H         1 BC2         0.0246
     77 H37       -21.7942   32.9402   -6.7615 H         1 BC2         0.0376
     78 H38       -22.1281   32.6347   -5.0231 H         1 BC2         0.0376
     79 H39       -20.7615   31.7987   -5.8357 H         1 BC2         0.0376
     80 H40       -19.0406   34.5291   -4.2183 H         1 BC2         0.0829
     81 H41       -16.3571   33.6425   -6.0956 H         1 BC2         0.1831
     82 H42       -17.8102   34.4725   -5.6488 H         1 BC2         0.1831
@<TRIPOS>BOND
     1    1    2 2  
     2    2    3 1  
     3    2   18 1  
     4    3    4 2  
     5    3    8 1  
     6    4    5 1  
     7    5    6 2  
     8    5    7 1  
     9    7   18 2  
    10    8    9 am 
    11    9   10 2  
    12    9   11 1  
    13   11   12 1  
    14   11   13 2  
    15   13   14 1  
    16   14   15 2  
    17   15   16 1  
    18   16   17 1  
    19   16   36 1  
    20   18   19 1  
    21   19   20 1  
    22   19   22 1  
    23   20   21 1  
    24   22   23 1  
    25   22   24 1  
    26   24   25 1  
    27   25   26 1  
    28   25   28 1  
    29   26   27 1  
    30   28   29 1  
    31   28   31 1  
    32   29   30 1  
    33   31   32 1  
    34   31   33 1  
    35   33   34 2  
    36   34   35 1  
    37   34   36 1  
    38   36   37 1  
    39   37   38 1  
    40   38   39 2  
    41   38   40 am 
    42    4   41 1  
    43    7   42 1  
    44    8   43 1  
    45   12   44 1  
    46   12   45 1  
    47   12   46 1  
    48   13   47 1  
    49   14   48 1  
    50   15   49 1  
    51   16   50 1  
    52   17   51 1  
    53   17   52 1  
    54   17   53 1  
    55   19   54 1  
    56   21   55 1  
    57   21   56 1  
    58   21   57 1  
    59   22   58 1  
    60   23   59 1  
    61   23   60 1  
    62   23   61 1  
    63   24   62 1  
    64   24   63 1  
    65   25   64 1  
    66   27   65 1  
    67   27   66 1  
    68   27   67 1  
    69   28   68 1  
    70   30   69 1  
    71   30   70 1  
    72   30   71 1  
    73   31   72 1  
    74   32   73 1  
    75   32   74 1  
    76   32   75 1  
    77   33   76 1  
    78   35   77 1  
    79   35   78 1  
    80   35   79 1  
    81   36   80 1  
    82   40   81 1  
    83   40   82 1  
@<TRIPOS>SUBSTRUCTURE
     1 BC2         1

