### 
### Created by X-TOOL on Mon Sep 10 21:13:00 2018
### 

@<TRIPOS>MOLECULE
2vwl_ligand
   57    60     1     0     0
SMALL
GAST_HUCK


@<TRIPOS>ATOM
      1 F32         9.3090   62.4460    1.4180 F         1 LZH        -0.1956
      2 C17         8.4890   62.0100    2.3850 C.ar      1 LZH         0.1466
      3 C11         8.1140   60.6540    2.3970 C.ar      1 LZH        -0.0056
      4 C9          7.2860   60.1820    3.4080 C.ar      1 LZH         0.0960
      5 N1          6.8950   58.8150    3.3900 N.am      1 LZH        -0.1717
      6 C21         7.4050   57.9150    4.3220 C.2       1 LZH         0.0799
      7 C29         6.9470   56.6320    4.2620 C.2       1 LZH        -0.0402
      8 C30         5.8900   56.2100    3.4090 C.2       1 LZH        -0.0778
      9 C23         5.3310   57.1390    2.5710 C.2       1 LZH        -0.0111
     10 C8          5.7930   58.4780    2.6040 C.2       1 LZH         0.2151
     11 O25         5.3170   59.3200    1.8040 O.2       1 LZH        -0.4155
     12 C26         6.8530   61.0690    4.3830 C.ar      1 LZH        -0.0431
     13 C28         7.2380   62.4120    4.3660 C.ar      1 LZH        -0.0478
     14 C16         8.0590   62.9000    3.3580 C.ar      1 LZH         0.0922
     15 N15         8.4370   64.2320    3.3170 N.am      1 LZH        -0.2336
     16 C14         7.9930   64.9480    2.2560 C.2       1 LZH         0.2463
     17 C13        11.5130   67.4080    3.6410 C.3       1 LZH         0.0859
     18 O27         7.3690   64.4240    1.3470 O.2       1 LZH        -0.3804
     19 C24        10.5140   68.3640    4.3180 C.3       1 LZH         0.0204
     20 C22         8.2610   66.4340    2.1430 C.3       1 LZH         0.0637
     21 N4          9.2650   66.8100    3.1410 N.4       1 LZH         0.2578
     22 C20        10.6690   66.4090    2.8620 C.3       1 LZH        -0.0061
     23 O33         8.1060   68.9770    1.5050 O.3       1 LZH        -0.3895
     24 C34         9.2970   69.1600    2.2950 C.3       1 LZH         0.0870
     25 N7         12.2000   66.7290    4.7560 N.am      1 LZH        -0.2794
     26 C5         13.2590   65.9620    4.5230 C.2       1 LZH         0.2079
     27 O24        13.6270   65.7850    3.3730 O.2       1 LZH        -0.3910
     28 C2         14.0050   65.2960    5.6530 C.2       1 LZH         0.0995
     29 C12        14.0260   65.5450    7.0320 C.2       1 LZH        -0.0542
     30 C19        14.8730   64.6860    7.7480 C.2       1 LZH        -0.0524
     31 S3         15.0600   64.0330    5.0990 S.3       1 LZH        -0.0137
     32 C10        15.4700   63.8930    6.7840 C.2       1 LZH         0.1023
     33 CL1        16.6630   62.6010    7.2050 Cl        1 LZH        -0.0499
     34 C15         9.2360   68.2250    3.5100 C.3       1 LZH         0.0070
     35 H1          8.4684   59.9825    1.6233 H         1 LZH         0.0513
     36 H2          8.1379   58.2224    5.0666 H         1 LZH         0.1228
     37 H3          7.4172   55.8883    4.9036 H         1 LZH         0.0371
     38 H4          5.5358   55.1803    3.4215 H         1 LZH         0.0636
     39 H5          4.5369   56.8500    1.8842 H         1 LZH         0.0399
     40 H6          6.2029   60.7129    5.1739 H         1 LZH         0.0496
     41 H7          6.8925   63.0794    5.1472 H         1 LZH         0.0473
     42 H8          9.0055   64.6420    4.0303 H         1 LZH         0.2223
     43 H9         12.2229   67.9337    2.9856 H         1 LZH         0.0610
     44 H10        10.8838   69.3994    4.2830 H         1 LZH         0.0345
     45 H11        10.3447   68.0702    5.3644 H         1 LZH         0.0345
     46 H12         7.3310   66.9923    2.3258 H         1 LZH         0.1067
     47 H13         8.6363   66.6664    1.1355 H         1 LZH         0.1067
     48 H14         9.0001   66.3013    3.9699 H         1 LZH         0.2057
     49 H15        10.8575   65.3837    3.2130 H         1 LZH         0.0838
     50 H16        10.8851   66.4736    1.7854 H         1 LZH         0.0838
     51 H17         8.1364   69.5531    0.7501 H         1 LZH         0.2097
     52 H18         9.3575   70.2042    2.6354 H         1 LZH         0.0614
     53 H19        10.1828   68.9201    1.6886 H         1 LZH         0.0614
     54 H20        11.8669   66.8467    5.6915 H         1 LZH         0.1842
     55 H21        13.4395   66.3320    7.5038 H         1 LZH         0.0517
     56 H22        15.0268   64.6510    8.8255 H         1 LZH         0.0447
     57 H23         8.3450   68.4587    4.1112 H         1 LZH         0.0875
@<TRIPOS>BOND
     1    2    1 1  
     2    2    3 ar 
     3   14    2 ar 
     4    3    4 ar 
     5    4    5 1  
     6   12    4 ar 
     7    5    6 1  
     8    5   10 am 
     9    6    7 2  
    10    7    8 1  
    11    9    8 2  
    12   10    9 1  
    13   10   11 2  
    14   13   12 ar 
    15   14   13 ar 
    16   15   14 1  
    17   16   15 am 
    18   16   18 2  
    19   20   16 1  
    20   19   17 1  
    21   22   17 1  
    22   17   25 1  
    23   34   19 1  
    24   21   20 1  
    25   21   22 1  
    26   34   21 1  
    27   24   23 1  
    28   24   34 1  
    29   25   26 am 
    30   26   27 2  
    31   26   28 1  
    32   28   29 2  
    33   28   31 1  
    34   29   30 1  
    35   30   32 2  
    36   31   32 1  
    37   32   33 1  
    38    3   35 1  
    39    6   36 1  
    40    7   37 1  
    41    8   38 1  
    42    9   39 1  
    43   12   40 1  
    44   13   41 1  
    45   15   42 1  
    46   17   43 1  
    47   19   44 1  
    48   19   45 1  
    49   20   46 1  
    50   20   47 1  
    51   21   48 1  
    52   22   49 1  
    53   22   50 1  
    54   23   51 1  
    55   24   52 1  
    56   24   53 1  
    57   25   54 1  
    58   29   55 1  
    59   30   56 1  
    60   34   57 1  
@<TRIPOS>SUBSTRUCTURE
     1 LZH         1

