### 
### Created by X-TOOL on Mon Sep 10 21:13:01 2018
### 

@<TRIPOS>MOLECULE
2vwm_ligand
   65    69     1     0     0
SMALL
GAST_HUCK


@<TRIPOS>ATOM
      1 O30        17.6140   10.9800   30.6350 O.2       1 LZI        -0.4155
      2 C7         17.5410   10.5570   31.8190 C.2       1 LZI         0.2151
      3 C28        17.8390   11.3320   32.9910 C.2       1 LZI        -0.0111
      4 C36        17.7470   10.7890   34.2380 C.2       1 LZI        -0.0778
      5 C35        17.3270    9.4340   34.4020 C.2       1 LZI        -0.0402
      6 C24        17.0580    8.6690   33.3140 C.2       1 LZI         0.0799
      7 N2         17.1380    9.2020   32.0090 N.am      1 LZI        -0.1717
      8 C8         16.8490    8.3830   30.8440 C.ar      1 LZI         0.0960
      9 C11        17.8510    7.5080   30.4430 C.ar      1 LZI        -0.0056
     10 C19        17.6130    6.7460   29.3240 C.ar      1 LZI         0.1465
     11 F39        18.5840    5.8730   28.9330 F         1 LZI        -0.1956
     12 C31        15.6450    8.5050   30.1560 C.ar      1 LZI        -0.0431
     13 C34        15.4090    7.7010   29.0310 C.ar      1 LZI        -0.0478
     14 C18        16.4130    6.8230   28.6200 C.ar      1 LZI         0.0921
     15 N15        16.1980    6.0120   27.4540 N.am      1 LZI        -0.2354
     16 C12        15.6940    6.6550   26.2910 C.2       1 LZI         0.2362
     17 O33        15.5460    7.8820   26.3200 O.2       1 LZI        -0.3828
     18 C16        15.3470    5.8960   25.0490 C.3       1 LZI         0.1742
     19 N1         15.1000    4.4530   25.2310 N.2       1 LZI        -0.2095
     20 C5         15.5340    3.4960   24.1870 C.3       1 LZI         0.1895
     21 C10        15.0200    3.9400   22.8610 C.2       1 LZI         0.2155
     22 N23        15.8250    3.7220   21.7650 N.am      1 LZI        -0.2838
     23 O32        13.9190    4.5020   22.7680 O.2       1 LZI        -0.3932
     24 C21        14.0630    4.0360   25.9140 C.2       1 LZI         0.1869
     25 C17        13.6530    2.6620   25.4530 C.3       1 LZI         0.1803
     26 C20        14.7670    2.2680   24.5410 C.3       1 LZI         0.0684
     27 N13        13.5740    1.7100   26.5520 N.am      1 LZI        -0.2329
     28 C6         12.5700    1.8850   27.4530 C.2       1 LZI         0.2166
     29 O29        11.7900    2.8330   27.3020 O.2       1 LZI        -0.3902
     30 C3         12.4820    0.9510   28.5340 C.2       1 LZI         0.1003
     31 C14        13.2730   -0.1310   28.7780 C.2       1 LZI        -0.0542
     32 C22        12.8670   -0.8090   29.9400 C.2       1 LZI        -0.0524
     33 C9         11.8110   -0.1490   30.5140 C.2       1 LZI         0.1023
     34 S4         11.2280    1.2200   29.6860 S.3       1 LZI        -0.0136
     35 CL3        11.0350   -0.5070   32.0180 Cl        1 LZI        -0.0499
     36 C37        15.4560    4.0160   20.4000 C.3       1 LZI         0.0338
     37 C25        16.6630    3.9330   19.4580 C.3       1 LZI        -0.0208
     38 C27        16.5000    3.1960   18.1580 C.3       1 LZI        -0.0481
     39 C26        17.3350    2.6030   19.2560 C.3       1 LZI        -0.0481
     40 H1         18.1438   12.3717   32.8815 H         1 LZI         0.0399
     41 H2         17.9945   11.3902   35.1116 H         1 LZI         0.0636
     42 H3         17.2225    9.0142   35.4014 H         1 LZI         0.0371
     43 H4         16.7756    7.6261   33.4497 H         1 LZI         0.1228
     44 H5         18.7832    7.4294   30.9907 H         1 LZI         0.0513
     45 H6         14.8960    9.2154   30.4869 H         1 LZI         0.0496
     46 H7         14.4694    7.7602   28.4938 H         1 LZI         0.0473
     47 H8         16.3955    5.0317   27.4603 H         1 LZI         0.2222
     48 H9         16.1797    6.0097   24.3393 H         1 LZI         0.0918
     49 H10        14.4375    6.3436   24.6220 H         1 LZI         0.0918
     50 H11        16.6233    3.3435   24.1762 H         1 LZI         0.0958
     51 H12        16.7314    3.3315   21.9261 H         1 LZI         0.1852
     52 H13        13.5682    4.6017   26.7021 H         1 LZI         0.2282
     53 H14        12.6897    2.6969   24.9230 H         1 LZI         0.1340
     54 H15        15.4275    1.5495   25.0485 H         1 LZI         0.0458
     55 H16        14.3573    1.8088   23.6293 H         1 LZI         0.0458
     56 H17        14.2295    0.9600   26.6406 H         1 LZI         0.1971
     57 H18        14.1123   -0.4319   28.1527 H         1 LZI         0.0517
     58 H19        13.3219   -1.7201   30.3259 H         1 LZI         0.0447
     59 H20        15.0371    5.0321   20.3545 H         1 LZI         0.0522
     60 H21        14.6966    3.2912   20.0716 H         1 LZI         0.0522
     61 H22        17.2554    4.8583   19.5117 H         1 LZI         0.0320
     62 H23        16.9819    3.5773   17.2456 H         1 LZI         0.0269
     63 H24        15.5307    2.7447   17.8996 H         1 LZI         0.0269
     64 H25        16.9772    1.7175   19.8018 H         1 LZI         0.0269
     65 H26        18.4284    2.5501   19.1479 H         1 LZI         0.0269
@<TRIPOS>BOND
     1    1    2 2  
     2    2    3 1  
     3    2    7 am 
     4    3    4 2  
     5    4    5 1  
     6    5    6 2  
     7    6    7 1  
     8    7    8 1  
     9    8    9 ar 
    10    8   12 ar 
    11    9   10 ar 
    12   10   11 1  
    13   10   14 ar 
    14   12   13 ar 
    15   13   14 ar 
    16   14   15 1  
    17   15   16 am 
    18   16   17 2  
    19   16   18 1  
    20   18   19 1  
    21   19   20 1  
    22   19   24 2  
    23   20   21 1  
    24   20   26 1  
    25   21   22 am 
    26   21   23 2  
    27   22   36 1  
    28   24   25 1  
    29   25   26 1  
    30   25   27 1  
    31   27   28 am 
    32   28   29 2  
    33   28   30 1  
    34   30   31 2  
    35   30   34 1  
    36   31   32 1  
    37   32   33 2  
    38   33   34 1  
    39   33   35 1  
    40   36   37 1  
    41   37   38 1  
    42   37   39 1  
    43   38   39 1  
    44    3   40 1  
    45    4   41 1  
    46    5   42 1  
    47    6   43 1  
    48    9   44 1  
    49   12   45 1  
    50   13   46 1  
    51   15   47 1  
    52   18   48 1  
    53   18   49 1  
    54   20   50 1  
    55   22   51 1  
    56   24   52 1  
    57   25   53 1  
    58   26   54 1  
    59   26   55 1  
    60   27   56 1  
    61   31   57 1  
    62   32   58 1  
    63   36   59 1  
    64   36   60 1  
    65   37   61 1  
    66   38   62 1  
    67   38   63 1  
    68   39   64 1  
    69   39   65 1  
@<TRIPOS>SUBSTRUCTURE
     1 LZI         1

