### 
### Created by X-TOOL on Mon Sep 10 21:13:00 2018
### 

@<TRIPOS>MOLECULE
2vwn_ligand
   54    57     1     0     0
SMALL
GAST_HUCK


@<TRIPOS>ATOM
      1 F3          9.4660   62.1560    1.5430 F         1 H25        -0.1956
      2 C17         8.6290   61.6830    2.4620 C.ar      1 H25         0.1466
      3 C11         8.2220   60.3560    2.4230 C.ar      1 H25        -0.0056
      4 C9          7.3740   59.8270    3.4000 C.ar      1 H25         0.0960
      5 N1          6.9120   58.5070    3.3490 N.am      1 H25        -0.1717
      6 C21         7.3800   57.5420    4.1750 C.2       1 H25         0.0799
      7 C29         6.8990   56.2550    4.1180 C.2       1 H25        -0.0402
      8 C30         5.9120   55.9170    3.2050 C.2       1 H25        -0.0778
      9 C23         5.4410   56.9150    2.3610 C.2       1 H25        -0.0111
     10 C8          5.9610   58.2020    2.4360 C.2       1 H25         0.2151
     11 O25         5.5270   59.1220    1.6690 O.2       1 H25        -0.4155
     12 C26         6.9280   60.6930    4.4080 C.ar      1 H25        -0.0431
     13 C28         7.3580   62.0290    4.4310 C.ar      1 H25        -0.0478
     14 C16         8.2040   62.5390    3.4440 C.ar      1 H25         0.0922
     15 N15         8.6040   63.8850    3.3950 N.am      1 H25        -0.2336
     16 C14         8.1860   64.6220    2.3220 C.2       1 H25         0.2463
     17 O27         7.4990   64.1370    1.4050 O.2       1 H25        -0.3804
     18 C22         8.5450   66.0840    2.2280 C.3       1 H25         0.0635
     19 N4          9.4900   66.4220    3.2860 N.4       1 H25         0.2559
     20 C31         9.5780   67.8770    3.5580 C.3       1 H25        -0.0009
     21 C34        10.9370   67.9870    4.2490 C.3       1 H25         0.1224
     22 O33        11.5860   69.2280    3.9320 O.3       1 H25        -0.3840
     23 C20        10.8250   65.9640    2.8950 C.3       1 H25        -0.0039
     24 C6         11.7810   66.8700    3.6420 C.3       1 H25         0.1114
     25 N7         12.4900   66.1690    4.7270 N.am      1 H25        -0.2768
     26 C5         13.4720   65.3160    4.4510 C.2       1 H25         0.2080
     27 O24        13.8010   65.0360    3.2910 O.2       1 H25        -0.3910
     28 C2         14.2070   64.6850    5.5920 C.2       1 H25         0.0995
     29 C12        14.1630   64.9640    6.9750 C.2       1 H25        -0.0542
     30 C19        15.0340   64.1240    7.6740 C.2       1 H25        -0.0524
     31 S3         15.3070   63.4280    5.1330 S.3       1 H25        -0.0137
     32 C10        15.6940   63.2960    6.8000 C.2       1 H25         0.1023
     33 CL1        16.9010   62.0400    7.2640 Cl        1 H25        -0.0499
     34 H1          8.5689   59.7175    1.6186 H         1 H25         0.0513
     35 H2          8.1538   57.7902    4.9000 H         1 H25         0.1228
     36 H3          7.2952   55.4979    4.7931 H         1 H25         0.0371
     37 H4          5.5189   54.9028    3.1512 H         1 H25         0.0636
     38 H5          4.6602   56.6878    1.6367 H         1 H25         0.0399
     39 H6          6.2495   60.3301    5.1715 H         1 H25         0.0496
     40 H7          7.0261   62.6790    5.2325 H         1 H25         0.0473
     41 H8          9.1704   64.2869    4.1145 H         1 H25         0.2223
     42 H9          7.6357   66.6927    2.3405 H         1 H25         0.1067
     43 H10         9.0032   66.2867    1.2488 H         1 H25         0.1067
     44 H11         9.2046   65.9518    4.1307 H         1 H25         0.2055
     45 H12         8.7648   68.2103    4.2195 H         1 H25         0.0841
     46 H13         9.5548   68.4604    2.6258 H         1 H25         0.0841
     47 H14        10.8336   67.8741    5.3383 H         1 H25         0.0672
     48 H15        11.0414   69.9513    4.2193 H         1 H25         0.2101
     49 H16        10.9659   66.0640    1.8087 H         1 H25         0.0838
     50 H17        10.9761   64.9149    3.1893 H         1 H25         0.0838
     51 H18        12.5182   67.2866    2.9399 H         1 H25         0.0636
     52 H19        12.2306   66.3361    5.6782 H         1 H25         0.1843
     53 H20        13.5370   65.7280    7.4337 H         1 H25         0.0517
     54 H21        15.1695   64.1259    8.7545 H         1 H25         0.0447
@<TRIPOS>BOND
     1    1    2 1  
     2    2    3 ar 
     3    2   14 ar 
     4    3    4 ar 
     5    4    5 1  
     6    4   12 ar 
     7    5    6 1  
     8    5   10 am 
     9    6    7 2  
    10    7    8 1  
    11    8    9 2  
    12    9   10 1  
    13   10   11 2  
    14   12   13 ar 
    15   13   14 ar 
    16   14   15 1  
    17   15   16 am 
    18   16   17 2  
    19   16   18 1  
    20   18   19 1  
    21   19   20 1  
    22   19   23 1  
    23   20   21 1  
    24   21   22 1  
    25   21   24 1  
    26   23   24 1  
    27   24   25 1  
    28   25   26 am 
    29   26   27 2  
    30   26   28 1  
    31   28   29 2  
    32   28   31 1  
    33   29   30 1  
    34   30   32 2  
    35   31   32 1  
    36   32   33 1  
    37    3   34 1  
    38    6   35 1  
    39    7   36 1  
    40    8   37 1  
    41    9   38 1  
    42   12   39 1  
    43   13   40 1  
    44   15   41 1  
    45   18   42 1  
    46   18   43 1  
    47   19   44 1  
    48   20   45 1  
    49   20   46 1  
    50   21   47 1  
    51   22   48 1  
    52   23   49 1  
    53   23   50 1  
    54   24   51 1  
    55   25   52 1  
    56   29   53 1  
    57   30   54 1  
@<TRIPOS>SUBSTRUCTURE
     1 H25         1

