### 
### Created by X-TOOL on Mon Sep 10 21:13:00 2018
### 

@<TRIPOS>MOLECULE
2vwo_ligand
   53    56     1     0     0
SMALL
GAST_HUCK


@<TRIPOS>ATOM
      1 CL1        16.6220   62.1530    7.3300 Cl        1 LZG        -0.0499
      2 C10        15.4580   63.3660    6.8870 C.2       1 LZG         0.1023
      3 C19        14.7860   64.2490    7.7050 C.2       1 LZG        -0.0524
      4 C13        13.8940   65.0820    6.9710 C.2       1 LZG        -0.0542
      5 S3         15.0160   63.5140    5.2220 S.3       1 LZG        -0.0137
      6 C2         13.9170   64.7850    5.6120 C.2       1 LZG         0.0995
      7 C5         13.1840   65.4110    4.5230 C.2       1 LZG         0.2080
      8 O24        13.4290   65.1770    3.3260 O.2       1 LZG        -0.3910
      9 N7         12.1210   66.2290    4.8150 N.am      1 LZG        -0.2765
     10 C6         11.3900   66.8730    3.7070 C.3       1 LZG         0.1165
     11 C12        10.5040   67.9740    4.2880 C.3       1 LZG         0.1677
     12 F32        11.0300   69.2260    4.0110 F         1 LZG        -0.2373
     13 C20         9.1330   67.7430    3.6620 C.3       1 LZG         0.0043
     14 C18        10.4640   65.9130    2.9740 C.3       1 LZG        -0.0036
     15 N4          9.1050   66.2950    3.4120 N.4       1 LZG         0.2561
     16 C22         8.1450   65.9950    2.3580 C.3       1 LZG         0.0635
     17 C14         7.7980   64.5390    2.4250 C.2       1 LZG         0.2463
     18 O27         7.1200   64.0050    1.5220 O.2       1 LZG        -0.3804
     19 N15         8.2610   63.7760    3.5510 N.am      1 LZG        -0.2336
     20 C16         7.9010   62.3730    3.6040 C.ar      1 LZG         0.0922
     21 C17         8.3430   61.4990    2.6090 C.ar      1 LZG         0.1466
     22 F33         9.1460   62.0020    1.6520 F         1 LZG        -0.1956
     23 C28         7.0720   61.8810    4.6090 C.ar      1 LZG        -0.0478
     24 C26         6.6960   60.5390    4.6310 C.ar      1 LZG        -0.0431
     25 C9          7.1850   59.6930    3.6130 C.ar      1 LZG         0.0960
     26 C11         8.0040   60.1480    2.5790 C.ar      1 LZG        -0.0056
     27 N1          6.7500   58.3330    3.5910 N.am      1 LZG        -0.1717
     28 C8          5.7430   57.9850    2.6490 C.2       1 LZG         0.2151
     29 O25         5.3210   58.9290    1.8740 O.2       1 LZG        -0.4155
     30 C23         5.3100   56.6260    2.6330 C.2       1 LZG        -0.0111
     31 C30         5.8160   55.6780    3.4780 C.2       1 LZG        -0.0778
     32 C29         6.8320   56.0620    4.4100 C.2       1 LZG        -0.0402
     33 C21         7.2720   57.3490    4.4780 C.2       1 LZG         0.0799
     34 H1         14.9212   64.3032    8.7842 H         1 LZG         0.0447
     35 H2         13.2712   65.8555    7.4180 H         1 LZG         0.0517
     36 H3         11.8464   66.3859    5.7637 H         1 LZG         0.1843
     37 H4         12.1141   67.2987    2.9968 H         1 LZG         0.0639
     38 H5         10.4323   67.8627    5.3800 H         1 LZG         0.0731
     39 H6          9.0308   68.3055    2.7223 H         1 LZG         0.0844
     40 H7          8.3307   68.0372    4.3546 H         1 LZG         0.0844
     41 H8         10.6836   64.8722    3.2541 H         1 LZG         0.0838
     42 H9         10.5676   66.0294    1.8851 H         1 LZG         0.0838
     43 H10         8.8545   65.7984    4.2527 H         1 LZG         0.2055
     44 H11         8.5875   66.2253    1.3776 H         1 LZG         0.1067
     45 H12         7.2369   66.5989    2.5015 H         1 LZG         0.1067
     46 H13         8.8114   64.1975    4.2717 H         1 LZG         0.2223
     47 H14         6.7148   62.5499    5.3836 H         1 LZG         0.0473
     48 H15         6.0457   60.1557    5.4089 H         1 LZG         0.0496
     49 H16         8.3570   59.4869    1.7957 H         1 LZG         0.0513
     50 H17         4.5439   56.3312    1.9174 H         1 LZG         0.0399
     51 H18         5.4535   54.6517    3.4427 H         1 LZG         0.0636
     52 H19         7.2599   55.3134    5.0751 H         1 LZG         0.0371
     53 H20         8.0257   57.6266    5.2134 H         1 LZG         0.1228
@<TRIPOS>BOND
     1    1    2 1  
     2    2    3 2  
     3    2    5 1  
     4    3    4 1  
     5    4    6 2  
     6    5    6 1  
     7    6    7 1  
     8    7    8 2  
     9    7    9 am 
    10    9   10 1  
    11   10   11 1  
    12   10   14 1  
    13   11   12 1  
    14   11   13 1  
    15   13   15 1  
    16   14   15 1  
    17   15   16 1  
    18   16   17 1  
    19   17   18 2  
    20   17   19 am 
    21   19   20 1  
    22   20   21 ar 
    23   20   23 ar 
    24   21   22 1  
    25   21   26 ar 
    26   23   24 ar 
    27   24   25 ar 
    28   25   26 ar 
    29   25   27 1  
    30   27   28 am 
    31   27   33 1  
    32   28   29 2  
    33   28   30 1  
    34   30   31 2  
    35   31   32 1  
    36   32   33 2  
    37    3   34 1  
    38    4   35 1  
    39    9   36 1  
    40   10   37 1  
    41   11   38 1  
    42   13   39 1  
    43   13   40 1  
    44   14   41 1  
    45   14   42 1  
    46   15   43 1  
    47   16   44 1  
    48   16   45 1  
    49   19   46 1  
    50   23   47 1  
    51   24   48 1  
    52   26   49 1  
    53   30   50 1  
    54   31   51 1  
    55   32   52 1  
    56   33   53 1  
@<TRIPOS>SUBSTRUCTURE
     1 LZG         1

