### 
### Created by X-TOOL on Mon Sep 10 21:12:57 2018
### 

@<TRIPOS>MOLECULE
2vwu_ligand
   61    65     1     0     0
SMALL
GAST_HUCK


@<TRIPOS>ATOM
      1 C1          9.5400   10.4300   10.6250 C.3       1 7X1         0.0583
      2 O2         10.9620   10.6640   10.7240 O.3       1 7X1        -0.3199
      3 C3         11.6500    9.5650   11.1600 C.ar      1 7X1         0.1318
      4 C4         11.0830    8.3240   11.3970 C.ar      1 7X1        -0.0173
      5 C5         11.8870    7.2590   11.8640 C.ar      1 7X1         0.0387
      6 C6         11.3790    5.9640   12.1570 C.ar      1 7X1         0.1484
      7 N7         10.0200    5.7030   11.9640 N.pl3     1 7X1        -0.2534
      8 C8          9.3860    4.5130   12.3770 C.ar      1 7X1         0.1039
      9 C9          9.2710    4.2400   13.7200 C.ar      1 7X1         0.1481
     10 O10         9.7110    4.9620   14.7840 O.3       1 7X1        -0.2956
     11 C11         9.5060    4.1000   15.9150 C.3       1 7X1         0.1843
     12 O12         8.6340    3.0500   15.4800 O.3       1 7X1        -0.2941
     13 C13         8.6130    3.0780   14.1410 C.ar      1 7X1         0.1155
     14 C14         8.0790    2.1660   13.2390 C.ar      1 7X1        -0.0510
     15 C15         8.2140    2.4310   11.8830 C.ar      1 7X1        -0.0758
     16 C16         8.8460    3.6080   11.4700 C.ar      1 7X1         0.0448
     17 CL1         9.0240    3.9330    9.7830 Cl        1 7X1        -0.0914
     18 N18        12.2320    5.0140   12.6010 N.ar      1 7X1        -0.2617
     19 C19        13.5310    5.2460   12.7510 C.ar      1 7X1         0.0521
     20 N20        14.0540    6.4310   12.4770 N.ar      1 7X1        -0.3058
     21 C21        13.2870    7.4600   12.0330 C.ar      1 7X1         0.0261
     22 C22        13.8380    8.7270   11.7580 C.ar      1 7X1        -0.0170
     23 C23        13.0350    9.7530   11.3230 C.ar      1 7X1         0.1325
     24 O24        13.4960   10.9990   11.0300 O.3       1 7X1        -0.3128
     25 C25        14.8550   11.2490   11.3560 C.3       1 7X1         0.0759
     26 C26        15.0160   12.7790   11.2970 C.3       1 7X1         0.0154
     27 C27        15.2680   13.2080    9.8540 C.3       1 7X1        -0.0294
     28 N28        15.3730   14.6760    9.6880 N.4       1 7X1         0.2353
     29 C29        16.7360   15.1620    9.9910 C.3       1 7X1        -0.0319
     30 C30        16.7670   16.7010    9.9310 C.3       1 7X1        -0.0123
     31 C31        16.2980   17.1820    8.5440 C.3       1 7X1        -0.0434
     32 C32        14.9810   16.5020    8.1150 C.3       1 7X1        -0.0123
     33 C33        15.0940   14.9700    8.2790 C.3       1 7X1        -0.0319
     34 H1          9.0417   11.3446   10.2712 H         1 7X1         0.0575
     35 H2          9.1438   10.1557   11.6138 H         1 7X1         0.0575
     36 H3          9.3516    9.6116    9.9145 H         1 7X1         0.0575
     37 H4         10.0240    8.1694   11.2247 H         1 7X1         0.0546
     38 H5          9.4493    6.4199   11.4937 H         1 7X1         0.2186
     39 H6          9.0420    4.6607   16.7398 H         1 7X1         0.0968
     40 H7         10.4659    3.6807   16.2510 H         1 7X1         0.0968
     41 H8          7.5713    1.2727   13.5844 H         1 7X1         0.0428
     42 H9          7.8321    1.7303   11.1494 H         1 7X1         0.0479
     43 H10        14.1757    4.4495   13.1047 H         1 7X1         0.1016
     44 H11        14.9010    8.8931   11.8903 H         1 7X1         0.0495
     45 H12        15.5209   10.7638   10.6272 H         1 7X1         0.0617
     46 H13        15.0831   10.8769   12.3657 H         1 7X1         0.0617
     47 H14        15.8673   13.0827   11.9239 H         1 7X1         0.0343
     48 H15        14.0982   13.2590   11.6674 H         1 7X1         0.0343
     49 H16        14.4366   12.8451    9.2318 H         1 7X1         0.0815
     50 H17        16.2083   12.7502    9.5130 H         1 7X1         0.0815
     51 H18        14.7061   15.1376   10.2865 H         1 7X1         0.2033
     52 H19        17.4418   14.7536    9.2527 H         1 7X1         0.0814
     53 H20        17.0264   14.8300   10.9987 H         1 7X1         0.0814
     54 H21        17.7938   17.0523   10.1107 H         1 7X1         0.0317
     55 H22        16.0991   17.1096   10.7036 H         1 7X1         0.0317
     56 H23        17.0771   16.9472    7.8038 H         1 7X1         0.0269
     57 H24        16.1415   18.2702    8.5790 H         1 7X1         0.0269
     58 H25        14.7754   16.7404    7.0610 H         1 7X1         0.0317
     59 H26        14.1582   16.8749    8.7426 H         1 7X1         0.0317
     60 H27        14.1488   14.4935    7.9799 H         1 7X1         0.0814
     61 H28        15.9121   14.5883    7.6505 H         1 7X1         0.0814
@<TRIPOS>BOND
     1    1    2 1  
     2    2    3 1  
     3    3    4 ar 
     4    3   23 ar 
     5    4    5 ar 
     6    5    6 ar 
     7    5   21 ar 
     8    6    7 1  
     9    6   18 ar 
    10    7    8 1  
    11    8    9 ar 
    12    8   16 ar 
    13    9   10 1  
    14    9   13 ar 
    15   10   11 1  
    16   11   12 1  
    17   12   13 1  
    18   13   14 ar 
    19   14   15 ar 
    20   15   16 ar 
    21   16   17 1  
    22   18   19 ar 
    23   19   20 ar 
    24   20   21 ar 
    25   21   22 ar 
    26   22   23 ar 
    27   23   24 1  
    28   24   25 1  
    29   25   26 1  
    30   26   27 1  
    31   27   28 1  
    32   28   29 1  
    33   28   33 1  
    34   29   30 1  
    35   30   31 1  
    36   31   32 1  
    37   32   33 1  
    38    1   34 1  
    39    1   35 1  
    40    1   36 1  
    41    4   37 1  
    42    7   38 1  
    43   11   39 1  
    44   11   40 1  
    45   14   41 1  
    46   15   42 1  
    47   19   43 1  
    48   22   44 1  
    49   25   45 1  
    50   25   46 1  
    51   26   47 1  
    52   26   48 1  
    53   27   49 1  
    54   27   50 1  
    55   28   51 1  
    56   29   52 1  
    57   29   53 1  
    58   30   54 1  
    59   30   55 1  
    60   31   56 1  
    61   31   57 1  
    62   32   58 1  
    63   32   59 1  
    64   33   60 1  
    65   33   61 1  
@<TRIPOS>SUBSTRUCTURE
     1 7X1         1

