### 
### Created by X-TOOL on Mon Sep 10 21:12:59 2018
### 

@<TRIPOS>MOLECULE
2vwv_ligand
   49    51     1     0     0
SMALL
GAST_HUCK


@<TRIPOS>ATOM
      1 C1          4.6200    7.5380   10.2290 C.3       1 7X3         0.0573
      2 O2          5.8290    8.1920   10.6290 O.3       1 7X3        -0.3273
      3 C3          6.7650    7.2030   10.9290 C.ar      1 7X3         0.0941
      4 C4          6.5140    5.8460   10.7380 C.ar      1 7X3        -0.0407
      5 C5          7.4760    4.9000   11.0700 C.ar      1 7X3        -0.0451
      6 C6          8.6950    5.2970   11.5850 C.ar      1 7X3         0.0581
      7 N7          9.5950    4.2720   11.9100 N.pl3     1 7X3        -0.2443
      8 C8         10.9570    4.4250   12.0500 C.ar      1 7X3         0.2064
      9 N9         11.6580    3.3300   12.4550 N.ar      1 7X3        -0.2394
     10 C10        12.9590    3.3990   12.6130 C.ar      1 7X3         0.0727
     11 N11        13.5870    4.5480   12.3580 N.ar      1 7X3        -0.2394
     12 C12        12.9070    5.6320   11.9420 C.ar      1 7X3         0.2063
     13 N13        13.6330    6.7920   11.6920 N.pl3     1 7X3        -0.2487
     14 C14        13.0710    7.9500   11.1280 C.ar      1 7X3         0.0405
     15 C15        11.9330    7.9350   10.2940 C.ar      1 7X3        -0.0279
     16 C16        11.4880    9.1630    9.7780 C.ar      1 7X3         0.1030
     17 O17        10.3910    9.3030    8.9750 O.3       1 7X3        -0.3305
     18 C18         9.9090    8.1080    8.3260 C.3       1 7X3         0.0562
     19 C19        12.1810   10.3510   10.0890 C.ar      1 7X3         0.1355
     20 O20        11.8010   11.5740    9.5990 O.3       1 7X3        -0.3365
     21 C21        10.7570   12.0560   10.4620 C.3       1 7X3         0.0518
     22 C22        13.3130   10.3510   10.8950 C.ar      1 7X3         0.1030
     23 O23        13.9200   11.5750   11.1290 O.3       1 7X3        -0.3305
     24 C24        15.0100   11.5310   12.0760 C.3       1 7X3         0.0562
     25 C25        13.7450    9.1440   11.3970 C.ar      1 7X3        -0.0279
     26 N26        11.5710    5.5910   11.7770 N.ar      1 7X3        -0.2105
     27 C27         8.9680    6.6560   11.7840 C.ar      1 7X3        -0.0315
     28 C28         7.9880    7.5750   11.4510 C.ar      1 7X3         0.0596
     29 CL1         8.2690    9.2510   11.6370 Cl        1 7X3        -0.0814
     30 H1          3.8583    8.2930    9.9845 H         1 7X3         0.0574
     31 H2          4.2569    6.9037   11.0511 H         1 7X3         0.0574
     32 H3          4.8157    6.9148    9.3440 H         1 7X3         0.0574
     33 H4          5.5628    5.5264   10.3280 H         1 7X3         0.0517
     34 H5          7.2692    3.8459   10.9243 H         1 7X3         0.0518
     35 H6          9.2067    3.3292   12.0557 H         1 7X3         0.2184
     36 H7         13.5172    2.5319   12.9470 H         1 7X3         0.1143
     37 H8         14.6344    6.8027   11.9328 H         1 7X3         0.2183
     38 H9         11.4206    7.0089   10.0600 H         1 7X3         0.0349
     39 H10         9.0290    8.3531    7.7132 H         1 7X3         0.0572
     40 H11         9.6301    7.3644    9.0871 H         1 7X3         0.0572
     41 H12        10.7003    7.6954    7.6829 H         1 7X3         0.0572
     42 H13        10.4154   13.0405   10.1097 H         1 7X3         0.0564
     43 H14        11.1424   12.1473   11.4882 H         1 7X3         0.0564
     44 H15         9.9143   11.3491   10.4483 H         1 7X3         0.0564
     45 H16        15.4295   12.5404   12.1993 H         1 7X3         0.0572
     46 H17        15.7915   10.8520   11.7043 H         1 7X3         0.0572
     47 H18        14.6390   11.1672   13.0455 H         1 7X3         0.0572
     48 H19        14.6329    9.1193   12.0184 H         1 7X3         0.0349
     49 H20         9.9206    6.9794   12.1877 H         1 7X3         0.0520
@<TRIPOS>BOND
     1    1    2 1  
     2    2    3 1  
     3    3    4 ar 
     4    3   28 ar 
     5    4    5 ar 
     6    5    6 ar 
     7    6    7 1  
     8    6   27 ar 
     9    7    8 1  
    10    8    9 ar 
    11    8   26 ar 
    12    9   10 ar 
    13   10   11 ar 
    14   11   12 ar 
    15   12   13 1  
    16   12   26 ar 
    17   13   14 1  
    18   14   15 ar 
    19   14   25 ar 
    20   15   16 ar 
    21   16   17 1  
    22   16   19 ar 
    23   17   18 1  
    24   19   20 1  
    25   19   22 ar 
    26   20   21 1  
    27   22   23 1  
    28   22   25 ar 
    29   23   24 1  
    30   27   28 ar 
    31   28   29 1  
    32    1   30 1  
    33    1   31 1  
    34    1   32 1  
    35    4   33 1  
    36    5   34 1  
    37    7   35 1  
    38   10   36 1  
    39   13   37 1  
    40   15   38 1  
    41   18   39 1  
    42   18   40 1  
    43   18   41 1  
    44   21   42 1  
    45   21   43 1  
    46   21   44 1  
    47   24   45 1  
    48   24   46 1  
    49   24   47 1  
    50   25   48 1  
    51   27   49 1  
@<TRIPOS>SUBSTRUCTURE
     1 7X3         1

