### 
### Created by X-TOOL on Mon Sep 10 21:12:57 2018
### 

@<TRIPOS>MOLECULE
2vww_ligand
   49    52     1     0     0
SMALL
GAST_HUCK


@<TRIPOS>ATOM
      1 C1         15.6950   11.7760   11.0600 C.3       1 7X2         0.0562
      2 O2         14.4160   11.7710   10.4300 O.3       1 7X2        -0.3306
      3 C3         13.7440   10.5860   10.4780 C.ar      1 7X2         0.1026
      4 C4         14.2400    9.4250   11.0450 C.ar      1 7X2        -0.0287
      5 C5         13.4570    8.2590   11.0250 C.ar      1 7X2         0.0377
      6 N6         13.9670    7.1030   11.6000 N.pl3     1 7X2        -0.2548
      7 C7         13.3060    5.9200   11.8610 C.ar      1 7X2         0.1920
      8 N8         14.0650    4.9040   12.2790 N.ar      1 7X2        -0.2701
      9 C9         13.5580    3.7250   12.5960 C.ar      1 7X2         0.0004
     10 C10        12.2090    3.5540   12.4520 C.ar      1 7X2        -0.0027
     11 C11        11.4000    4.6260   12.0030 C.ar      1 7X2         0.1312
     12 N12        10.0150    4.4780   11.8490 N.pl3     1 7X2        -0.2609
     13 C13         9.3310    3.3050   12.2410 C.ar      1 7X2         0.1000
     14 C14         9.2410    2.9390   13.5950 C.ar      1 7X2         0.1467
     15 O15         9.7160    3.5710   14.7100 O.3       1 7X2        -0.2961
     16 C16         9.6720    2.5690   15.7460 C.3       1 7X2         0.1841
     17 O17         8.6240    1.6570   15.3490 O.3       1 7X2        -0.2943
     18 C18         8.5800    1.7670   13.9770 C.ar      1 7X2         0.1148
     19 C19         8.0000    0.9390   13.0140 C.ar      1 7X2        -0.0515
     20 C20         8.1100    1.2870   11.6550 C.ar      1 7X2        -0.0764
     21 C21         8.7480    2.4680   11.2820 C.ar      1 7X2         0.0435
     22 CL1         8.8730    2.9070    9.6130 Cl        1 7X2        -0.0920
     23 N23        11.9860    5.7990   11.7290 N.ar      1 7X2        -0.2362
     24 C24        12.2190    8.2220   10.4170 C.ar      1 7X2        -0.0287
     25 C25        11.7210    9.3660    9.8370 C.ar      1 7X2         0.1026
     26 O26        10.4800    9.3140    9.2510 O.3       1 7X2        -0.3306
     27 C27        10.4990    8.5130    8.0780 C.3       1 7X2         0.0562
     28 C28        12.4820   10.5490    9.8740 C.ar      1 7X2         0.1351
     29 O29        12.0330   11.7060    9.3100 O.3       1 7X2        -0.3368
     30 C30        10.8320   12.0750    9.9840 C.3       1 7X2         0.0517
     31 H1         16.1473   12.7740   10.9635 H         1 7X2         0.0572
     32 H2         16.3444   11.0309   10.5773 H         1 7X2         0.0572
     33 H3         15.5800   11.5271   12.1253 H         1 7X2         0.0572
     34 H4         15.2237    9.4156   11.5003 H         1 7X2         0.0346
     35 H5         14.9620    7.1318   11.8646 H         1 7X2         0.2147
     36 H6         14.1897    2.9217   12.9575 H         1 7X2         0.0846
     37 H7         11.7578    2.5956   12.6821 H         1 7X2         0.0579
     38 H8          9.4760    5.2521   11.4352 H         1 7X2         0.2132
     39 H9          9.4355    3.0286   16.7170 H         1 7X2         0.0968
     40 H10        10.6355    2.0427   15.8144 H         1 7X2         0.0968
     41 H11         7.4718    0.0397   13.3094 H         1 7X2         0.0423
     42 H12         7.6967    0.6335   10.8953 H         1 7X2         0.0477
     43 H13        11.6454    7.3024   10.3965 H         1 7X2         0.0346
     44 H14         9.4934    8.4910    7.6328 H         1 7X2         0.0572
     45 H15        10.8075    7.4896    8.3378 H         1 7X2         0.0572
     46 H16        11.2108    8.9382    7.3551 H         1 7X2         0.0572
     47 H17        10.4412   13.0082    9.5523 H         1 7X2         0.0564
     48 H18        11.0429   12.2258   11.0530 H         1 7X2         0.0564
     49 H19        10.0853   11.2758    9.8667 H         1 7X2         0.0564
@<TRIPOS>BOND
     1    1    2 1  
     2    2    3 1  
     3    3    4 ar 
     4    3   28 ar 
     5    4    5 ar 
     6    5    6 1  
     7    5   24 ar 
     8    6    7 1  
     9    7    8 ar 
    10    7   23 ar 
    11    8    9 ar 
    12    9   10 ar 
    13   10   11 ar 
    14   11   12 1  
    15   11   23 ar 
    16   12   13 1  
    17   13   14 ar 
    18   13   21 ar 
    19   14   15 1  
    20   14   18 ar 
    21   15   16 1  
    22   16   17 1  
    23   17   18 1  
    24   18   19 ar 
    25   19   20 ar 
    26   20   21 ar 
    27   21   22 1  
    28   24   25 ar 
    29   25   26 1  
    30   25   28 ar 
    31   26   27 1  
    32   28   29 1  
    33   29   30 1  
    34    1   31 1  
    35    1   32 1  
    36    1   33 1  
    37    4   34 1  
    38    6   35 1  
    39    9   36 1  
    40   10   37 1  
    41   12   38 1  
    42   16   39 1  
    43   16   40 1  
    44   19   41 1  
    45   20   42 1  
    46   24   43 1  
    47   27   44 1  
    48   27   45 1  
    49   27   46 1  
    50   30   47 1  
    51   30   48 1  
    52   30   49 1  
@<TRIPOS>SUBSTRUCTURE
     1 7X2         1

