### 
### Created by X-TOOL on Mon Sep 10 21:12:57 2018
### 

@<TRIPOS>MOLECULE
2vwx_ligand
   42    45     1     0     0
SMALL
GAST_HUCK


@<TRIPOS>ATOM
      1 C11        12.9970    6.3020   11.7750 C.ar      1 7X4         0.1946
      2 N12        13.7700    5.2890   12.1410 N.ar      1 7X4        -0.2694
      3 C13        13.2940    4.0690   12.4650 C.ar      1 7X4         0.0007
      4 C14        11.9390    3.8910   12.3760 C.ar      1 7X4        -0.0024
      5 C15        11.1140    4.9740   11.9830 C.ar      1 7X4         0.1317
      6 N16         9.7270    4.8120   11.9070 N.pl3     1 7X4        -0.2609
      7 C17         9.0770    3.6200   12.2740 C.ar      1 7X4         0.1000
      8 C18         9.0510    3.2020   13.6120 C.ar      1 7X4         0.1467
      9 O19         9.5940    3.8200   14.7130 O.3       1 7X4        -0.2961
     10 C20         9.5910    2.7890   15.7330 C.3       1 7X4         0.1841
     11 O21         8.5220    1.8730   15.3200 O.3       1 7X4        -0.2943
     12 C22         8.4030    2.0170   13.9740 C.ar      1 7X4         0.1148
     13 C23         7.7650    1.2030   13.0270 C.ar      1 7X4        -0.0515
     14 C24         7.8440    1.6470   11.6930 C.ar      1 7X4        -0.0764
     15 C25         8.4750    2.8400   11.3010 C.ar      1 7X4         0.0435
     16 CL2         8.5480    3.3740    9.6200 Cl        1 7X4        -0.0920
     17 N27        11.6620    6.1650   11.7000 N.ar      1 7X4        -0.2354
     18 N1         15.5190   12.2480    9.5740 N.am      1 7X4        -0.2611
     19 S2         14.6830   12.4160   10.9870 S.o2      1 7X4         0.0633
     20 O3         15.6060   12.1570   12.0490 O.2       1 7X4        -0.1507
     21 O4         13.9320   13.6460   10.9730 O.2       1 7X4        -0.1507
     22 C5         13.5240   11.0960   11.0400 C.ar      1 7X4         0.0986
     23 C6         12.1580   11.3120   10.9290 C.ar      1 7X4        -0.0468
     24 C7         11.2720   10.2470   10.9780 C.ar      1 7X4        -0.0696
     25 C8         11.7510    8.9500   11.1610 C.ar      1 7X4        -0.0381
     26 C9         13.1240    8.7400   11.2790 C.ar      1 7X4         0.0672
     27 N10        13.6840    7.4780   11.4750 N.pl3     1 7X4        -0.2445
     28 C28        14.0120    9.8250   11.2270 C.ar      1 7X4        -0.0116
     29 H1         13.9525    3.2679   12.7807 H         1 7X4         0.0847
     30 H2         11.4999    2.9267   12.6050 H         1 7X4         0.0582
     31 H3          9.1568    5.5998   11.5676 H         1 7X4         0.2132
     32 H4          9.3745    3.2197   16.7217 H         1 7X4         0.0968
     33 H5         10.5596    2.2686   15.7638 H         1 7X4         0.0968
     34 H6          7.2456    0.2926   13.3035 H         1 7X4         0.0423
     35 H7          7.3915    1.0325   10.9232 H         1 7X4         0.0477
     36 H8         16.0927   11.4425    9.4252 H         1 7X4         0.1635
     37 H9         15.4519   12.9517    8.8666 H         1 7X4         0.1635
     38 H10        11.7810   12.3205   10.8031 H         1 7X4         0.0539
     39 H11        10.2073   10.4222   10.8741 H         1 7X4         0.0588
     40 H12        11.0628    8.1140   11.2110 H         1 7X4         0.0536
     41 H13        14.7080    7.4073   11.3896 H         1 7X4         0.2177
     42 H14        15.0783    9.6615   11.3339 H         1 7X4         0.0556
@<TRIPOS>BOND
     1    1    2 ar 
     2    1   17 ar 
     3   27    1 1  
     4    2    3 ar 
     5    3    4 ar 
     6    5    4 ar 
     7    5    6 1  
     8   17    5 ar 
     9    6    7 1  
    10    7    8 ar 
    11    7   15 ar 
    12    8    9 1  
    13    8   12 ar 
    14    9   10 1  
    15   11   10 1  
    16   12   11 1  
    17   12   13 ar 
    18   14   13 ar 
    19   15   14 ar 
    20   15   16 1  
    21   19   18 am 
    22   19   20 2  
    23   19   21 2  
    24   22   19 1  
    25   23   22 ar 
    26   22   28 ar 
    27   24   23 ar 
    28   25   24 ar 
    29   26   25 ar 
    30   26   27 1  
    31   26   28 ar 
    32    3   29 1  
    33    4   30 1  
    34    6   31 1  
    35   10   32 1  
    36   10   33 1  
    37   13   34 1  
    38   14   35 1  
    39   18   36 1  
    40   18   37 1  
    41   23   38 1  
    42   24   39 1  
    43   25   40 1  
    44   27   41 1  
    45   28   42 1  
@<TRIPOS>SUBSTRUCTURE
     1 7X4         1

