### 
### Created by X-TOOL on Mon Sep 10 21:12:57 2018
### 

@<TRIPOS>MOLECULE
2vwy_ligand
   43    46     1     0     0
SMALL
GAST_HUCK


@<TRIPOS>ATOM
      1 N1         13.7700    7.5110   11.5220 N.pl3     1 7X5        -0.2445
      2 C7         13.1190    6.3010   11.8330 C.ar      1 7X5         0.1946
      3 N2         13.9870    5.3590   12.2370 N.ar      1 7X5        -0.2694
      4 C8         13.4830    4.1580   12.5420 C.ar      1 7X5         0.0007
      5 C9         12.1480    3.8860   12.4540 C.ar      1 7X5        -0.0024
      6 C10        11.3220    4.9190   12.0260 C.ar      1 7X5         0.1317
      7 N3          9.9220    4.7170   11.9110 N.pl3     1 7X5        -0.2609
      8 C11         9.2720    3.5320   12.2780 C.ar      1 7X5         0.1000
      9 C12         9.1930    3.1180   13.5940 C.ar      1 7X5         0.1467
     10 O3          9.7500    3.7850   14.6630 O.3       1 7X5        -0.2961
     11 C13         9.5580    2.7950   15.6960 C.3       1 7X5         0.1841
     12 O4          8.5970    1.7730   15.3270 O.3       1 7X5        -0.2943
     13 C14         8.5420    1.9860   13.9670 C.ar      1 7X5         0.1148
     14 C15         7.9340    1.1670   13.0460 C.ar      1 7X5        -0.0515
     15 C16         8.0080    1.5550   11.7220 C.ar      1 7X5        -0.0764
     16 C17         8.6550    2.7210   11.3420 C.ar      1 7X5         0.0435
     17 CL1         8.7180    3.1820    9.6760 Cl        1 7X5        -0.0920
     18 N4         11.7910    6.1280   11.7170 N.ar      1 7X5        -0.2354
     19 C1          9.4790    8.8260    8.1730 C.3       1 7X5         0.0594
     20 S1          9.4320    9.8170    9.6410 S.o2      1 7X5        -0.0084
     21 O1          9.1170   11.1510    9.1760 O.2       1 7X5        -0.1698
     22 O2          8.5740    9.1340   10.5890 O.2       1 7X5        -0.1698
     23 C2         11.1450    9.7890   10.1520 C.ar      1 7X5         0.0785
     24 C3         11.8640   10.9590   10.0540 C.ar      1 7X5        -0.0485
     25 C4         13.1870   10.9670   10.4360 C.ar      1 7X5        -0.0696
     26 C5         13.7860    9.8220   10.9140 C.ar      1 7X5        -0.0381
     27 C6         13.0790    8.6440   11.0200 C.ar      1 7X5         0.0671
     28 C18        11.7450    8.6360   10.6320 C.ar      1 7X5        -0.0134
     29 H1         14.7880    7.5758   11.6647 H         1 7X5         0.2177
     30 H2         14.1569    3.3748   12.8699 H         1 7X5         0.0847
     31 H3         11.7505    2.9096   12.7062 H         1 7X5         0.0582
     32 H4          9.3503    5.4872   11.5356 H         1 7X5         0.2132
     33 H5          9.2006    3.3010   16.6050 H         1 7X5         0.0968
     34 H6         10.5239    2.3105   15.9017 H         1 7X5         0.0968
     35 H7          7.4209    0.2599   13.3441 H         1 7X5         0.0423
     36 H8          7.5492    0.9329   10.9620 H         1 7X5         0.0477
     37 H9         10.1225    9.3106    7.4240 H         1 7X5         0.0468
     38 H10         8.4613    8.7206    7.7690 H         1 7X5         0.0468
     39 H11         9.8824    7.8316    8.4146 H         1 7X5         0.0468
     40 H12        11.3948   11.8622    9.6810 H         1 7X5         0.0538
     41 H13        13.7624   11.8825   10.3599 H         1 7X5         0.0588
     42 H14        14.8282    9.8482   11.2109 H         1 7X5         0.0536
     43 H15        11.1691    7.7206   10.7054 H         1 7X5         0.0555
@<TRIPOS>BOND
     1    1    2 1  
     2   27    1 1  
     3    2    3 ar 
     4    2   18 ar 
     5    3    4 ar 
     6    4    5 ar 
     7    6    5 ar 
     8    6    7 1  
     9   18    6 ar 
    10    7    8 1  
    11    8    9 ar 
    12    8   16 ar 
    13    9   10 1  
    14    9   13 ar 
    15   10   11 1  
    16   12   11 1  
    17   13   12 1  
    18   13   14 ar 
    19   15   14 ar 
    20   16   15 ar 
    21   16   17 1  
    22   20   19 1  
    23   20   21 2  
    24   20   22 2  
    25   23   20 1  
    26   24   23 ar 
    27   23   28 ar 
    28   25   24 ar 
    29   26   25 ar 
    30   26   27 ar 
    31   27   28 ar 
    32    1   29 1  
    33    4   30 1  
    34    5   31 1  
    35    7   32 1  
    36   11   33 1  
    37   11   34 1  
    38   14   35 1  
    39   15   36 1  
    40   19   37 1  
    41   19   38 1  
    42   19   39 1  
    43   24   40 1  
    44   25   41 1  
    45   26   42 1  
    46   28   43 1  
@<TRIPOS>SUBSTRUCTURE
     1 7X5         1

