### 
### Created by X-TOOL on Mon Sep 10 21:12:57 2018
### 

@<TRIPOS>MOLECULE
2vwz_ligand
   45    48     1     0     0
SMALL
GAST_HUCK


@<TRIPOS>ATOM
      1 N2         13.6440    7.4540   11.6170 N.pl3     1 7X6        -0.2484
      2 C7         13.0090    6.2490   11.8950 C.ar      1 7X6         0.1944
      3 N3         13.8960    5.2800   12.1850 N.ar      1 7X6        -0.2694
      4 C8         13.3820    4.0620   12.4540 C.ar      1 7X6         0.0007
      5 C9         12.0160    3.8610   12.4040 C.ar      1 7X6        -0.0024
      6 C10        11.1920    4.9240   12.0710 C.ar      1 7X6         0.1317
      7 N4          9.7940    4.7930   12.0020 N.pl3     1 7X6        -0.2609
      8 C11         9.1300    3.5770   12.3000 C.ar      1 7X6         0.1000
      9 C12         9.0560    3.1010   13.5970 C.ar      1 7X6         0.1467
     10 O3          9.6260    3.7260   14.6940 O.3       1 7X6        -0.2961
     11 C13         9.4080    2.7060   15.7110 C.3       1 7X6         0.1841
     12 O4          8.4610    1.7000   15.2850 O.3       1 7X6        -0.2943
     13 C14         8.3970    1.9480   13.9370 C.ar      1 7X6         0.1148
     14 C15         7.7790    1.1560   13.0030 C.ar      1 7X6        -0.0515
     15 C16         7.8520    1.6090   11.6820 C.ar      1 7X6        -0.0764
     16 C17         8.5030    2.8030   11.3300 C.ar      1 7X6         0.0435
     17 CL1         8.5590    3.3520    9.6570 Cl        1 7X6        -0.0920
     18 N5         11.6830    6.1270   11.8280 N.ar      1 7X6        -0.2354
     19 C1          9.4280    8.4370    8.1980 C.3       1 7X6         0.0788
     20 S1          8.7140    9.0380    9.7100 S.o2      1 7X6         0.0570
     21 O1          8.6090    7.8620   10.5640 O.2       1 7X6        -0.1502
     22 O2          7.5060    9.7720    9.3450 O.2       1 7X6        -0.1502
     23 N1          9.8050   10.2680   10.2030 N.am      1 7X6        -0.1946
     24 C2         11.1830    9.9940   10.5020 C.ar      1 7X6         0.0524
     25 C3         12.0320   11.0760   10.3620 C.ar      1 7X6        -0.0568
     26 C4         13.3790   10.9380   10.6190 C.ar      1 7X6        -0.0867
     27 C5         13.8790    9.7270   11.0370 C.ar      1 7X6        -0.0554
     28 C6         13.0190    8.6390   11.1860 C.ar      1 7X6         0.0489
     29 C18        11.6650    8.7590   10.9310 C.ar      1 7X6        -0.0236
     30 H1         14.6665    7.4821   11.7376 H         1 7X6         0.2173
     31 H2         14.0413    3.2404   12.7096 H         1 7X6         0.0847
     32 H3         11.5951    2.8861   12.6221 H         1 7X6         0.0582
     33 H4          9.2320    5.6104   11.7248 H         1 7X6         0.2132
     34 H5          9.0242    3.1902   16.6211 H         1 7X6         0.0968
     35 H6         10.3679    2.2168   15.9328 H         1 7X6         0.0968
     36 H7          7.2674    0.2388   13.2714 H         1 7X6         0.0423
     37 H8          7.3891    1.0169   10.9008 H         1 7X6         0.0477
     38 H9         10.3458    7.8744    8.4242 H         1 7X6         0.0487
     39 H10         9.6710    9.2873    7.5439 H         1 7X6         0.0487
     40 H11         8.7093    7.7772    7.6900 H         1 7X6         0.0487
     41 H12         9.4701   11.2067   10.2848 H         1 7X6         0.2155
     42 H13        11.6371   12.0358   10.0492 H         1 7X6         0.0391
     43 H14        14.0445   11.7842   10.4916 H         1 7X6         0.0546
     44 H15        14.9364    9.6185   11.2497 H         1 7X6         0.0398
     45 H16        10.9970    7.9153   11.0613 H         1 7X6         0.0390
@<TRIPOS>BOND
     1    1    2 1  
     2   28    1 1  
     3    2    3 ar 
     4    2   18 ar 
     5    3    4 ar 
     6    4    5 ar 
     7    6    5 ar 
     8    6    7 1  
     9   18    6 ar 
    10    7    8 1  
    11    8    9 ar 
    12    8   16 ar 
    13    9   10 1  
    14    9   13 ar 
    15   10   11 1  
    16   12   11 1  
    17   13   12 1  
    18   13   14 ar 
    19   15   14 ar 
    20   16   15 ar 
    21   16   17 1  
    22   20   19 1  
    23   20   21 2  
    24   20   22 2  
    25   23   20 am 
    26   24   23 1  
    27   25   24 ar 
    28   24   29 ar 
    29   26   25 ar 
    30   27   26 ar 
    31   27   28 ar 
    32   28   29 ar 
    33    1   30 1  
    34    4   31 1  
    35    5   32 1  
    36    7   33 1  
    37   11   34 1  
    38   11   35 1  
    39   14   36 1  
    40   15   37 1  
    41   19   38 1  
    42   19   39 1  
    43   19   40 1  
    44   23   41 1  
    45   25   42 1  
    46   26   43 1  
    47   27   44 1  
    48   29   45 1  
@<TRIPOS>SUBSTRUCTURE
     1 7X6         1

