### 
### Created by X-TOOL on Mon Sep 10 21:12:57 2018
### 

@<TRIPOS>MOLECULE
2vx1_ligand
   41    44     1     0     0
SMALL
GAST_HUCK


@<TRIPOS>ATOM
      1 N2         13.7070    7.4440   11.5360 N.pl3     1 7X8        -0.2437
      2 C7         13.0600    6.2240   11.8450 C.ar      1 7X8         0.1946
      3 N3         13.9380    5.2740   12.1930 N.ar      1 7X8        -0.2694
      4 C8         13.4410    4.0610   12.4820 C.ar      1 7X8         0.0007
      5 C9         12.0940    3.7870   12.4290 C.ar      1 7X8        -0.0024
      6 C10        11.2630    4.8390   12.0520 C.ar      1 7X8         0.1316
      7 N4          9.8770    4.6630   11.9630 N.pl3     1 7X8        -0.2609
      8 C11         9.2290    3.4730   12.3140 C.ar      1 7X8         0.1000
      9 C12         9.1620    3.0610   13.6330 C.ar      1 7X8         0.1467
     10 O2          9.7330    3.7180   14.7070 O.3       1 7X8        -0.2961
     11 C13         9.6080    2.6800   15.6890 C.3       1 7X8         0.1841
     12 O3          8.5880    1.7080   15.3520 O.3       1 7X8        -0.2943
     13 C14         8.5080    1.9160   13.9970 C.ar      1 7X8         0.1148
     14 C15         7.8920    1.1020   13.0770 C.ar      1 7X8        -0.0515
     15 C16         7.9740    1.5000   11.7490 C.ar      1 7X8        -0.0764
     16 C17         8.6170    2.6650   11.3670 C.ar      1 7X8         0.0435
     17 CL1         8.6910    3.1790    9.7030 Cl        1 7X8        -0.0920
     18 N5         11.7380    6.0490   11.7640 N.ar      1 7X8        -0.2354
     19 N1          9.4380   10.6280    8.9260 N.am      1 7X8        -0.3002
     20 C1          9.7620    9.9730   10.0940 C.2       1 7X8         0.1998
     21 O1          8.9560    9.4620   10.8630 O.2       1 7X8        -0.3849
     22 C2         11.1970    9.9050   10.4050 C.ar      1 7X8         0.0402
     23 C3         11.9680   11.0430   10.3020 C.ar      1 7X8        -0.0535
     24 C4         13.3100   10.9820   10.6080 C.ar      1 7X8        -0.0658
     25 C5         13.8530    9.7840   11.0130 C.ar      1 7X8        -0.0338
     26 C6         13.0770    8.6370   11.1110 C.ar      1 7X8         0.0708
     27 C18        11.7350    8.6920   10.8160 C.ar      1 7X8        -0.0184
     28 H1         14.7326    7.4653   11.6293 H         1 7X8         0.2177
     29 H2         14.1249    3.2698   12.7671 H         1 7X8         0.0847
     30 H3         11.7007    2.8055   12.6677 H         1 7X8         0.0581
     31 H4          9.3052    5.4489   11.6220 H         1 7X8         0.2132
     32 H5          9.3504    3.1391   16.6548 H         1 7X8         0.0968
     33 H6         10.5736    2.1603   15.7759 H         1 7X8         0.0968
     34 H7          7.3705    0.1985   13.3718 H         1 7X8         0.0423
     35 H8          7.5195    0.8779   10.9864 H         1 7X8         0.0477
     36 H9         10.1601   11.0175    8.3543 H         1 7X8         0.1808
     37 H10         8.4807   10.7139    8.6499 H         1 7X8         0.1808
     38 H11        11.5222   11.9781    9.9829 H         1 7X8         0.0571
     39 H12        13.9309   11.8672   10.5307 H         1 7X8         0.0599
     40 H13        14.9073    9.7350   11.2603 H         1 7X8         0.0572
     41 H14        11.1115    7.8094   10.9022 H         1 7X8         0.0587
@<TRIPOS>BOND
     1    1    2 1  
     2   26    1 1  
     3    2    3 ar 
     4    2   18 ar 
     5    3    4 ar 
     6    4    5 ar 
     7    6    5 ar 
     8    6    7 1  
     9   18    6 ar 
    10    7    8 1  
    11    8    9 ar 
    12    8   16 ar 
    13    9   10 1  
    14    9   13 ar 
    15   10   11 1  
    16   12   11 1  
    17   13   12 1  
    18   13   14 ar 
    19   15   14 ar 
    20   16   15 ar 
    21   16   17 1  
    22   20   19 am 
    23   20   21 2  
    24   22   20 1  
    25   23   22 ar 
    26   22   27 ar 
    27   24   23 ar 
    28   25   24 ar 
    29   25   26 ar 
    30   26   27 ar 
    31    1   28 1  
    32    4   29 1  
    33    5   30 1  
    34    7   31 1  
    35   11   32 1  
    36   11   33 1  
    37   14   34 1  
    38   15   35 1  
    39   19   36 1  
    40   19   37 1  
    41   23   38 1  
    42   24   39 1  
    43   25   40 1  
    44   27   41 1  
@<TRIPOS>SUBSTRUCTURE
     1 7X8         1

