### 
### Created by X-TOOL on Mon Sep 10 21:13:00 2018
### 

@<TRIPOS>MOLECULE
2vx9_ligand
   47    49     1     0     0
SMALL
GAST_HUCK


@<TRIPOS>ATOM
      1 N1         22.9590   74.4260   71.3190 N.2       1 RBF        -0.2549
      2 C2         22.5310   75.5160   71.9860 C.2       1 RBF         0.2439
      3 O2         23.4110   76.2870   72.4870 O.2       1 RBF        -0.3902
      4 N3         21.2180   75.7920   72.1170 N.am      1 RBF        -0.1938
      5 C4         20.2330   75.0320   71.6490 C.2       1 RBF         0.2704
      6 O4         19.0160   75.3420   71.8070 O.2       1 RBF        -0.3655
      7 C4A        20.6130   73.8160   70.8950 C.2       1 RBF         0.2076
      8 N5         19.6900   72.9980   70.3620 N.2       1 RBF        -0.2387
      9 C5A        20.1070   71.8950   69.6920 C.ar      1 RBF         0.0856
     10 C6         19.1500   71.0470   69.1650 C.ar      1 RBF        -0.0403
     11 C7         19.5490   69.9140   68.4520 C.ar      1 RBF        -0.0428
     12 C7M        18.4760   69.0220   67.8660 C.3       1 RBF        -0.0352
     13 C8         20.9930   69.6030   68.2900 C.ar      1 RBF        -0.0416
     14 C8M        21.4090   68.3620   67.5350 C.3       1 RBF        -0.0312
     15 C9         21.9630   70.4390   68.8360 C.ar      1 RBF        -0.0258
     16 C9A        21.5480   71.5770   69.5350 C.ar      1 RBF         0.1048
     17 N10        22.5180   72.4470   70.0860 N.pl3     1 RBF        -0.2138
     18 C10        22.0610   73.5640   70.7650 C.2       1 RBF         0.1894
     19 C1'        23.9750   72.2100   69.9720 C.3       1 RBF         0.0886
     20 C2'        24.6650   73.1470   68.9760 C.3       1 RBF         0.1101
     21 O2'        24.3680   72.6770   67.6540 O.3       1 RBF        -0.3865
     22 C3'        26.1900   73.1920   69.1660 C.3       1 RBF         0.1114
     23 O3'        26.6940   71.8540   69.3040 O.3       1 RBF        -0.3865
     24 C4'        26.6440   74.0040   70.3850 C.3       1 RBF         0.1065
     25 O4'        26.1730   73.3910   71.5880 O.3       1 RBF        -0.3869
     26 C5'        26.1940   75.4700   70.3040 C.3       1 RBF         0.0727
     27 O5'        26.6670   75.9800   69.0520 O.3       1 RBF        -0.3924
     28 H1         20.9667   76.6298   72.6017 H         1 RBF         0.2248
     29 H2         18.0964   71.2603   69.3044 H         1 RBF         0.0564
     30 H3         17.4850   69.4361   68.1034 H         1 RBF         0.0366
     31 H4         18.5638   68.0127   68.2945 H         1 RBF         0.0366
     32 H5         18.5992   68.9689   66.7742 H         1 RBF         0.0366
     33 H6         22.5068   68.2951   67.5161 H         1 RBF         0.0395
     34 H7         21.0271   68.4143   66.5048 H         1 RBF         0.0395
     35 H8         20.9960   67.4732   68.0345 H         1 RBF         0.0395
     36 H9         23.0170   70.2129   68.7219 H         1 RBF         0.0493
     37 H10        24.1354   71.1724   69.6439 H         1 RBF         0.0631
     38 H11        24.4311   72.3561   70.9623 H         1 RBF         0.0631
     39 H12        24.2642   74.1632   69.1055 H         1 RBF         0.0647
     40 H13        24.7861   73.2435   67.0163 H         1 RBF         0.2100
     41 H14        26.6290   73.6500   68.2674 H         1 RBF         0.0647
     42 H15        27.6363   71.8823   69.4214 H         1 RBF         0.2100
     43 H16        27.7438   73.9935   70.4053 H         1 RBF         0.0643
     44 H17        26.4599   73.9020   72.3358 H         1 RBF         0.2100
     45 H18        26.6274   76.0456   71.1352 H         1 RBF         0.0584
     46 H19        25.0966   75.5322   70.3478 H         1 RBF         0.0584
     47 H20        26.4075   76.8896   68.9635 H         1 RBF         0.2095
@<TRIPOS>BOND
     1    1    2 1  
     2    1   18 2  
     3    2    3 2  
     4    2    4 am 
     5    4    5 am 
     6    5    6 2  
     7    5    7 1  
     8    7    8 2  
     9    7   18 1  
    10    8    9 1  
    11    9   10 ar 
    12    9   16 ar 
    13   10   11 ar 
    14   11   12 1  
    15   11   13 ar 
    16   13   14 1  
    17   13   15 ar 
    18   15   16 ar 
    19   16   17 1  
    20   17   18 1  
    21   17   19 1  
    22   19   20 1  
    23   20   21 1  
    24   20   22 1  
    25   22   23 1  
    26   22   24 1  
    27   24   25 1  
    28   24   26 1  
    29   26   27 1  
    30    4   28 1  
    31   10   29 1  
    32   12   30 1  
    33   12   31 1  
    34   12   32 1  
    35   14   33 1  
    36   14   34 1  
    37   14   35 1  
    38   15   36 1  
    39   19   37 1  
    40   19   38 1  
    41   20   39 1  
    42   21   40 1  
    43   22   41 1  
    44   23   42 1  
    45   24   43 1  
    46   25   44 1  
    47   26   45 1  
    48   26   46 1  
    49   27   47 1  
@<TRIPOS>SUBSTRUCTURE
     1 RBF         1

