### 
### Created by X-TOOL on Mon Sep 10 21:13:02 2018
### 

@<TRIPOS>MOLECULE
2vxa_ligand
   47    49     1     0     0
SMALL
GAST_HUCK


@<TRIPOS>ATOM
      1 N1        -25.9440  -39.1100    2.4940 N.2       1 RBF        -0.2549
      2 C2        -27.0700  -38.9010    3.2140 C.2       1 RBF         0.2439
      3 O2        -28.1500  -39.1510    2.6690 O.2       1 RBF        -0.3902
      4 N3        -27.0550  -38.4210    4.4730 N.am      1 RBF        -0.1938
      5 C4        -25.8950  -38.1270    5.0960 C.2       1 RBF         0.2704
      6 O4        -25.8560  -37.6890    6.2610 O.2       1 RBF        -0.3655
      7 C4A       -24.6280  -38.3190    4.3650 C.2       1 RBF         0.2076
      8 N5        -23.4510  -38.0310    4.9140 N.2       1 RBF        -0.2387
      9 C5A       -22.2970  -38.2030    4.2360 C.ar      1 RBF         0.0856
     10 C6        -21.0920  -37.8990    4.8420 C.ar      1 RBF        -0.0403
     11 C7        -19.9040  -38.0670    4.1700 C.ar      1 RBF        -0.0428
     12 C7M       -18.6110  -37.7240    4.8540 C.3       1 RBF        -0.0352
     13 C8        -19.9200  -38.5650    2.7770 C.ar      1 RBF        -0.0416
     14 C8M       -18.6310  -38.7740    2.0220 C.3       1 RBF        -0.0312
     15 C9        -21.1210  -38.8830    2.1710 C.ar      1 RBF        -0.0258
     16 C9A       -22.3150  -38.7170    2.8580 C.ar      1 RBF         0.1048
     17 N10       -23.5570  -39.0090    2.2710 N.pl3     1 RBF        -0.2138
     18 C10       -24.7230  -38.8280    3.0060 C.2       1 RBF         0.1894
     19 C1'       -23.6590  -39.5590    0.9340 C.3       1 RBF         0.0886
     20 C2'       -23.6110  -38.4940   -0.1220 C.3       1 RBF         0.1101
     21 O2'       -24.9460  -38.0290   -0.3910 O.3       1 RBF        -0.3865
     22 C3'       -22.8960  -39.2060   -1.2770 C.3       1 RBF         0.1114
     23 O3'       -21.8440  -38.4110   -1.8410 O.3       1 RBF        -0.3865
     24 C4'       -23.7940  -39.6010   -2.4120 C.3       1 RBF         0.1065
     25 O4'       -24.9780  -40.1090   -1.8300 O.3       1 RBF        -0.3869
     26 C5'       -23.0700  -40.6730   -3.2280 C.3       1 RBF         0.0727
     27 O5'       -21.8480  -40.1040   -3.7420 O.3       1 RBF        -0.3924
     28 H         -27.9373  -38.2772    4.9643 H         1 RBF         0.2248
     29 H         -21.0836  -37.5217    5.8646 H         1 RBF         0.0564
     30 H         -17.9762  -38.6092    4.8931 H         1 RBF         0.0366
     31 H         -18.1043  -36.9363    4.2965 H         1 RBF         0.0366
     32 H         -18.8178  -37.3786    5.8669 H         1 RBF         0.0366
     33 H         -18.0949  -37.8275    1.9519 H         1 RBF         0.0395
     34 H         -18.0163  -39.5030    2.5500 H         1 RBF         0.0395
     35 H         -18.8536  -39.1420    1.0204 H         1 RBF         0.0395
     36 H         -21.1301  -39.2653    1.1503 H         1 RBF         0.0493
     37 H         -24.6154  -40.0754    0.8517 H         1 RBF         0.0631
     38 H         -22.8142  -40.2298    0.7778 H         1 RBF         0.0631
     39 H         -23.0792  -37.5772    0.1326 H         1 RBF         0.0647
     40 H         -25.4833  -38.7627   -0.6984 H         1 RBF         0.2100
     41 H         -22.5015  -40.1055   -0.8045 H         1 RBF         0.0647
     42 H         -21.4271  -38.8955   -2.5572 H         1 RBF         0.2100
     43 H         -24.0384  -38.7701   -3.0738 H         1 RBF         0.0643
     44 H         -25.3859  -39.4277   -1.2906 H         1 RBF         0.2100
     45 H         -23.7021  -41.0062   -4.0511 H         1 RBF         0.0584
     46 H         -22.8453  -41.5337   -2.5980 H         1 RBF         0.0584
     47 H         -21.2964  -39.8187   -3.0099 H         1 RBF         0.2095
@<TRIPOS>BOND
     1    1    2 1  
     2    1   18 2  
     3    2    3 2  
     4    2    4 am 
     5    4    5 am 
     6    5    6 2  
     7    5    7 1  
     8    7    8 2  
     9    7   18 1  
    10    8    9 1  
    11    9   10 ar 
    12    9   16 ar 
    13   10   11 ar 
    14   11   12 1  
    15   11   13 ar 
    16   13   14 1  
    17   13   15 ar 
    18   15   16 ar 
    19   16   17 1  
    20   17   18 1  
    21   17   19 1  
    22   19   20 1  
    23   20   21 1  
    24   20   22 1  
    25   22   23 1  
    26   22   24 1  
    27   24   25 1  
    28   24   26 1  
    29   26   27 1  
    30    4   28 1  
    31   10   29 1  
    32   12   30 1  
    33   12   31 1  
    34   12   32 1  
    35   14   33 1  
    36   14   34 1  
    37   14   35 1  
    38   15   36 1  
    39   19   37 1  
    40   19   38 1  
    41   20   39 1  
    42   21   40 1  
    43   22   41 1  
    44   23   42 1  
    45   24   43 1  
    46   25   44 1  
    47   26   45 1  
    48   26   46 1  
    49   27   47 1  
@<TRIPOS>SUBSTRUCTURE
     1 RBF         1

