### 
### Created by X-TOOL on Sun Sep  9 21:50:45 2018
### 

@<TRIPOS>MOLECULE
2vxj_ligand
   66    68     1     0     0
SMALL
GAST_HUCK


@<TRIPOS>ATOM
      1 C1         17.5030  -26.7530  114.9340 C.3       1 NON         0.1884
      2 C2         17.2490  -25.4530  114.2370 C.3       1 NON         0.1341
      3 C3         17.2360  -25.6190  112.7100 C.3       1 NON         0.1141
      4 C4         18.5290  -26.2850  112.2230 C.3       1 NON         0.1119
      5 C5         18.7630  -27.5650  113.0480 C.3       1 NON         0.1130
      6 C6         20.0510  -28.2690  112.6570 C.3       1 NON         0.0730
      7 O2         16.0400  -24.9790  114.7490 O.3       1 NON        -0.3841
      8 O3         17.0790  -24.3870  112.1050 O.3       1 NON        -0.3864
      9 O4         19.5930  -25.3600  112.3180 O.3       1 NON        -0.3865
     10 O5         18.7130  -27.3180  114.4440 O.3       1 NON        -0.3405
     11 O6         20.1280  -29.5580  113.2190 O.3       1 NON        -0.3924
     12 C1         15.5400  -30.6020  117.0480 C.3       1 NON         0.1884
     13 C2         16.0930  -29.8150  115.8520 C.3       1 NON         0.1345
     14 C3         16.0590  -28.2890  116.0550 C.3       1 NON         0.1206
     15 C4         14.6940  -27.8700  116.6350 C.3       1 NON         0.1123
     16 C5         14.3880  -28.7620  117.8440 C.3       1 NON         0.1130
     17 C6         13.1620  -28.3200  118.6300 C.3       1 NON         0.0730
     18 O2         17.4220  -30.2340  115.5910 O.3       1 NON        -0.3841
     19 O3         16.3090  -27.5870  114.8340 O.3       1 NON        -0.3401
     20 O4         13.6960  -28.0490  115.6590 O.3       1 NON        -0.3865
     21 O5         14.2780  -30.1160  117.3960 O.3       1 NON        -0.3405
     22 O6         13.4370  -28.5440  120.0190 O.3       1 NON        -0.3924
     23 C2         13.8250  -34.6700  118.6510 C.3       1 NON         0.1339
     24 C3         14.0020  -33.6020  117.5660 C.3       1 NON         0.1144
     25 C4         15.2690  -32.7640  117.8430 C.3       1 NON         0.1184
     26 C5         16.5030  -33.6510  118.0630 C.3       1 NON         0.1134
     27 C6         17.8080  -32.9110  118.3760 C.3       1 NON         0.0730
     28 C1         15.1330  -35.4210  118.8470 C.3       1 NON         0.1854
     29 O1         14.9560  -36.2370  119.9940 O.3       1 NON        -0.3649
     30 O2         12.8280  -35.6240  118.3170 O.3       1 NON        -0.3841
     31 O3         12.8740  -32.7720  117.6010 O.3       1 NON        -0.3864
     32 O4         15.4920  -31.9800  116.7330 O.3       1 NON        -0.3401
     33 O5         16.2190  -34.5410  119.1100 O.3       1 NON        -0.3407
     34 O6         17.6410  -32.0530  119.4860 O.3       1 NON        -0.3924
     35 H1         17.6587  -26.5467  116.0032 H         1 NON         0.0938
     36 H2         18.0487  -24.7419  114.4915 H         1 NON         0.0671
     37 H3         16.3859  -26.2599  112.4334 H         1 NON         0.0648
     38 H4         18.4132  -26.5695  111.1668 H         1 NON         0.0647
     39 H5         17.9365  -28.2517  112.8130 H         1 NON         0.0647
     40 H6         20.9052  -27.6734  113.0114 H         1 NON         0.0584
     41 H7         20.0928  -28.3543  111.5611 H         1 NON         0.0584
     42 H8         15.3447  -25.5889  114.5321 H         1 NON         0.2101
     43 H9         16.2760  -23.9840  112.4136 H         1 NON         0.2100
     44 H10        20.3921  -25.7645  112.0011 H         1 NON         0.2100
     45 H11        19.3954  -30.0799  112.9132 H         1 NON         0.2095
     46 H12        16.2150  -30.4635  117.9054 H         1 NON         0.0938
     47 H13        15.4717  -30.0514  114.9756 H         1 NON         0.0671
     48 H14        16.8452  -28.0185  116.7753 H         1 NON         0.0651
     49 H15        14.7258  -26.8151  116.9450 H         1 NON         0.0647
     50 H16        15.2469  -28.7009  118.5285 H         1 NON         0.0647
     51 H17        12.2855  -28.9085  118.3210 H         1 NON         0.0584
     52 H18        12.9674  -27.2519  118.4532 H         1 NON         0.0584
     53 H19        17.7398  -29.8045  114.8055 H         1 NON         0.2101
     54 H20        13.8849  -27.4966  114.9095 H         1 NON         0.2100
     55 H21        13.6084  -29.4674  120.1618 H         1 NON         0.2095
     56 H22        13.5425  -34.1717  119.5901 H         1 NON         0.0671
     57 H23        14.0869  -34.0810  116.5794 H         1 NON         0.0648
     58 H24        15.1085  -32.1338  118.7302 H         1 NON         0.0651
     59 H25        16.6658  -34.2271  117.1402 H         1 NON         0.0647
     60 H26        18.1043  -32.3150  117.5002 H         1 NON         0.0584
     61 H27        18.5945  -33.6458  118.6026 H         1 NON         0.0584
     62 H28        15.3543  -36.0318  117.9593 H         1 NON         0.0935
     63 H29        14.2344  -36.8370  119.8462 H         1 NON         0.2126
     64 H30        12.7457  -36.2547  119.0227 H         1 NON         0.2101
     65 H31        12.9583  -32.0969  116.9380 H         1 NON         0.2100
     66 H32        17.3877  -32.5648  120.2452 H         1 NON         0.2095
@<TRIPOS>BOND
     1    1    2 1  
     2    1   10 1  
     3   19    1 1  
     4    2    3 1  
     5    2    7 1  
     6    3    4 1  
     7    3    8 1  
     8    5    4 1  
     9    4    9 1  
    10    5    6 1  
    11   10    5 1  
    12    6   11 1  
    13   12   13 1  
    14   12   21 1  
    15   32   12 1  
    16   13   14 1  
    17   13   18 1  
    18   14   15 1  
    19   14   19 1  
    20   16   15 1  
    21   15   20 1  
    22   16   17 1  
    23   21   16 1  
    24   17   22 1  
    25   24   23 1  
    26   23   28 1  
    27   23   30 1  
    28   25   24 1  
    29   24   31 1  
    30   25   26 1  
    31   25   32 1  
    32   26   27 1  
    33   26   33 1  
    34   27   34 1  
    35   28   29 1  
    36   28   33 1  
    37    1   35 1  
    38    2   36 1  
    39    3   37 1  
    40    4   38 1  
    41    5   39 1  
    42    6   40 1  
    43    6   41 1  
    44    7   42 1  
    45    8   43 1  
    46    9   44 1  
    47   11   45 1  
    48   12   46 1  
    49   13   47 1  
    50   14   48 1  
    51   15   49 1  
    52   16   50 1  
    53   17   51 1  
    54   17   52 1  
    55   18   53 1  
    56   20   54 1  
    57   22   55 1  
    58   23   56 1  
    59   24   57 1  
    60   25   58 1  
    61   26   59 1  
    62   27   60 1  
    63   27   61 1  
    64   28   62 1  
    65   29   63 1  
    66   30   64 1  
    67   31   65 1  
    68   34   66 1  
@<TRIPOS>SUBSTRUCTURE
     1 NON         1

