### 
### Created by X-TOOL on Mon Sep 10 21:12:58 2018
### 

@<TRIPOS>MOLECULE
2vyt_ligand
   28    27     1     0     0
SMALL
GAST_HUCK


@<TRIPOS>ATOM
      1 N          17.6830   40.2970   48.9730 N.4       1 MLZ         0.2327
      2 CA         17.3700   41.6580   49.3880 C.3       1 MLZ         0.0283
      3 CB         17.0690   41.6900   50.8880 C.3       1 MLZ         0.0026
      4 CG         16.7250   43.0640   51.4300 C.3       1 MLZ        -0.0416
      5 CD         16.2240   42.9580   52.8560 C.3       1 MLZ        -0.0123
      6 CE         15.8760   44.3210   53.4210 C.3       1 MLZ        -0.0339
      7 NZ         15.3350   44.2160   54.8090 N.4       1 MLZ         0.2248
      8 CM         15.1190   45.6160   55.2690 C.3       1 MLZ        -0.0449
      9 C          18.5230   42.6010   49.0710 C.2       1 MLZ         0.0844
     10 O          18.2460   43.7070   48.5550 O.co2     1 MLZ        -0.5643
     11 OXT        19.6860   42.2240   49.3410 O.co2     1 MLZ        -0.5643
     12 H1         16.9071   39.6920   49.1923 H         1 MLZ         0.2010
     13 H2         18.5059   39.9780   49.4600 H         1 MLZ         0.2010
     14 H3         17.8525   40.2792   47.9795 H         1 MLZ         0.2010
     15 H4         16.4784   41.9962   48.8397 H         1 MLZ         0.1024
     16 H5         17.9555   41.3209   51.4245 H         1 MLZ         0.0339
     17 H6         16.2178   41.0209   51.0822 H         1 MLZ         0.0339
     18 H7         15.9419   43.5155   50.8032 H         1 MLZ         0.0270
     19 H8         17.6236   43.6981   51.4076 H         1 MLZ         0.0270
     20 H9         17.0081   42.5019   53.4782 H         1 MLZ         0.0317
     21 H10        15.3260   42.3230   52.8739 H         1 MLZ         0.0317
     22 H11        15.1189   44.7923   52.7770 H         1 MLZ         0.0814
     23 H12        16.7828   44.9435   53.4370 H         1 MLZ         0.0814
     24 H13        15.9962   43.7479   55.4087 H         1 MLZ         0.2011
     25 H14        14.4640   43.7087   54.8085 H         1 MLZ         0.2011
     26 H15        14.7180   45.6076   56.2933 H         1 MLZ         0.0777
     27 H16        14.4037   46.1158   54.5993 H         1 MLZ         0.0777
     28 H17        16.0758   46.1586   55.2543 H         1 MLZ         0.0777
@<TRIPOS>BOND
     1    1    2 1  
     2    2    3 1  
     3    2    9 1  
     4    3    4 1  
     5    4    5 1  
     6    5    6 1  
     7    6    7 1  
     8    7    8 1  
     9    9   10 ar 
    10    9   11 ar 
    11    1   12 1  
    12    1   13 1  
    13    1   14 1  
    14    2   15 1  
    15    3   16 1  
    16    3   17 1  
    17    4   18 1  
    18    4   19 1  
    19    5   20 1  
    20    5   21 1  
    21    6   22 1  
    22    6   23 1  
    23    7   24 1  
    24    7   25 1  
    25    8   26 1  
    26    8   27 1  
    27    8   28 1  
@<TRIPOS>SUBSTRUCTURE
     1 MLZ         1

