### 
### Created by X-TOOL on Mon Sep 10 21:13:00 2018
### 

@<TRIPOS>MOLECULE
2vzr_ligand
   22    22     1     0     0
SMALL
GAST_HUCK


@<TRIPOS>ATOM
      1 C1         18.1230    7.6630   54.1910 C.3       1 GCU         0.1873
      2 C2         18.9430    6.6720   53.3530 C.3       1 GCU         0.1342
      3 C3         19.1000    7.1960   51.9290 C.3       1 GCU         0.1156
      4 C4         17.7280    7.4440   51.3270 C.3       1 GCU         0.1214
      5 C5         16.9280    8.4340   52.1910 C.3       1 GCU         0.1420
      6 C6         15.5060    8.6150   51.6540 C.2       1 GCU         0.0663
      7 O1         18.8820    8.8400   54.3660 O.3       1 GCU        -0.3648
      8 O2         20.2170    6.4440   53.9160 O.3       1 GCU        -0.3841
      9 O3         19.8240    6.2730   51.1420 O.3       1 GCU        -0.3863
     10 O4         17.8760    7.8940   49.9960 O.3       1 GCU        -0.3848
     11 O5         16.8800    7.9730   53.5480 O.3       1 GCU        -0.3287
     12 O6A        15.3140    8.8920   50.4400 O.co2     1 GCU        -0.5662
     13 O6B        14.5580    8.4550   52.4490 O.co2     1 GCU        -0.5662
     14 H1         17.9127    7.2161   55.1739 H         1 GCU         0.0937
     15 H2         18.4011    5.7153   53.3200 H         1 GCU         0.0671
     16 H3         19.6537    8.1461   51.9577 H         1 GCU         0.0649
     17 H4         17.1783    6.4914   51.3076 H         1 GCU         0.0665
     18 H5         17.4373    9.4087   52.1664 H         1 GCU         0.0794
     19 H6         18.3949    9.4524   54.9046 H         1 GCU         0.2126
     20 H7         20.7059    7.2584   53.9306 H         1 GCU         0.2101
     21 H8         20.6785    6.1286   51.5310 H         1 GCU         0.2100
     22 H9         18.3741    7.2548   49.5003 H         1 GCU         0.2102
@<TRIPOS>BOND
     1    1    2 1  
     2    1    7 1  
     3    1   11 1  
     4    2    3 1  
     5    2    8 1  
     6    3    4 1  
     7    3    9 1  
     8    4    5 1  
     9    4   10 1  
    10    5    6 1  
    11    5   11 1  
    12    6   12 ar 
    13    6   13 ar 
    14    1   14 1  
    15    2   15 1  
    16    3   16 1  
    17    4   17 1  
    18    5   18 1  
    19    7   19 1  
    20    8   20 1  
    21    9   21 1  
    22   10   22 1  
@<TRIPOS>SUBSTRUCTURE
     1 GCU         1

