### 
### Created by X-TOOL on Mon Sep 10 21:12:59 2018
### 

@<TRIPOS>MOLECULE
2w05_ligand
   56    58     1     0     0
SMALL
GAST_HUCK


@<TRIPOS>ATOM
      1 C1         -0.6120   29.7420    8.1750 C.ar      1 FRT         0.0655
      2 N2          0.3870   29.0570    7.5420 N.ar      1 FRT        -0.2561
      3 C3          1.2800   29.7190    6.7870 C.ar      1 FRT         0.2015
      4 N4          1.2800   31.0390    6.5910 N.ar      1 FRT        -0.2601
      5 C5          0.3220   31.7720    7.1860 C.ar      1 FRT         0.0070
      6 C6         -0.6740   31.1800    8.0040 C.ar      1 FRT        -0.0225
      7 N7          2.2870   28.8850    6.1710 N.pl3     1 FRT        -0.2430
      8 C8          3.0700   27.7270    6.5550 C.ar      1 FRT         0.0655
      9 C9          2.9200   27.0490    7.8080 C.ar      1 FRT        -0.0363
     10 C10         3.7200   25.9270    8.1180 C.ar      1 FRT        -0.0448
     11 C11         4.6730   25.4830    7.1750 C.ar      1 FRT         0.0965
     12 C12         4.8470   26.1280    5.9280 C.ar      1 FRT        -0.0448
     13 C13         4.0420   27.2530    5.6210 C.ar      1 FRT        -0.0363
     14 S14         5.6590   24.1120    7.5580 S.o2      1 FRT         0.0632
     15 N15         4.7450   23.0880    8.6240 N.am      1 FRT        -0.2464
     16 C16         4.2800   21.8560    7.9530 C.3       1 FRT         0.0498
     17 C17         3.4970   20.9690    8.9230 C.3       1 FRT         0.0641
     18 O18         3.0660   19.7760    8.2400 O.3       1 FRT        -0.3814
     19 C19         2.3130   18.8540    9.0630 C.3       1 FRT         0.0365
     20 C20        -1.5680   29.0270    8.9950 C.2       1 FRT         0.0972
     21 N21        -1.3470   27.8240    9.7550 N.pl3     1 FRT        -0.2333
     22 C22        -2.6540   27.6920   10.3070 C.2       1 FRT         0.1219
     23 N23        -3.6280   28.6070   10.0110 N.2       1 FRT        -0.3184
     24 C24        -2.9270   29.4440    9.1830 C.2       1 FRT        -0.0085
     25 C25        -0.0740   26.9880    9.9180 C.3       1 FRT         0.0632
     26 C26         0.4320   26.9880   11.3740 C.3       1 FRT        -0.0348
     27 C27        -0.2660   25.5370    9.4020 C.3       1 FRT        -0.0348
     28 C28        -3.1040   26.5640   11.2600 C.3       1 FRT         0.0165
     29 O29         6.0130   23.3090    6.2270 O.2       1 FRT        -0.1518
     30 O30         6.9850   24.5790    8.3040 O.2       1 FRT        -0.1518
     31 H1          0.3108   32.8455    7.0361 H         1 FRT         0.0867
     32 H2         -1.4455   31.7751    8.4791 H         1 FRT         0.0631
     33 H3          2.5042   29.1927    5.2123 H         1 FRT         0.2177
     34 H4          2.1862   27.4001    8.5244 H         1 FRT         0.0537
     35 H5          3.6042   25.4141    9.0660 H         1 FRT         0.0607
     36 H6          5.5838   25.7677    5.2192 H         1 FRT         0.0607
     37 H7          4.1646   27.7582    4.6698 H         1 FRT         0.0537
     38 H8          4.5555   23.3071    9.5811 H         1 FRT         0.1672
     39 H9          5.1514   21.2988    7.5787 H         1 FRT         0.0498
     40 H10         3.6293   22.1290    7.1092 H         1 FRT         0.0498
     41 H11         2.6183   21.5172    9.2937 H         1 FRT         0.0576
     42 H12         4.1419   20.6938    9.7705 H         1 FRT         0.0576
     43 H13         2.0266   17.9773    8.4635 H         1 FRT         0.0523
     44 H14         1.4075   19.3531    9.4385 H         1 FRT         0.0523
     45 H15         2.9325   18.5307    9.9125 H         1 FRT         0.0523
     46 H16        -3.3558   30.3304    8.7178 H         1 FRT         0.0571
     47 H17         0.7048   27.4573    9.2990 H         1 FRT         0.0644
     48 H18         1.3445   26.3778   11.4450 H         1 FRT         0.0259
     49 H19        -0.3428   26.5668   12.0315 H         1 FRT         0.0259
     50 H20         0.6555   28.0193   11.6845 H         1 FRT         0.0259
     51 H21         0.6687   24.9731    9.5372 H         1 FRT         0.0259
     52 H22        -0.5295   25.5594    8.3343 H         1 FRT         0.0259
     53 H23        -1.0732   25.0501    9.9688 H         1 FRT         0.0259
     54 H24        -4.1608   26.7103   11.5280 H         1 FRT         0.0483
     55 H25        -2.4882   26.5863   12.1712 H         1 FRT         0.0483
     56 H26        -2.9838   25.5917   10.7599 H         1 FRT         0.0483
@<TRIPOS>BOND
     1    1    2 ar 
     2    1    6 ar 
     3    1   20 1  
     4    2    3 ar 
     5    3    4 ar 
     6    3    7 1  
     7    4    5 ar 
     8    5    6 ar 
     9    7    8 1  
    10    8    9 ar 
    11    8   13 ar 
    12    9   10 ar 
    13   10   11 ar 
    14   11   12 ar 
    15   11   14 1  
    16   12   13 ar 
    17   14   15 am 
    18   14   29 2  
    19   14   30 2  
    20   15   16 1  
    21   16   17 1  
    22   17   18 1  
    23   18   19 1  
    24   20   21 1  
    25   20   24 2  
    26   21   22 1  
    27   21   25 1  
    28   22   23 2  
    29   22   28 1  
    30   23   24 1  
    31   25   26 1  
    32   25   27 1  
    33    5   31 1  
    34    6   32 1  
    35    7   33 1  
    36    9   34 1  
    37   10   35 1  
    38   12   36 1  
    39   13   37 1  
    40   15   38 1  
    41   16   39 1  
    42   16   40 1  
    43   17   41 1  
    44   17   42 1  
    45   19   43 1  
    46   19   44 1  
    47   19   45 1  
    48   24   46 1  
    49   25   47 1  
    50   26   48 1  
    51   26   49 1  
    52   26   50 1  
    53   27   51 1  
    54   27   52 1  
    55   27   53 1  
    56   28   54 1  
    57   28   55 1  
    58   28   56 1  
@<TRIPOS>SUBSTRUCTURE
     1 FRT         1

