### 
### Created by X-TOOL on Mon Sep 10 21:12:58 2018
### 

@<TRIPOS>MOLECULE
2w06_ligand
   47    50     1     0     0
SMALL
GAST_HUCK


@<TRIPOS>ATOM
      1 C13         4.8570   29.1990    6.0270 C.ar      1 FRV        -0.0363
      2 N21        -1.4650   29.7980   10.6100 N.pl3     1 FRV        -0.2328
      3 C25        -2.6740   30.6740   10.7880 C.3       1 FRV         0.0690
      4 C22        -1.3900   28.5640   11.2680 C.2       1 FRV         0.1219
      5 C28        -2.4390   27.9550   12.1840 C.3       1 FRV         0.0165
      6 C26        -3.3230   31.2010    9.5000 C.3       1 FRV        -0.0197
      7 C6         -0.0590   32.2630    8.9010 C.ar      1 FRV        -0.0225
      8 C1          0.3340   30.9190    9.0050 C.ar      1 FRV         0.0655
      9 C20        -0.2630   29.9100    9.9010 C.2       1 FRV         0.0972
     10 C24         0.4340   28.7370   10.1680 C.2       1 FRV        -0.0085
     11 C5          0.6460   33.1060    8.0000 C.ar      1 FRV         0.0070
     12 C8          3.8290   29.5840    6.9050 C.ar      1 FRV         0.0655
     13 C3          2.0660   31.3000    7.3620 C.ar      1 FRV         0.2015
     14 N2          1.3780   30.5030    8.2340 N.ar      1 FRV        -0.2561
     15 C16         4.5840   23.8680    7.7490 C.3       1 FRV         0.0150
     16 C9          3.5800   28.7730    8.0690 C.ar      1 FRV        -0.0363
     17 C10         4.3620   27.6270    8.3170 C.ar      1 FRV        -0.0448
     18 C11         5.4010   27.2700    7.4120 C.ar      1 FRV         0.0965
     19 O30         6.8320   25.3280    6.4470 O.2       1 FRV        -0.1518
     20 S14         6.3720   25.8750    7.7030 S.o2      1 FRV         0.0629
     21 O29         7.5070   26.2770    8.5100 O.2       1 FRV        -0.1518
     22 N15         5.4520   24.6480    8.5960 N.am      1 FRV        -0.2517
     23 C12         5.6390   28.0530    6.2750 C.ar      1 FRV        -0.0448
     24 N7          3.0800   30.7470    6.6460 N.pl3     1 FRV        -0.2430
     25 N4          1.6730   32.5920    7.2770 N.ar      1 FRV        -0.2601
     26 N23        -0.2780   27.9560   10.9970 N.2       1 FRV        -0.3184
     27 C30        -2.9320   32.1450   10.6420 C.3       1 FRV        -0.0197
     28 H1          5.0520   29.7947    5.1426 H         1 FRV         0.0537
     29 H2         -3.2938   30.1793   11.5503 H         1 FRV         0.0650
     30 H3         -2.0869   26.9777   12.5458 H         1 FRV         0.0483
     31 H4         -3.3791   27.8233   11.6283 H         1 FRV         0.0483
     32 H5         -2.6101   28.6232   13.0409 H         1 FRV         0.0483
     33 H6         -4.3829   30.9954    9.2896 H         1 FRV         0.0296
     34 H7         -2.7566   31.2080    8.5571 H         1 FRV         0.0296
     35 H8         -0.8806   32.6484    9.4939 H         1 FRV         0.0631
     36 H9          1.4141   28.4878    9.7640 H         1 FRV         0.0571
     37 H10         0.3666   34.1477    7.8915 H         1 FRV         0.0867
     38 H11         4.0441   23.1287    8.3589 H         1 FRV         0.0439
     39 H12         5.1846   23.3475    6.9886 H         1 FRV         0.0439
     40 H13         3.8611   24.5327    7.2535 H         1 FRV         0.0439
     41 H14         2.7879   29.0452    8.7571 H         1 FRV         0.0537
     42 H15         4.1727   27.0192    9.1944 H         1 FRV         0.0607
     43 H16         5.5277   24.5117    9.5838 H         1 FRV         0.1668
     44 H17         6.4270   27.7766    5.5838 H         1 FRV         0.0607
     45 H18         3.3385   31.2536    5.7873 H         1 FRV         0.2177
     46 H19        -2.0882   32.8390   10.5143 H         1 FRV         0.0296
     47 H20        -3.7145   32.6265   11.2468 H         1 FRV         0.0296
@<TRIPOS>BOND
     1    1   12 ar 
     2   23    1 ar 
     3    2    3 1  
     4    2    4 1  
     5    9    2 1  
     6    3    6 1  
     7    3   27 1  
     8    4    5 1  
     9   26    4 2  
    10   27    6 1  
    11    8    7 ar 
    12   11    7 ar 
    13    8    9 1  
    14   14    8 ar 
    15    9   10 2  
    16   10   26 1  
    17   25   11 ar 
    18   16   12 ar 
    19   12   24 1  
    20   13   14 ar 
    21   24   13 1  
    22   13   25 ar 
    23   22   15 1  
    24   17   16 ar 
    25   18   17 ar 
    26   20   18 1  
    27   18   23 ar 
    28   20   19 2  
    29   20   21 2  
    30   20   22 am 
    31    1   28 1  
    32    3   29 1  
    33    5   30 1  
    34    5   31 1  
    35    5   32 1  
    36    6   33 1  
    37    6   34 1  
    38    7   35 1  
    39   10   36 1  
    40   11   37 1  
    41   15   38 1  
    42   15   39 1  
    43   15   40 1  
    44   16   41 1  
    45   17   42 1  
    46   22   43 1  
    47   23   44 1  
    48   24   45 1  
    49   27   46 1  
    50   27   47 1  
@<TRIPOS>SUBSTRUCTURE
     1 FRV         1

