### 
### Created by X-TOOL on Mon Sep 10 21:13:00 2018
### 

@<TRIPOS>MOLECULE
2w0d_ligand
   50    51     1     0     0
SMALL
GAST_HUCK


@<TRIPOS>ATOM
      1 N1        -13.5230   26.0670  -24.3240 N.am      1 CGS        -0.2008
      2 CC        -12.7650   26.2880  -25.5890 C.3       1 CGS         0.0721
      3 CA        -12.7270   25.9980  -23.0720 C.3       1 CGS         0.1355
      4 S4        -15.1290   25.7660  -24.2430 S.o2      1 CGS         0.0697
      5 C5        -13.0300   27.6000  -26.3120 C.ar      1 CGS         0.0038
      6 CD        -13.9850   27.6540  -27.3340 C.ar      1 CGS        -0.0389
      7 CE        -14.2390   28.8620  -27.9930 C.ar      1 CGS        -0.0404
      8 CZ        -13.5190   30.0070  -27.6500 C.ar      1 CGS         0.0042
      9 N11       -12.5710   29.9610  -26.6420 N.ar      1 CGS        -0.3044
     10 CY        -12.3180   28.7610  -25.9890 C.ar      1 CGS         0.0141
     11 C17       -15.3350   24.0430  -24.5130 C.ar      1 CGS         0.0975
     12 CE2       -15.5550   23.5380  -25.7880 C.ar      1 CGS        -0.0440
     13 CD2       -15.7170   22.1630  -25.9590 C.ar      1 CGS        -0.0313
     14 C20       -15.6580   21.3020  -24.8580 C.ar      1 CGS         0.0908
     15 CD1       -15.4300   21.8100  -23.5910 C.ar      1 CGS        -0.0313
     16 CE1       -15.2720   23.1810  -23.4220 C.ar      1 CGS        -0.0440
     17 O27       -15.8130   19.9490  -25.0190 O.3       1 CGS        -0.3212
     18 COM       -16.0500   19.3930  -26.3180 C.3       1 CGS         0.0594
     19 O32       -15.8080   26.4700  -25.2830 O.2       1 CGS        -0.1512
     20 O33       -15.5380   26.0370  -22.8950 O.2       1 CGS        -0.1512
     21 C34       -12.0020   24.6730  -22.9740 C.2       1 CGS         0.2213
     22 N35       -12.1370   23.9740  -21.8540 N.am      1 CGS        -0.1626
     23 CB        -11.7200   27.1500  -22.9200 C.3       1 CGS        -0.0093
     24 CG2       -12.3880   28.5000  -22.6490 C.3       1 CGS        -0.0588
     25 CG1       -10.6960   26.8770  -21.8110 C.3       1 CGS        -0.0588
     26 O47       -11.3210   24.2820  -23.9050 O.2       1 CGS        -0.3948
     27 O48       -11.6180   22.6770  -21.7730 O.3       1 CGS        -0.2717
     28 H1        -13.0167   25.4686  -26.2783 H         1 CGS         0.0659
     29 H2        -11.6924   26.2484  -25.3485 H         1 CGS         0.0659
     30 H3        -13.4334   26.0635  -22.2313 H         1 CGS         0.0760
     31 H4        -14.5283   26.7591  -27.6152 H         1 CGS         0.0678
     32 H5        -14.9943   28.9083  -28.7692 H         1 CGS         0.0693
     33 H6        -13.7028   30.9372  -28.1754 H         1 CGS         0.0767
     34 H7        -11.5575   28.7233  -25.2175 H         1 CGS         0.0766
     35 H8        -15.6003   24.2052  -26.6411 H         1 CGS         0.0608
     36 H9        -15.8895   21.7596  -26.9503 H         1 CGS         0.0542
     37 H10       -15.3750   21.1443  -22.7372 H         1 CGS         0.0542
     38 H11       -15.0980   23.5827  -22.4303 H         1 CGS         0.0608
     39 H12       -16.1456   18.3001  -26.2372 H         1 CGS         0.0577
     40 H13       -15.2079   19.6393  -26.9815 H         1 CGS         0.0577
     41 H14       -16.9785   19.8125  -26.7326 H         1 CGS         0.0577
     42 H15       -12.6093   24.3739  -21.0685 H         1 CGS         0.2217
     43 H16       -11.1752   27.2308  -23.8722 H         1 CGS         0.0339
     44 H17       -11.6163   29.2778  -22.5510 H         1 CGS         0.0234
     45 H18       -12.9694   28.4409  -21.7171 H         1 CGS         0.0234
     46 H19       -13.0582   28.7517  -23.4841 H         1 CGS         0.0234
     47 H20       -10.2075   25.9084  -21.9934 H         1 CGS         0.0234
     48 H21       -11.2076   26.8521  -20.8375 H         1 CGS         0.0234
     49 H22        -9.9385   27.6746  -21.8069 H         1 CGS         0.0234
     50 H23       -11.7977   22.3184  -20.9118 H         1 CGS         0.2490
@<TRIPOS>BOND
     1    1    2 1  
     2    1    3 1  
     3    1    4 am 
     4    2    5 1  
     5    3   21 1  
     6    3   23 1  
     7    4   11 1  
     8    4   19 2  
     9    4   20 2  
    10    5    6 ar 
    11    5   10 ar 
    12    6    7 ar 
    13    7    8 ar 
    14    8    9 ar 
    15    9   10 ar 
    16   11   12 ar 
    17   11   16 ar 
    18   12   13 ar 
    19   13   14 ar 
    20   14   15 ar 
    21   14   17 1  
    22   15   16 ar 
    23   17   18 1  
    24   21   22 am 
    25   21   26 2  
    26   22   27 1  
    27   23   24 1  
    28   23   25 1  
    29    2   28 1  
    30    2   29 1  
    31    3   30 1  
    32    6   31 1  
    33    7   32 1  
    34    8   33 1  
    35   10   34 1  
    36   12   35 1  
    37   13   36 1  
    38   15   37 1  
    39   16   38 1  
    40   18   39 1  
    41   18   40 1  
    42   18   41 1  
    43   22   42 1  
    44   23   43 1  
    45   24   44 1  
    46   24   45 1  
    47   24   46 1  
    48   25   47 1  
    49   25   48 1  
    50   25   49 1  
    51   27   50 1  
@<TRIPOS>SUBSTRUCTURE
     1 CGS         1

