### 
### Created by X-TOOL on Mon Sep 10 21:13:01 2018
### 

@<TRIPOS>MOLECULE
2w0j_ligand
   56    57     1     0     0
SMALL
GAST_HUCK


@<TRIPOS>ATOM
      1 NAA        41.4160  -28.0480   -0.1660 N.pl3     1 ZAT        -0.2543
      2 CAK        40.8920  -28.4310    1.0040 C.cat     1 ZAT         0.3489
      3 NAB        40.3830  -27.5060    1.8270 N.pl3     1 ZAT        -0.2543
      4 NAC        40.9140  -29.7350    1.3350 N.2       1 ZAT        -0.1177
      5 NAD        40.4600  -30.0950    2.4220 N.2       1 ZAT        -0.1770
      6 CAL        40.4070  -31.3320    2.9090 C.3       1 ZAT         0.0957
      7 CAM        40.8990  -32.5410    2.1060 C.3       1 ZAT        -0.0328
      8 CAN        39.7360  -31.4320    4.1260 C.ar      1 ZAT        -0.0312
      9 CAS        39.8940  -30.4400    5.0910 C.ar      1 ZAT        -0.0704
     10 CAR        39.1810  -30.5170    6.2820 C.ar      1 ZAT        -0.0463
     11 CAO        38.8260  -32.4690    4.3510 C.ar      1 ZAT        -0.0704
     12 CAP        38.1120  -32.5600    5.5470 C.ar      1 ZAT        -0.0463
     13 CAQ        38.2880  -31.5780    6.5210 C.ar      1 ZAT         0.0632
     14 NAE        37.6450  -31.5640    7.7030 N.am      1 ZAT        -0.2089
     15 CAT        37.0690  -32.6010    8.3470 C.2       1 ZAT         0.3563
     16 OBD        37.0270  -33.7560    7.8750 O.2       1 ZAT        -0.3624
     17 NAF        36.5040  -32.2210    9.5300 N.am      1 ZAT        -0.1677
     18 CAU        35.9090  -33.0090   10.4710 C.ar      1 ZAT         0.1421
     19 CAZ        35.5810  -34.3670   10.3280 C.ar      1 ZAT         0.0134
     20 CAY        34.9960  -35.0630   11.3890 C.ar      1 ZAT        -0.0158
     21 CAV        35.6410  -32.3940   11.6970 C.ar      1 ZAT         0.0134
     22 CAW        35.0630  -33.0910   12.7560 C.ar      1 ZAT        -0.0158
     23 CAX        34.7180  -34.4390   12.6210 C.ar      1 ZAT         0.0525
     24 CBA        34.1270  -35.1110   13.7320 C.2       1 ZAT         0.1284
     25 CBB        33.3300  -36.4180   13.6250 C.3       1 ZAT         0.0088
     26 NAG        34.3360  -34.5680   14.9360 N.2       1 ZAT        -0.1119
     27 NAH        33.9460  -35.0110   16.0280 N.pl3     1 ZAT        -0.1959
     28 CBC        34.2300  -34.3560   17.1740 C.cat     1 ZAT         0.1646
     29 NAJ        33.7910  -34.7870   18.3390 N.pl3     1 ZAT        -0.3517
     30 NAI        34.9560  -33.2450   17.1820 N.pl3     1 ZAT        -0.3517
     31 H1         41.4067  -27.0534   -0.4335 H         1 ZAT         0.3197
     32 H2         41.8287  -28.7478   -0.7992 H         1 ZAT         0.3197
     33 H3         39.9768  -27.7881    2.7305 H         1 ZAT         0.3197
     34 H4         40.3976  -26.5122    1.5567 H         1 ZAT         0.3197
     35 H5         41.3859  -31.2388    3.4020 H         1 ZAT         0.0696
     36 H6         40.7605  -33.4565    2.6999 H         1 ZAT         0.0270
     37 H7         41.9660  -32.4149    1.8701 H         1 ZAT         0.0270
     38 H8         40.3236  -32.6195    1.1718 H         1 ZAT         0.0270
     39 H9         40.5701  -29.6114    4.9141 H         1 ZAT         0.0523
     40 H10        39.3147  -29.7499    7.0362 H         1 ZAT         0.0491
     41 H11        38.6718  -33.2170    3.5817 H         1 ZAT         0.0523
     42 H12        37.4288  -33.3844    5.7165 H         1 ZAT         0.0491
     43 H13        37.5868  -30.6766    8.1603 H         1 ZAT         0.2264
     44 H14        36.5295  -31.2420    9.7322 H         1 ZAT         0.2782
     45 H15        35.7821  -34.8764    9.3925 H         1 ZAT         0.0740
     46 H16        34.7496  -36.1108   11.2607 H         1 ZAT         0.0789
     47 H17        35.8894  -31.3469   11.8275 H         1 ZAT         0.0740
     48 H18        34.8787  -32.5822   13.6953 H         1 ZAT         0.0789
     49 H19        32.9862  -36.7207   14.6251 H         1 ZAT         0.0483
     50 H20        33.9722  -37.2057   13.2042 H         1 ZAT         0.0483
     51 H21        32.4603  -36.2645   12.9692 H         1 ZAT         0.0483
     52 H22        33.4017  -35.8848   16.0601 H         1 ZAT         0.2458
     53 H23        34.0211  -34.2698   19.1995 H         1 ZAT         0.1655
     54 H24        33.2177  -35.6412   18.3893 H         1 ZAT         0.1655
     55 H25        35.3243  -32.8641   16.2987 H         1 ZAT         0.1655
     56 H26        35.1512  -32.7637   18.0715 H         1 ZAT         0.1655
@<TRIPOS>BOND
     1    1    2 ar 
     2    2    3 ar 
     3    2    4 ar 
     4    4    5 2  
     5    5    6 1  
     6    6    7 1  
     7    6    8 1  
     8    8    9 ar 
     9    8   11 ar 
    10    9   10 ar 
    11   10   13 ar 
    12   11   12 ar 
    13   12   13 ar 
    14   13   14 1  
    15   14   15 am 
    16   15   16 2  
    17   15   17 am 
    18   17   18 1  
    19   18   19 ar 
    20   18   21 ar 
    21   19   20 ar 
    22   20   23 ar 
    23   21   22 ar 
    24   22   23 ar 
    25   23   24 1  
    26   24   25 1  
    27   24   26 2  
    28   26   27 1  
    29   27   28 ar 
    30   28   29 ar 
    31   28   30 ar 
    32    1   31 1  
    33    1   32 1  
    34    3   33 1  
    35    3   34 1  
    36    6   35 1  
    37    7   36 1  
    38    7   37 1  
    39    7   38 1  
    40    9   39 1  
    41   10   40 1  
    42   11   41 1  
    43   12   42 1  
    44   14   43 1  
    45   17   44 1  
    46   19   45 1  
    47   20   46 1  
    48   21   47 1  
    49   22   48 1  
    50   25   49 1  
    51   25   50 1  
    52   25   51 1  
    53   27   52 1  
    54   29   53 1  
    55   29   54 1  
    56   30   55 1  
    57   30   56 1  
@<TRIPOS>SUBSTRUCTURE
     1 ZAT         1

