### 
### Created by X-TOOL on Mon Sep 10 21:13:01 2018
### 

@<TRIPOS>MOLECULE
2w0x_ligand
   15    15     1     0     0
SMALL
GAST_HUCK


@<TRIPOS>ATOM
      1 O42        16.4820   25.7290   29.3780 O.co2     1 PD2        -0.5574
      2 C41        17.4950   25.1540   28.6100 C.2       1 PD2         0.0728
      3 O41        17.1600   24.4080   27.4740 O.co2     1 PD2        -0.5574
      4 C4         18.8860   25.7720   28.7470 C.ar      1 PD2         0.0333
      5 C5         18.9930   26.9360   29.3280 C.ar      1 PD2        -0.0173
      6 C6         20.3620   27.5850   29.5190 C.ar      1 PD2         0.0184
      7 C3         20.1170   25.0760   28.2330 C.ar      1 PD2        -0.0054
      8 C2         21.2850   25.6790   28.4120 C.ar      1 PD2         0.0862
      9 N1         21.4020   26.9880   29.0930 N.ar      1 PD2        -0.2790
     10 C21        22.5390   25.0780   27.8310 C.2       1 PD2         0.0817
     11 O21        23.6750   25.8740   27.7280 O.co2     1 PD2        -0.5572
     12 O22        22.4720   23.8360   27.1880 O.co2     1 PD2        -0.5572
     13 H1         18.1028   27.4461   29.6778 H         1 PD2         0.0763
     14 H2         20.4472   28.5460   30.0132 H         1 PD2         0.0842
     15 H3         20.0518   24.1158   27.7341 H         1 PD2         0.0779
@<TRIPOS>BOND
     1    1    2 ar 
     2    2    3 ar 
     3    2    4 1  
     4    4    5 ar 
     5    4    7 ar 
     6    5    6 ar 
     7    6    9 ar 
     8    7    8 ar 
     9    8    9 ar 
    10    8   10 1  
    11   10   11 ar 
    12   10   12 ar 
    13    5   13 1  
    14    6   14 1  
    15    7   15 1  
@<TRIPOS>SUBSTRUCTURE
     1 PD2         1

