### 
### Created by X-TOOL on Mon Sep 10 21:13:00 2018
### 

@<TRIPOS>MOLECULE
2w0z_ligand
  143   148     1     0     0
SMALL
GAST_HUCK


@<TRIPOS>ATOM
      1 N          22.6840   23.1280    7.9120 N.4       1 ALA         0.2377
      2 CA         22.7030   22.1580    9.0610 C.3       1 ALA         0.0623
      3 C          21.4390   21.2950    9.0070 C.2       1 ALA         0.2289
      4 O          20.4290   21.7520    8.4860 O.2       1 ALA        -0.3905
      5 CB         22.7860   22.8800   10.3470 C.3       1 ALA        -0.0040
      6 N          21.4750   20.0440    9.5340 N.am      1 PRO        -0.2471
      7 CA         20.2220   19.2780    9.4050 C.3       1 PRO         0.1341
      8 C          19.1460   19.8720   10.3310 C.2       1 PRO         0.2066
      9 O          19.4920   20.6510   11.2320 O.2       1 PRO        -0.3942
     10 CB         20.6210   17.8600    9.8440 C.3       1 PRO        -0.0104
     11 CG         21.7870   18.0650   10.7680 C.3       1 PRO        -0.0281
     12 CD         22.5310   19.2730   10.2170 C.3       1 PRO         0.0371
     13 N          17.8650   19.5220   10.1130 N.am      1 PRO        -0.2498
     14 CA         16.7760   20.1470   10.8630 C.3       1 PRO         0.1340
     15 C          16.8510   19.8250   12.3520 C.2       1 PRO         0.2066
     16 O          17.4000   18.7980   12.7390 O.2       1 PRO        -0.3942
     17 CB         15.5240   19.4770   10.2730 C.3       1 PRO        -0.0104
     18 CG         15.9120   18.9890    8.9400 C.3       1 PRO        -0.0281
     19 CD         17.3610   18.6030    9.0700 C.3       1 PRO         0.0369
     20 N          16.2970   20.6990   13.2070 N.am      1 PRO        -0.2498
     21 CA         16.3070   20.3490   14.6380 C.3       1 PRO         0.1338
     22 C          15.5340   19.0710   14.9660 C.2       1 PRO         0.2041
     23 O          14.4660   18.8270   14.3900 O.2       1 PRO        -0.3944
     24 CB         15.6000   21.5430   15.2970 C.3       1 PRO        -0.0104
     25 CG         15.6510   22.6490   14.2460 C.3       1 PRO        -0.0281
     26 CD         15.5740   21.9490   12.9370 C.3       1 PRO         0.0369
     27 N          16.0610   18.2740   15.8810 N.am      1 ARG        -0.2637
     28 CA         15.3300   17.1080   16.3720 C.3       1 ARG         0.1313
     29 C          14.0090   17.6040   16.9770 C.2       1 ARG         0.2064
     30 O          14.0290   18.5250   17.8190 O.2       1 ARG        -0.3942
     31 CB         16.1540   16.3540   17.4210 C.3       1 ARG        -0.0092
     32 CG         17.4980   15.8080   16.9200 C.3       1 ARG        -0.0156
     33 CD         18.4760   15.5190   18.0550 C.3       1 ARG         0.0627
     34 NE         17.8930   14.7180   19.1450 N.pl3     1 ARG        -0.2723
     35 CZ         17.8720   13.3830   19.1960 C.cat     1 ARG         0.2882
     36 NH1        17.2920   12.7730   20.2270 N.pl3     1 ARG        -0.2849
     37 NH2        18.4180   12.6430   18.2350 N.pl3     1 ARG        -0.2849
     38 N          12.8680   17.0120   16.5540 N.am      1 PRO        -0.2498
     39 CA         11.5720   17.4460   17.0660 C.3       1 PRO         0.1340
     40 C          11.3480   16.9390   18.4780 C.2       1 PRO         0.2066
     41 O          12.1130   16.0960   18.9760 O.2       1 PRO        -0.3942
     42 CB         10.5620   16.8440   16.0680 C.3       1 PRO        -0.0104
     43 CG         11.2580   15.7070   15.4140 C.3       1 PRO        -0.0281
     44 CD         12.7480   15.9010   15.5790 C.3       1 PRO         0.0369
     45 N          10.3130   17.4760   19.1510 N.am      1 PRO        -0.2498
     46 CA         10.0850   17.0800   20.5250 C.3       1 PRO         0.1338
     47 C           9.7670   15.5970   20.6190 C.2       1 PRO         0.2041
     48 O           9.0130   15.0540   19.7960 O.2       1 PRO        -0.3944
     49 CB          8.8540   17.9120   20.9380 C.3       1 PRO        -0.0104
     50 CG          8.7640   19.0380   19.9370 C.3       1 PRO        -0.0281
     51 CD          9.3040   18.4400   18.6650 C.3       1 PRO         0.0369
     52 N          10.3530   14.9310   21.6000 N.am      1 LYS        -0.2637
     53 CA          9.8710   13.6000   21.9220 C.3       1 LYS         0.1312
     54 C           8.5530   13.7460   22.6900 C.2       1 LYS         0.2065
     55 O           8.4420   14.6100   23.5740 O.2       1 LYS        -0.3942
     56 CB         10.9090   12.8100   22.6960 C.3       1 LYS        -0.0122
     57 CG         12.1330   12.5180   21.8590 C.3       1 LYS        -0.0440
     58 CD         12.5520   11.0930   21.9460 C.3       1 LYS        -0.0124
     59 CE         13.8240   10.8860   21.1420 C.3       1 LYS        -0.0354
     60 NZ         14.3990    9.5480   21.3640 N.4       1 LYS         0.2185
     61 N           7.5390   12.9380   22.3320 N.am      1 PRO        -0.2511
     62 CA          6.1880   13.0630   22.9210 C.3       1 PRO         0.1156
     63 C           6.1090   12.7540   24.4260 C.2       1 PRO         0.1247
     64 O           7.0470   12.1930   25.0030 O.2       1 PRO        -0.3725
     65 CB          5.3620   12.0440   22.1300 C.3       1 PRO        -0.0117
     66 CG          6.3740   11.0800   21.5590 C.3       1 PRO        -0.0281
     67 CD          7.5950   11.8840   21.2960 C.3       1 PRO         0.0370
     68 H1         23.5136   23.6998    7.9412 H         1 ALA         0.2015
     69 H2         21.8682   23.7159    7.9820 H         1 ALA         0.2015
     70 H3         22.6575   22.6186    7.0426 H         1 ALA         0.2015
     71 H4         23.5845   21.5071    8.9653 H         1 ALA         0.1095
     72 H5         22.7988   22.1551   11.1743 H         1 ALA         0.0310
     73 H6         21.9138   23.5418   10.4529 H         1 ALA         0.0310
     74 H7         23.7072   23.4806   10.3715 H         1 ALA         0.0310
     75 H8         19.8588   19.2801    8.3667 H         1 PRO         0.0802
     76 H9         20.9157   17.2528    8.9754 H         1 PRO         0.0313
     77 H10        19.7899   17.3679   10.3705 H         1 PRO         0.0313
     78 H11        22.4386   17.1788   10.7681 H         1 PRO         0.0287
     79 H12        21.4368   18.2627   11.7918 H         1 PRO         0.0287
     80 H13        22.9839   19.8602   11.0294 H         1 PRO         0.0524
     81 H14        23.3131   18.9636    9.5081 H         1 PRO         0.0524
     82 H15        16.7653   21.2368   10.7138 H         1 PRO         0.0802
     83 H16        14.7046   20.2060   10.1890 H         1 PRO         0.0313
     84 H17        15.2046   18.6380   10.9086 H         1 PRO         0.0313
     85 H18        15.7897   19.7822    8.1877 H         1 PRO         0.0287
     86 H19        15.3042   18.1173    8.6559 H         1 PRO         0.0287
     87 H20        17.4627   17.5543    9.3861 H         1 PRO         0.0524
     88 H21        17.8956   18.7533    8.1205 H         1 PRO         0.0524
     89 H22        17.3413   20.2484   14.9988 H         1 PRO         0.0802
     90 H23        16.1288   21.8513   16.2110 H         1 PRO         0.0313
     91 H24        14.5584   21.2896   15.5437 H         1 PRO         0.0313
     92 H25        16.5915   23.2139   14.3262 H         1 PRO         0.0287
     93 H26        14.7997   23.3351   14.3668 H         1 PRO         0.0287
     94 H27        14.5301   21.7517   12.6517 H         1 PRO         0.0524
     95 H28        16.0670   22.5311   12.1445 H         1 PRO         0.0524
     96 H29        16.9724   18.4723   16.2416 H         1 ARG         0.1883
     97 H30        15.1166   16.4298   15.5327 H         1 ARG         0.0800
     98 H31        15.5538   15.5054   17.7810 H         1 ARG         0.0313
     99 H32        16.3549   17.0415   18.2559 H         1 ARG         0.0313
    100 H33        17.9504   16.5505   16.2462 H         1 ARG         0.0301
    101 H34        17.3147   14.8748   16.3672 H         1 ARG         0.0301
    102 H35        18.8179   16.4776   18.4722 H         1 ARG         0.0689
    103 H36        19.3359   14.9712   17.6423 H         1 ARG         0.0689
    104 H37        17.4670   15.2284   19.9317 H         1 ARG         0.2642
    105 H38        17.2725   11.7442   20.2722 H         1 ARG         0.2615
    106 H39        16.8626   13.3298   20.9797 H         1 ARG         0.2615
    107 H40        18.8712   13.0977   17.4295 H         1 ARG         0.2615
    108 H41        18.3876   11.6153   18.2963 H         1 ARG         0.2615
    109 H42        11.5034   18.5438   17.0651 H         1 PRO         0.0802
    110 H43        10.2711   17.5953   15.3191 H         1 PRO         0.0313
    111 H44         9.6662   16.4891   16.5986 H         1 PRO         0.0313
    112 H45        11.0030   15.6810   14.3443 H         1 PRO         0.0287
    113 H46        10.9518   14.7623   15.8870 H         1 PRO         0.0287
    114 H47        13.2188   14.9870   15.9700 H         1 PRO         0.0524
    115 H48        13.2140   16.1721   14.6202 H         1 PRO         0.0524
    116 H49        10.9558   17.3150   21.1547 H         1 PRO         0.0802
    117 H50         8.9856   18.3124   21.9540 H         1 PRO         0.0313
    118 H51         7.9446   17.2942   20.9023 H         1 PRO         0.0313
    119 H52         9.3755   19.8947   20.2564 H         1 PRO         0.0287
    120 H53         7.7209   19.3610   19.8049 H         1 PRO         0.0287
    121 H54         8.5099   17.9297   18.1002 H         1 PRO         0.0524
    122 H55         9.7671   19.2109   18.0316 H         1 PRO         0.0524
    123 H56        11.1124   15.3359   22.1094 H         1 LYS         0.1883
    124 H57         9.6695   13.0618   20.9841 H         1 LYS         0.0800
    125 H58        10.4633   11.8576   23.0189 H         1 LYS         0.0312
    126 H59        11.2124   13.3910   23.5794 H         1 LYS         0.0312
    127 H60        12.9607   13.1517   22.2102 H         1 LYS         0.0269
    128 H61        11.9083   12.7568   20.8090 H         1 LYS         0.0269
    129 H62        11.7550   10.4517   21.5417 H         1 LYS         0.0317
    130 H63        12.7368   10.8293   22.9978 H         1 LYS         0.0317
    131 H64        14.5620   11.6449   21.4411 H         1 LYS         0.0813
    132 H65        13.5923   11.0012   20.0729 H         1 LYS         0.0813
    133 H66        15.2390    9.4481   20.8158 H         1 LYS         0.1994
    134 H67        13.7315    8.8452   21.0871 H         1 LYS         0.1994
    135 H68        14.6200    9.4351   22.3410 H         1 LYS         0.1994
    136 H69         5.8063   14.0815   22.7567 H         1 PRO         0.0792
    137 H70         5.2186   13.0321   24.9880 H         1 PRO         0.1373
    138 H71         4.8038   12.5415   21.3232 H         1 PRO         0.0314
    139 H72         4.6586   11.5186   22.7926 H         1 PRO         0.0314
    140 H73         5.9976   10.6383   20.6245 H         1 PRO         0.0287
    141 H74         6.5908   10.2795   22.2817 H         1 PRO         0.0287
    142 H75         8.5016   11.2709   21.4064 H         1 PRO         0.0524
    143 H76         7.5687   12.3215   20.2871 H         1 PRO         0.0524
@<TRIPOS>BOND
     1    1    2 1  
     2    2    3 1  
     3    2    5 1  
     4    3    4 2  
     5    3    6 am 
     6    6    7 1  
     7    6   12 1  
     8    7    8 1  
     9    7   10 1  
    10    8    9 2  
    11    8   13 am 
    12   10   11 1  
    13   11   12 1  
    14   13   14 1  
    15   13   19 1  
    16   14   15 1  
    17   14   17 1  
    18   15   16 2  
    19   15   20 am 
    20   17   18 1  
    21   18   19 1  
    22   20   21 1  
    23   20   26 1  
    24   21   22 1  
    25   21   24 1  
    26   22   23 2  
    27   22   27 am 
    28   24   25 1  
    29   25   26 1  
    30   27   28 1  
    31   28   29 1  
    32   28   31 1  
    33   29   30 2  
    34   29   38 am 
    35   31   32 1  
    36   32   33 1  
    37   33   34 1  
    38   34   35 ar 
    39   35   36 ar 
    40   35   37 ar 
    41   38   39 1  
    42   38   44 1  
    43   39   40 1  
    44   39   42 1  
    45   40   41 2  
    46   40   45 am 
    47   42   43 1  
    48   43   44 1  
    49   45   46 1  
    50   45   51 1  
    51   46   47 1  
    52   46   49 1  
    53   47   48 2  
    54   47   52 am 
    55   49   50 1  
    56   50   51 1  
    57   52   53 1  
    58   53   54 1  
    59   53   56 1  
    60   54   55 2  
    61   54   61 am 
    62   56   57 1  
    63   57   58 1  
    64   58   59 1  
    65   59   60 1  
    66   61   62 1  
    67   61   67 1  
    68   62   63 1  
    69   62   65 1  
    70   63   64 2  
    71   65   66 1  
    72   66   67 1  
    73    1   68 1  
    74    1   69 1  
    75    1   70 1  
    76    2   71 1  
    77    5   72 1  
    78    5   73 1  
    79    5   74 1  
    80    7   75 1  
    81   10   76 1  
    82   10   77 1  
    83   11   78 1  
    84   11   79 1  
    85   12   80 1  
    86   12   81 1  
    87   14   82 1  
    88   17   83 1  
    89   17   84 1  
    90   18   85 1  
    91   18   86 1  
    92   19   87 1  
    93   19   88 1  
    94   21   89 1  
    95   24   90 1  
    96   24   91 1  
    97   25   92 1  
    98   25   93 1  
    99   26   94 1  
   100   26   95 1  
   101   27   96 1  
   102   28   97 1  
   103   31   98 1  
   104   31   99 1  
   105   32  100 1  
   106   32  101 1  
   107   33  102 1  
   108   33  103 1  
   109   34  104 1  
   110   36  105 1  
   111   36  106 1  
   112   37  107 1  
   113   37  108 1  
   114   39  109 1  
   115   42  110 1  
   116   42  111 1  
   117   43  112 1  
   118   43  113 1  
   119   44  114 1  
   120   44  115 1  
   121   46  116 1  
   122   49  117 1  
   123   49  118 1  
   124   50  119 1  
   125   50  120 1  
   126   51  121 1  
   127   51  122 1  
   128   52  123 1  
   129   53  124 1  
   130   56  125 1  
   131   56  126 1  
   132   57  127 1  
   133   57  128 1  
   134   58  129 1  
   135   58  130 1  
   136   59  131 1  
   137   59  132 1  
   138   60  133 1  
   139   60  134 1  
   140   60  135 1  
   141   62  136 1  
   142   63  137 1  
   143   65  138 1  
   144   65  139 1  
   145   66  140 1  
   146   66  141 1  
   147   67  142 1  
   148   67  143 1  
@<TRIPOS>SUBSTRUCTURE
     1 ALA         1

