### 
### Created by X-TOOL on Mon Sep 10 21:12:59 2018
### 

@<TRIPOS>MOLECULE
2w17_ligand
   64    67     1     0     0
SMALL
GAST_HUCK


@<TRIPOS>ATOM
      1 C1          0.1740   28.2800   11.7090 C.3       1 I19        -0.0349
      2 C2         -0.2090   28.2300   10.2440 C.3       1 I19         0.0630
      3 C3         -0.2970   26.8120    9.7030 C.3       1 I19        -0.0349
      4 N1         -1.4180   29.0130   10.0590 N.pl3     1 I19        -0.2341
      5 C4         -2.5870   28.7460   10.6610 C.2       1 I19         0.1210
      6 C5         -2.9190   27.6210   11.5880 C.3       1 I19         0.0161
      7 N2         -3.4340   29.6980   10.2750 N.2       1 I19        -0.3199
      8 C6         -2.8300   30.5940    9.4110 C.2       1 I19        -0.0102
      9 C7         -1.5290   30.1630    9.2640 C.2       1 I19         0.0975
     10 C8         -0.4980   30.8190    8.3970 C.ar      1 I19         0.1005
     11 N3          0.4720   30.0520    7.8830 N.ar      1 I19        -0.2569
     12 C9          1.3930   30.6570    7.1190 C.ar      1 I19         0.1994
     13 N4          2.4590   29.9560    6.5220 N.pl3     1 I19        -0.2422
     14 C10         3.1760   28.8200    6.9340 C.ar      1 I19         0.0697
     15 C11         2.9520   28.1620    8.1230 C.ar      1 I19        -0.0323
     16 C12         3.7040   27.0540    8.4590 C.ar      1 I19        -0.0515
     17 C13         4.6780   26.6030    7.5880 C.ar      1 I19         0.0379
     18 C14         4.9410   27.2450    6.3910 C.ar      1 I19        -0.0515
     19 C15         4.1700   28.3550    6.0870 C.ar      1 I19        -0.0323
     20 C16         5.5040   25.4540    7.9260 C.2       1 I19         0.1989
     21 O1          6.7090   25.6620    7.9600 O.2       1 I19        -0.3900
     22 N5          4.9450   24.2200    8.1530 N.am      1 I19        -0.2685
     23 C17         3.6290   23.9730    8.6780 C.3       1 I19         0.0385
     24 C18         3.6590   22.5010    9.0750 C.3       1 I19         0.0125
     25 C19         5.1240   22.1200    9.2560 C.3       1 I19         0.0012
     26 C20         5.8920   23.2030    8.5510 C.3       1 I19         0.0759
     27 N6          5.5400   22.1920   10.6970 N.4       1 I19         0.2345
     28 C21         4.4970   21.8010   11.6840 C.3       1 I19        -0.0430
     29 C22         6.7650   21.3790   10.9480 C.3       1 I19        -0.0430
     30 N7          1.3850   31.9680    6.8370 N.ar      1 I19        -0.2615
     31 C23         0.4110   32.7080    7.3590 C.ar      1 I19         0.0416
     32 C24        -0.5610   32.1790    8.1540 C.ar      1 I19         0.1723
     33 F1         -1.5010   33.0050    8.6410 F         1 I19        -0.1800
     34 H1          1.0894   27.6914   11.8689 H         1 I19         0.0259
     35 H2         -0.6421   27.8609   12.3159 H         1 I19         0.0259
     36 H3          0.3529   29.3240   12.0058 H         1 I19         0.0259
     37 H4          0.5910   28.7282    9.6768 H         1 I19         0.0644
     38 H5         -0.5775   26.8420    8.6398 H         1 I19         0.0259
     39 H6         -1.0567   26.2509   10.2669 H         1 I19         0.0259
     40 H7          0.6795   26.3172    9.8108 H         1 I19         0.0259
     41 H8         -3.9710   27.7007   11.8992 H         1 I19         0.0481
     42 H9         -2.2696   27.6724   12.4743 H         1 I19         0.0481
     43 H10        -2.7608   26.6622   11.0725 H         1 I19         0.0481
     44 H11        -3.2891   31.4632    8.9423 H         1 I19         0.0557
     45 H12         2.7688   30.3467    5.6207 H         1 I19         0.2183
     46 H13         2.1814   28.5158    8.7984 H         1 I19         0.0549
     47 H14         3.5319   26.5416    9.3987 H         1 I19         0.0640
     48 H15         5.7169   26.8945    5.7200 H         1 I19         0.0640
     49 H16         4.3501   28.8780    5.1547 H         1 I19         0.0549
     50 H17         2.8618   24.1553    7.9111 H         1 I19         0.0523
     51 H18         3.4315   24.6097    9.5530 H         1 I19         0.0523
     52 H19         3.2035   21.8867    8.2843 H         1 I19         0.0340
     53 H20         3.1105   22.3521   10.0168 H         1 I19         0.0340
     54 H21         5.3288   21.1234    8.8380 H         1 I19         0.0872
     55 H22         6.6424   23.6339    9.2301 H         1 I19         0.0578
     56 H23         6.3945   22.7901    7.6638 H         1 I19         0.0578
     57 H24         5.7690   23.1565   10.8793 H         1 I19         0.2031
     58 H25         4.9041   21.8894   12.7021 H         1 I19         0.0778
     59 H26         4.1904   20.7606   11.5008 H         1 I19         0.0778
     60 H27         3.6256   22.4640   11.5788 H         1 I19         0.0778
     61 H28         7.5450   21.6583   10.2244 H         1 I19         0.0778
     62 H29         6.5259   20.3112   10.8354 H         1 I19         0.0778
     63 H30         7.1276   21.5679   11.9692 H         1 I19         0.0778
     64 H31         0.3896   33.7703    7.1443 H         1 I19         0.0853
@<TRIPOS>BOND
     1    1    2 1  
     2    2    3 1  
     3    2    4 1  
     4    4    5 1  
     5    4    9 1  
     6    5    6 1  
     7    5    7 2  
     8    7    8 1  
     9    8    9 2  
    10    9   10 1  
    11   10   11 ar 
    12   10   32 ar 
    13   11   12 ar 
    14   12   13 1  
    15   12   30 ar 
    16   13   14 1  
    17   14   15 ar 
    18   14   19 ar 
    19   15   16 ar 
    20   16   17 ar 
    21   17   18 ar 
    22   17   20 1  
    23   18   19 ar 
    24   20   21 2  
    25   20   22 am 
    26   22   23 1  
    27   22   26 1  
    28   23   24 1  
    29   24   25 1  
    30   25   26 1  
    31   25   27 1  
    32   27   28 1  
    33   27   29 1  
    34   30   31 ar 
    35   31   32 ar 
    36   32   33 1  
    37    1   34 1  
    38    1   35 1  
    39    1   36 1  
    40    2   37 1  
    41    3   38 1  
    42    3   39 1  
    43    3   40 1  
    44    6   41 1  
    45    6   42 1  
    46    6   43 1  
    47    8   44 1  
    48   13   45 1  
    49   15   46 1  
    50   16   47 1  
    51   18   48 1  
    52   19   49 1  
    53   23   50 1  
    54   23   51 1  
    55   24   52 1  
    56   24   53 1  
    57   25   54 1  
    58   26   55 1  
    59   26   56 1  
    60   27   57 1  
    61   28   58 1  
    62   28   59 1  
    63   28   60 1  
    64   29   61 1  
    65   29   62 1  
    66   29   63 1  
    67   31   64 1  
@<TRIPOS>SUBSTRUCTURE
     1 I19         1

