### 
### Created by X-TOOL on Mon Sep 10 21:13:02 2018
### 

@<TRIPOS>MOLECULE
2w1c_ligand
   53    57     1     0     0
SMALL
GAST_HUCK


@<TRIPOS>ATOM
      1 F1          8.2320   28.0410    0.9670 F         1 L0C        -0.1795
      2 C2          7.6790   28.2390    2.1790 C.ar      1 L0C         0.1374
      3 C3          7.2850   29.5100    2.5350 C.ar      1 L0C        -0.0224
      4 C4          6.7180   29.7170    3.7750 C.ar      1 L0C        -0.0435
      5 C5          6.5460   28.6450    4.6610 C.ar      1 L0C         0.0500
      6 C6          6.9550   27.3650    4.2790 C.ar      1 L0C        -0.0435
      7 C7          7.5210   27.1640    3.0360 C.ar      1 L0C        -0.0224
      8 C8          5.9350   28.8770    6.0060 C.2       1 L0C         0.2208
      9 O9          5.9010   27.9960    6.8440 O.2       1 L0C        -0.3794
     10 N10         5.4400   30.1110    6.2180 N.am      1 L0C        -0.2489
     11 C11         4.9940   30.6220    7.3960 C.2       1 L0C         0.0939
     12 C12         5.2970   30.2530    8.6510 C.2       1 L0C         0.0641
     13 N13         4.6070   31.0620    9.4760 N.pl3     1 L0C        -0.2299
     14 N15         3.8600   31.9520    8.7920 N.2       1 L0C        -0.2040
     15 C16         4.1040   31.6830    7.5180 C.2       1 L0C         0.1176
     16 C17         3.4470   32.4560    6.4890 C.2       1 L0C         0.1413
     17 N18         3.7560   32.4690    5.1890 N.2       1 L0C        -0.3141
     18 C19         2.8780   33.3290    4.5670 C.ar      1 L0C         0.0237
     19 C20         2.7460   33.7180    3.2450 C.ar      1 L0C        -0.0665
     20 C21         1.7590   34.6160    2.8800 C.ar      1 L0C        -0.0684
     21 C22         0.8880   35.1420    3.8380 C.ar      1 L0C        -0.0111
     22 C23        -0.2070   36.1130    3.4610 C.3       1 L0C        -0.0024
     23 N24         0.2640   37.3580    2.7690 N.4       1 L0C         0.2496
     24 C26        -0.8890   38.1610    2.2580 C.3       1 L0C        -0.0065
     25 C27        -0.3830   39.4270    1.5880 C.3       1 L0C         0.0878
     26 O28         0.5230   39.1190    0.5140 O.3       1 L0C        -0.3693
     27 C29         1.6480   38.3630    1.0030 C.3       1 L0C         0.0878
     28 C30         1.2000   37.0610    1.6460 C.3       1 L0C        -0.0065
     29 C31         1.0360   34.7350    5.1580 C.ar      1 L0C        -0.0343
     30 C32         2.0230   33.8390    5.5220 C.ar      1 L0C         0.0739
     31 N33         2.3950   33.2810    6.7000 N.pl3     1 L0C        -0.2530
     32 H1          7.4191   30.3380    1.8484 H         1 L0C         0.0616
     33 H2          6.4041   30.7131    4.0655 H         1 L0C         0.0658
     34 H3          6.8280   26.5299    4.9584 H         1 L0C         0.0658
     35 H4          7.8389   26.1727    2.7339 H         1 L0C         0.0616
     36 H5          5.3957   30.7167    5.4235 H         1 L0C         0.2146
     37 H6          5.9727   29.4513    8.9454 H         1 L0C         0.0776
     38 H7          4.6449   31.0079   10.5039 H         1 L0C         0.2537
     39 H8          3.4176   33.3180    2.4940 H         1 L0C         0.0538
     40 H9          1.6604   34.9141    1.8425 H         1 L0C         0.0478
     41 H10        -0.7313   36.4109    4.3810 H         1 L0C         0.0968
     42 H11        -0.9082   35.5941    2.7909 H         1 L0C         0.0968
     43 H12         0.7594   37.9154    3.4472 H         1 L0C         0.2049
     44 H13        -1.5459   38.4309    3.0980 H         1 L0C         0.0837
     45 H14        -1.4543   37.5633    1.5278 H         1 L0C         0.0837
     46 H15         0.1405   40.0433    2.3337 H         1 L0C         0.0613
     47 H16        -1.2397   39.9873    1.1855 H         1 L0C         0.0613
     48 H17         2.1869   38.9647    1.7497 H         1 L0C         0.0613
     49 H18         2.3194   38.1350    0.1621 H         1 L0C         0.0613
     50 H19         0.6884   36.4390    0.8968 H         1 L0C         0.0837
     51 H20         2.0775   36.5220    2.0326 H         1 L0C         0.0837
     52 H21         0.3662   35.1268    5.9149 H         1 L0C         0.0475
     53 H22         1.9480   33.4569    7.6111 H         1 L0C         0.2290
@<TRIPOS>BOND
     1    1    2 1  
     2    2    3 ar 
     3    2    7 ar 
     4    3    4 ar 
     5    4    5 ar 
     6    5    6 ar 
     7    5    8 1  
     8    6    7 ar 
     9    8    9 2  
    10    8   10 am 
    11   10   11 1  
    12   11   12 2  
    13   11   15 1  
    14   12   13 1  
    15   13   14 1  
    16   14   15 2  
    17   15   16 1  
    18   16   17 2  
    19   16   31 1  
    20   17   18 1  
    21   18   19 ar 
    22   18   30 ar 
    23   19   20 ar 
    24   20   21 ar 
    25   21   22 1  
    26   21   29 ar 
    27   22   23 1  
    28   23   24 1  
    29   23   28 1  
    30   24   25 1  
    31   25   26 1  
    32   26   27 1  
    33   27   28 1  
    34   29   30 ar 
    35   30   31 1  
    36    3   32 1  
    37    4   33 1  
    38    6   34 1  
    39    7   35 1  
    40   10   36 1  
    41   12   37 1  
    42   13   38 1  
    43   19   39 1  
    44   20   40 1  
    45   22   41 1  
    46   22   42 1  
    47   23   43 1  
    48   24   44 1  
    49   24   45 1  
    50   25   46 1  
    51   25   47 1  
    52   27   48 1  
    53   27   49 1  
    54   28   50 1  
    55   28   51 1  
    56   29   52 1  
    57   31   53 1  
@<TRIPOS>SUBSTRUCTURE
     1 L0C         1

