### 
### Created by X-TOOL on Mon Sep 10 21:13:02 2018
### 

@<TRIPOS>MOLECULE
2w1d_ligand
   22    24     1     0     0
SMALL
GAST_HUCK


@<TRIPOS>ATOM
      1 C1          4.9080   30.2520    8.7380 C.2       1 L0D         0.0517
      2 C2          4.7160   30.5820    7.4530 C.2       1 L0D        -0.0317
      3 C3          3.9710   31.7240    7.4420 C.2       1 L0D         0.0917
      4 N4          3.6900   32.1090    8.6910 N.2       1 L0D        -0.1959
      5 N5          4.2830   31.1830    9.4740 N.pl3     1 L0D        -0.2150
      6 C7          3.4860   32.4790    6.3070 C.2       1 L0D         0.1459
      7 N8          3.7280   32.2120    5.0390 N.2       1 L0D        -0.3058
      8 C9          3.0860   33.1480    4.2840 C.ar      1 L0D         0.0318
      9 C10         3.0100   33.3360    2.9130 C.ar      1 L0D        -0.0613
     10 C11         2.2790   34.3830    2.3990 C.ar      1 L0D        -0.0762
     11 C12         1.6160   35.2490    3.2440 C.ar      1 L0D        -0.0744
     12 C13         1.6830   35.0730    4.6040 C.ar      1 L0D        -0.0395
     13 C14         2.4180   34.0220    5.1330 C.ar      1 L0D         0.0817
     14 N15         2.6930   33.5700    6.3860 N.pl3     1 L0D        -0.2491
     15 H1          5.4641   29.3937    9.1121 H         1 L0D         0.0996
     16 H2          5.0850   30.0408    6.5830 H         1 L0D         0.0373
     17 H3          4.2587   31.1904   10.5037 H         1 L0D         0.2620
     18 H4          3.5271   32.6574    2.2443 H         1 L0D         0.0552
     19 H5          2.2240   34.5277    1.3261 H         1 L0D         0.0523
     20 H6          1.0406   36.0706    2.8330 H         1 L0D         0.0545
     21 H7          1.1612   35.7557    5.2649 H         1 L0D         0.0547
     22 H8          2.3498   33.9938    7.2598 H         1 L0D         0.2305
@<TRIPOS>BOND
     1    1    2 2  
     2    1    5 1  
     3    2    3 1  
     4    3    4 2  
     5    3    6 1  
     6    4    5 1  
     7    6    7 2  
     8    6   14 1  
     9    7    8 1  
    10    8    9 ar 
    11    8   13 ar 
    12    9   10 ar 
    13   10   11 ar 
    14   11   12 ar 
    15   12   13 ar 
    16   13   14 1  
    17    1   15 1  
    18    2   16 1  
    19    5   17 1  
    20    9   18 1  
    21   10   19 1  
    22   11   20 1  
    23   12   21 1  
    24   14   22 1  
@<TRIPOS>SUBSTRUCTURE
     1 L0D         1

