### 
### Created by X-TOOL on Mon Sep 10 21:13:02 2018
### 

@<TRIPOS>MOLECULE
2w1e_ligand
   55    59     1     0     0
SMALL
GAST_HUCK


@<TRIPOS>ATOM
      1 O1          6.1920   27.9070    7.4150 O.2       1 L0E        -0.3838
      2 C2          6.0800   28.6130    6.4410 C.2       1 L0E         0.3084
      3 N3          5.4680   29.8270    6.4700 N.am      1 L0E        -0.2294
      4 C4          4.9320   30.4670    7.5660 C.2       1 L0E         0.0951
      5 C5          5.0930   30.2110    8.8800 C.2       1 L0E         0.0638
      6 N6          4.3590   31.1170    9.5470 N.pl3     1 L0E        -0.2298
      7 N8          3.7240   31.9580    8.7110 N.2       1 L0E        -0.2033
      8 C9          4.0820   31.5580    7.5160 C.2       1 L0E         0.1184
      9 C10         3.5510   32.2530    6.3790 C.2       1 L0E         0.1420
     10 N11         3.5270   31.8030    5.1660 N.2       1 L0E        -0.3130
     11 C12         2.9390   32.7270    4.3840 C.ar      1 L0E         0.0222
     12 C13         2.6750   32.7420    3.0270 C.ar      1 L0E        -0.0569
     13 C14         2.0410   33.8300    2.4360 C.ar      1 L0E        -0.0135
     14 C15         1.7620   33.8390    0.9550 C.3       1 L0E        -0.0035
     15 N16         2.8000   34.6160    0.1980 N.4       1 L0E         0.2491
     16 C18         4.1090   33.9100    0.2080 C.3       1 L0E        -0.0066
     17 C19         5.1170   34.7170   -0.5850 C.3       1 L0E         0.0878
     18 O20         5.2630   36.0500   -0.0540 O.3       1 L0E        -0.3693
     19 C21         4.0010   36.7310   -0.0600 C.3       1 L0E         0.0878
     20 C22         2.9800   35.9780    0.7690 C.3       1 L0E        -0.0066
     21 C23         1.6800   34.9170    3.2430 C.ar      1 L0E        -0.0671
     22 C24         1.9430   34.9000    4.5960 C.ar      1 L0E        -0.0448
     23 C25         2.5730   33.8090    5.1700 C.ar      1 L0E         0.0747
     24 N26         2.9740   33.4660    6.4190 N.pl3     1 L0E        -0.2536
     25 N28         6.5840   28.1950    5.2390 N.am      1 L0E        -0.2158
     26 C29         6.5360   28.8740    3.9860 C.ar      1 L0E         0.0669
     27 C30         6.0380   28.2370    2.8620 C.ar      1 L0E        -0.0416
     28 C31         5.9920   28.8960    1.6570 C.ar      1 L0E        -0.0757
     29 C32         6.4400   30.1860    1.5600 C.ar      1 L0E        -0.0773
     30 C33         6.9370   30.8260    2.6620 C.ar      1 L0E        -0.0757
     31 C34         6.9890   30.1800    3.8720 C.ar      1 L0E        -0.0416
     32 H1          5.3992   30.3099    5.5970 H         1 L0E         0.2154
     33 H2          5.7017   29.4208    9.3170 H         1 L0E         0.0773
     34 H3          4.2907   31.1622   10.5737 H         1 L0E         0.2538
     35 H4          2.9657   31.8952    2.4158 H         1 L0E         0.0475
     36 H5          0.7771   34.2967    0.7808 H         1 L0E         0.0960
     37 H6          1.7548   32.8022    0.5875 H         1 L0E         0.0960
     38 H7          2.4903   34.7066   -0.7569 H         1 L0E         0.2048
     39 H8          3.9940   32.9154   -0.2476 H         1 L0E         0.0837
     40 H9          4.4597   33.8001    1.2448 H         1 L0E         0.0837
     41 H10         4.7790   34.7836   -1.6297 H         1 L0E         0.0613
     42 H11         6.0916   34.2084   -0.5466 H         1 L0E         0.0613
     43 H12         3.6381   36.8091   -1.0955 H         1 L0E         0.0613
     44 H13         4.1332   37.7393    0.3593 H         1 L0E         0.0613
     45 H14         3.3346   35.8985    1.8072 H         1 L0E         0.0837
     46 H15         2.0206   36.5156    0.7494 H         1 L0E         0.0837
     47 H16         1.1906   35.7771    2.8004 H         1 L0E         0.0496
     48 H17         1.6555   35.7438    5.2127 H         1 L0E         0.0533
     49 H18         2.8553   34.0432    7.2638 H         1 L0E         0.2285
     50 H19         7.0413   27.3057    5.2396 H         1 L0E         0.2260
     51 H20         5.6833   27.2151    2.9328 H         1 L0E         0.0501
     52 H21         5.5998   28.3929    0.7806 H         1 L0E         0.0577
     53 H22         6.4008   30.7016    0.6073 H         1 L0E         0.0486
     54 H23         7.2911   31.8472    2.5794 H         1 L0E         0.0577
     55 H24         7.3854   30.6922    4.7413 H         1 L0E         0.0501
@<TRIPOS>BOND
     1    1    2 2  
     2    2    3 am 
     3    2   25 am 
     4    3    4 1  
     5    4    5 2  
     6    4    8 1  
     7    5    6 1  
     8    6    7 1  
     9    7    8 2  
    10    8    9 1  
    11    9   10 2  
    12    9   24 1  
    13   10   11 1  
    14   11   12 ar 
    15   11   23 ar 
    16   12   13 ar 
    17   13   14 1  
    18   13   21 ar 
    19   14   15 1  
    20   15   16 1  
    21   15   20 1  
    22   16   17 1  
    23   17   18 1  
    24   18   19 1  
    25   19   20 1  
    26   21   22 ar 
    27   22   23 ar 
    28   23   24 1  
    29   25   26 1  
    30   26   27 ar 
    31   26   31 ar 
    32   27   28 ar 
    33   28   29 ar 
    34   29   30 ar 
    35   30   31 ar 
    36    3   32 1  
    37    5   33 1  
    38    6   34 1  
    39   12   35 1  
    40   14   36 1  
    41   14   37 1  
    42   15   38 1  
    43   16   39 1  
    44   16   40 1  
    45   17   41 1  
    46   17   42 1  
    47   19   43 1  
    48   19   44 1  
    49   20   45 1  
    50   20   46 1  
    51   21   47 1  
    52   22   48 1  
    53   24   49 1  
    54   25   50 1  
    55   27   51 1  
    56   28   52 1  
    57   29   53 1  
    58   30   54 1  
    59   31   55 1  
@<TRIPOS>SUBSTRUCTURE
     1 L0E         1

