### 
### Created by X-TOOL on Mon Sep 10 21:13:02 2018
### 

@<TRIPOS>MOLECULE
2w1f_ligand
   36    39     1     0     0
SMALL
GAST_HUCK


@<TRIPOS>ATOM
      1 O1          5.8270   27.9170    7.0700 O.2       1 L0F        -0.3774
      2 C2          5.9200   28.7440    6.1860 C.2       1 L0F         0.2239
      3 N3          5.5910   30.0460    6.3770 N.am      1 L0F        -0.2482
      4 C4          5.0010   30.5790    7.4880 C.2       1 L0F         0.0946
      5 C5          5.1520   30.2540    8.7980 C.2       1 L0F         0.0644
      6 N6          4.3500   31.0720    9.4960 N.pl3     1 L0F        -0.2293
      7 N8          3.6820   31.9180    8.6870 N.2       1 L0F        -0.2029
      8 C9          4.0800   31.6120    7.4690 C.2       1 L0F         0.1192
      9 C10         3.5410   32.3510    6.3540 C.2       1 L0F         0.1437
     10 N11         3.5740   31.9760    5.0860 N.2       1 L0F        -0.3101
     11 C12         2.9600   32.9500    4.3490 C.ar      1 L0F         0.0292
     12 C13         2.7220   33.0660    2.9890 C.ar      1 L0F        -0.0622
     13 C14         2.0680   34.1710    2.4950 C.ar      1 L0F        -0.0767
     14 C15         1.6450   35.1660    3.3500 C.ar      1 L0F        -0.0750
     15 C16         1.8700   35.0630    4.7010 C.ar      1 L0F        -0.0401
     16 C17         2.5300   33.9580    5.2140 C.ar      1 L0F         0.0805
     17 N18         2.9140   33.5460    6.4530 N.pl3     1 L0F        -0.2505
     18 C20         6.4080   28.3560    4.8230 C.ar      1 L0F         0.0541
     19 C21         6.6050   29.3200    3.8280 C.ar      1 L0F        -0.0417
     20 C22         7.0520   28.9460    2.5840 C.ar      1 L0F        -0.0563
     21 C23         7.3060   27.6200    2.3110 C.ar      1 L0F        -0.0576
     22 C24         7.1160   26.6600    3.2840 C.ar      1 L0F        -0.0563
     23 C25         6.6710   27.0200    4.5310 C.ar      1 L0F        -0.0417
     24 H1          5.8010   30.6780    5.6311 H         1 L0F         0.2148
     25 H2          5.7997   29.4783    9.2038 H         1 L0F         0.0777
     26 H3          4.2565   31.0556   10.5216 H         1 L0F         0.2540
     27 H4          3.0515   32.2850    2.3133 H         1 L0F         0.0548
     28 H5          1.8848   34.2594    1.4302 H         1 L0F         0.0522
     29 H6          1.1318   36.0348    2.9539 H         1 L0F         0.0541
     30 H7          1.5305   35.8478    5.3673 H         1 L0F         0.0545
     31 H8          2.7526   34.0630    7.3291 H         1 L0F         0.2298
     32 H9          6.4045   30.3641    4.0393 H         1 L0F         0.0668
     33 H10         7.2051   29.6956    1.8160 H         1 L0F         0.0629
     34 H11         7.6567   27.3292    1.3274 H         1 L0F         0.0652
     35 H12         7.3189   25.6185    3.0625 H         1 L0F         0.0629
     36 H13         6.5236   26.2618    5.2916 H         1 L0F         0.0668
@<TRIPOS>BOND
     1    1    2 2  
     2    2    3 am 
     3    2   18 1  
     4    3    4 1  
     5    4    5 2  
     6    4    8 1  
     7    5    6 1  
     8    6    7 1  
     9    7    8 2  
    10    8    9 1  
    11    9   10 2  
    12    9   17 1  
    13   10   11 1  
    14   11   12 ar 
    15   11   16 ar 
    16   12   13 ar 
    17   13   14 ar 
    18   14   15 ar 
    19   15   16 ar 
    20   16   17 1  
    21   18   19 ar 
    22   18   23 ar 
    23   19   20 ar 
    24   20   21 ar 
    25   21   22 ar 
    26   22   23 ar 
    27    3   24 1  
    28    5   25 1  
    29    6   26 1  
    30   12   27 1  
    31   13   28 1  
    32   14   29 1  
    33   15   30 1  
    34   17   31 1  
    35   19   32 1  
    36   20   33 1  
    37   21   34 1  
    38   22   35 1  
    39   23   36 1  
@<TRIPOS>SUBSTRUCTURE
     1 L0F         1

