### 
### Created by X-TOOL on Mon Sep 10 21:13:01 2018
### 

@<TRIPOS>MOLECULE
2w1g_ligand
   52    56     1     0     0
SMALL
GAST_HUCK


@<TRIPOS>ATOM
      1 O1          6.1710   28.2030    7.2540 O.2       1 L0G        -0.3940
      2 C2          5.9150   28.8070    6.2220 C.2       1 L0G         0.2788
      3 N3          6.2340   28.3340    5.0000 N.am      1 L0G        -0.2663
      4 C4          5.6380   28.8640    3.8120 C.3       1 L0G         0.0429
      5 C5          6.4730   29.7030    2.8950 C.3       1 L0G        -0.0280
      6 C6          6.0620   28.3200    2.4850 C.3       1 L0G        -0.0280
      7 N7          5.2900   29.9990    6.2240 N.am      1 L0G        -0.2347
      8 C8          4.8420   30.5410    7.3690 C.2       1 L0G         0.0945
      9 C9          5.1010   30.1370    8.6050 C.2       1 L0G         0.0637
     10 N10         4.4400   30.9690    9.4420 N.pl3     1 L0G        -0.2298
     11 N12         3.7580   31.9090    8.7630 N.2       1 L0G        -0.2033
     12 C13         4.0170   31.6160    7.4790 C.2       1 L0G         0.1184
     13 C14         3.4550   32.4060    6.4220 C.2       1 L0G         0.1420
     14 N15         2.9470   33.6180    6.6010 N.2       1 L0G        -0.3130
     15 C17         2.5130   34.0850    5.4340 C.ar      1 L0G         0.0222
     16 C18         1.9200   35.2810    5.1510 C.ar      1 L0G        -0.0569
     17 C19         1.5350   35.5880    3.8730 C.ar      1 L0G        -0.0135
     18 C20         0.9010   36.9170    3.5910 C.3       1 L0G        -0.0035
     19 N21         0.4350   37.0110    2.1890 N.4       1 L0G         0.2491
     20 C23        -0.7750   36.2040    2.0400 C.3       1 L0G        -0.0066
     21 C24        -1.3030   36.2860    0.6220 C.3       1 L0G         0.0878
     22 O25        -1.5110   37.6530    0.2250 O.3       1 L0G        -0.3693
     23 C26        -0.2940   38.4080    0.3470 C.3       1 L0G         0.0878
     24 C27         0.1910   38.4160    1.7750 C.3       1 L0G        -0.0066
     25 C28         1.7620   34.6530    2.8600 C.ar      1 L0G        -0.0671
     26 C29         2.3690   33.4300    3.1590 C.ar      1 L0G        -0.0448
     27 C30         2.7500   33.1470    4.4710 C.ar      1 L0G         0.0747
     28 N31         3.3590   32.0560    5.1010 N.pl3     1 L0G        -0.2536
     29 H1          6.9032   27.5950    4.9223 H         1 L0G         0.1852
     30 H2          4.5849   29.1206    3.9993 H         1 L0G         0.0553
     31 H3          7.5232   29.9135    3.1453 H         1 L0G         0.0288
     32 H4          6.0322   30.5787    2.3962 H         1 L0G         0.0288
     33 H5          5.3200   28.1812    1.6849 H         1 L0G         0.0288
     34 H6          6.8110   27.5160    2.4340 H         1 L0G         0.0288
     35 H7          5.1573   30.4878    5.3618 H         1 L0G         0.2147
     36 H8          5.7278   29.2941    8.8922 H         1 L0G         0.0772
     37 H9          4.4567   30.8925   10.4690 H         1 L0G         0.2538
     38 H10         1.7516   35.9968    5.9474 H         1 L0G         0.0475
     39 H11         1.6391   37.7113    3.7760 H         1 L0G         0.0960
     40 H12         0.0407   37.0521    4.2631 H         1 L0G         0.0960
     41 H13         1.1509   36.6306    1.5900 H         1 L0G         0.2048
     42 H14        -1.5440   36.5750    2.7335 H         1 L0G         0.0837
     43 H15        -0.5414   35.1558    2.2781 H         1 L0G         0.0837
     44 H16        -2.2591   35.7453    0.5628 H         1 L0G         0.0613
     45 H17        -0.5758   35.8207   -0.0596 H         1 L0G         0.0613
     46 H18        -0.4777   39.4430    0.0229 H         1 L0G         0.0613
     47 H19         0.4772   37.9547   -0.2931 H         1 L0G         0.0613
     48 H20         1.1244   38.9934    1.8481 H         1 L0G         0.0837
     49 H21        -0.5722   38.8688    2.4251 H         1 L0G         0.0837
     50 H22         1.4671   34.8763    1.8411 H         1 L0G         0.0496
     51 H23         2.5433   32.7034    2.3737 H         1 L0G         0.0533
     52 H24         3.6693   31.1763    4.6642 H         1 L0G         0.2285
@<TRIPOS>BOND
     1    1    2 2  
     2    2    3 am 
     3    2    7 am 
     4    3    4 1  
     5    4    5 1  
     6    4    6 1  
     7    5    6 1  
     8    7    8 1  
     9    8    9 2  
    10    8   12 1  
    11    9   10 1  
    12   10   11 1  
    13   11   12 2  
    14   12   13 1  
    15   13   14 2  
    16   13   28 1  
    17   14   15 1  
    18   15   16 ar 
    19   15   27 ar 
    20   16   17 ar 
    21   17   18 1  
    22   17   25 ar 
    23   18   19 1  
    24   19   20 1  
    25   19   24 1  
    26   20   21 1  
    27   21   22 1  
    28   22   23 1  
    29   23   24 1  
    30   25   26 ar 
    31   26   27 ar 
    32   27   28 1  
    33    3   29 1  
    34    4   30 1  
    35    5   31 1  
    36    5   32 1  
    37    6   33 1  
    38    6   34 1  
    39    7   35 1  
    40    9   36 1  
    41   10   37 1  
    42   16   38 1  
    43   18   39 1  
    44   18   40 1  
    45   19   41 1  
    46   20   42 1  
    47   20   43 1  
    48   21   44 1  
    49   21   45 1  
    50   23   46 1  
    51   23   47 1  
    52   24   48 1  
    53   24   49 1  
    54   25   50 1  
    55   26   51 1  
    56   28   52 1  
@<TRIPOS>SUBSTRUCTURE
     1 L0G         1

