### 
### Created by X-TOOL on Mon Sep 10 21:13:02 2018
### 

@<TRIPOS>MOLECULE
2w1h_ligand
   36    39     1     0     0
SMALL
GAST_HUCK


@<TRIPOS>ATOM
      1 O1         25.0260    4.8190   61.2940 O.2       1 L0F        -0.3774
      2 C2         25.9070    5.6680   61.3390 C.2       1 L0F         0.2239
      3 N3         27.0100    5.5190   62.1420 N.am      1 L0F        -0.2482
      4 C4         27.2970    4.4190   63.0120 C.2       1 L0F         0.0946
      5 C5         26.6310    3.2320   63.1380 C.2       1 L0F         0.0644
      6 N6         27.2690    2.4930   64.0800 N.pl3     1 L0F        -0.2293
      7 N8         28.3610    3.2320   64.5520 N.2       1 L0F        -0.2029
      8 C9         28.3880    4.3870   63.9150 C.2       1 L0F         0.1192
      9 C10        29.3760    5.4740   64.1070 C.2       1 L0F         0.1437
     10 N11        29.3500    6.6260   63.4740 N.2       1 L0F        -0.3101
     11 C12        30.3780    7.3990   63.8830 C.ar      1 L0F         0.0292
     12 C13        30.8370    8.7020   63.5170 C.ar      1 L0F        -0.0622
     13 C14        31.9710    9.2350   64.1270 C.ar      1 L0F        -0.0767
     14 C15        32.7020    8.4790   65.0700 C.ar      1 L0F        -0.0750
     15 C16        32.2740    7.1910   65.4390 C.ar      1 L0F        -0.0401
     16 C17        31.1290    6.6250   64.8220 C.ar      1 L0F         0.0805
     17 N18        30.4510    5.4290   64.9570 N.pl3     1 L0F        -0.2505
     18 C20        25.7930    6.9020   60.5020 C.ar      1 L0F         0.0541
     19 C21        24.9050    6.9450   59.3860 C.ar      1 L0F        -0.0417
     20 C22        24.8040    8.1130   58.6030 C.ar      1 L0F        -0.0563
     21 C23        25.5790    9.2480   58.9200 C.ar      1 L0F        -0.0576
     22 C24        26.4620    9.2210   60.0220 C.ar      1 L0F        -0.0563
     23 C25        26.5720    8.0580   60.8140 C.ar      1 L0F        -0.0417
     24 H1         27.6845    6.2569   62.1167 H         1 L0F         0.2148
     25 H2         25.7447    2.9324   62.5806 H         1 L0F         0.0777
     26 H3         26.9970    1.5505   64.3940 H         1 L0F         0.2540
     27 H4         30.3042    9.2746   62.7664 H         1 L0F         0.0548
     28 H5         32.2949   10.2385   63.8756 H         1 L0F         0.0522
     29 H6         33.5999    8.8947   65.5128 H         1 L0F         0.0541
     30 H7         32.8175    6.6326   66.1926 H         1 L0F         0.0545
     31 H8         30.7055    4.6491   65.5798 H         1 L0F         0.2298
     32 H9         24.3056    6.0761   59.1392 H         1 L0F         0.0668
     33 H10        24.1290    8.1388   57.7552 H         1 L0F         0.0629
     34 H11        25.4966   10.1442   58.3157 H         1 L0F         0.0652
     35 H12        27.0566   10.0956   60.2600 H         1 L0F         0.0629
     36 H13        27.2488    8.0420   61.6606 H         1 L0F         0.0668
@<TRIPOS>BOND
     1    1    2 2  
     2    2    3 am 
     3    2   18 1  
     4    3    4 1  
     5    4    5 2  
     6    4    8 1  
     7    5    6 1  
     8    6    7 1  
     9    7    8 2  
    10    8    9 1  
    11    9   10 2  
    12    9   17 1  
    13   10   11 1  
    14   11   12 ar 
    15   11   16 ar 
    16   12   13 ar 
    17   13   14 ar 
    18   14   15 ar 
    19   15   16 ar 
    20   16   17 1  
    21   18   19 ar 
    22   18   23 ar 
    23   19   20 ar 
    24   20   21 ar 
    25   21   22 ar 
    26   22   23 ar 
    27    3   24 1  
    28    5   25 1  
    29    6   26 1  
    30   12   27 1  
    31   13   28 1  
    32   14   29 1  
    33   15   30 1  
    34   17   31 1  
    35   19   32 1  
    36   20   33 1  
    37   21   34 1  
    38   22   35 1  
    39   23   36 1  
@<TRIPOS>SUBSTRUCTURE
     1 L0F         1

