### 
### Created by X-TOOL on Mon Sep 10 21:13:01 2018
### 

@<TRIPOS>MOLECULE
2w1i_ligand
   52    56     1     0     0
SMALL
GAST_HUCK


@<TRIPOS>ATOM
      1 O1         37.8580    6.2900   -2.7790 O.2       1 L0I        -0.3940
      2 C2         38.3810    5.2270   -3.0200 C.2       1 L0I         0.2787
      3 N3         37.8160    4.1040   -3.4810 N.am      1 L0I        -0.2663
      4 C4         37.1980    3.9520   -4.7680 C.3       1 L0I         0.0429
      5 C5         38.1420    3.3430   -5.7540 C.3       1 L0I        -0.0280
      6 C6         36.9990    2.5450   -5.2390 C.3       1 L0I        -0.0280
      7 N7         39.6070    4.8750   -2.6720 N.am      1 L0I        -0.2348
      8 C8         40.6800    5.5810   -2.2070 C.2       1 L0I         0.0941
      9 C9         40.7800    6.6870   -1.4250 C.2       1 L0I         0.0634
     10 N10        42.0880    6.8980   -1.2370 N.pl3     1 L0I        -0.2302
     11 N12        42.8380    5.9550   -1.8540 N.2       1 L0I        -0.2042
     12 C13        41.9640    5.1370   -2.4350 C.2       1 L0I         0.1172
     13 C14        42.3470    3.9770   -3.1980 C.2       1 L0I         0.1411
     14 N15        41.5380    3.2510   -3.9720 N.2       1 L0I        -0.3141
     15 C16        42.2980    2.2720   -4.4860 C.ar      1 L0I         0.0237
     16 C17        41.9830    1.2390   -5.3590 C.ar      1 L0I        -0.0665
     17 C18        42.9790    0.3590   -5.7320 C.ar      1 L0I        -0.0684
     18 C19        44.2920    0.4820   -5.2720 C.ar      1 L0I        -0.0111
     19 C20        45.3370   -0.5370   -5.6840 C.3       1 L0I        -0.0024
     20 N21        46.4320   -0.1010   -6.6170 N.4       1 L0I         0.2496
     21 C23        47.3170    0.9700   -6.0390 C.3       1 L0I        -0.0065
     22 C24        48.5030    1.3100   -6.9430 C.3       1 L0I         0.0878
     23 O25        49.2300    0.1570   -7.4200 O.3       1 L0I        -0.3693
     24 C26        48.3410   -0.8010   -8.0250 C.3       1 L0I         0.0878
     25 C27        47.2570   -1.2740   -7.0610 C.3       1 L0I        -0.0065
     26 C28        44.6120    1.5120   -4.3950 C.ar      1 L0I        -0.0344
     27 C29        43.6050    2.3940   -4.0220 C.ar      1 L0I         0.0739
     28 N30        43.6010    3.4810   -3.1940 N.pl3     1 L0I        -0.2530
     29 H1         37.8252    3.3053   -2.8793 H         1 L0I         0.1852
     30 H2         36.4925    4.7603   -5.0105 H         1 L0I         0.0553
     31 H3         39.1686    3.0922   -5.4488 H         1 L0I         0.0288
     32 H4         38.1440    3.6888   -6.7982 H         1 L0I         0.0288
     33 H5         36.1558    2.3014   -5.9020 H         1 L0I         0.0288
     34 H6         37.1803    1.7048   -4.5526 H         1 L0I         0.0288
     35 H7         39.7843    3.8956   -2.7686 H         1 L0I         0.2146
     36 H8         39.9591    7.2834   -1.0297 H         1 L0I         0.0772
     37 H9         42.4758    7.6805   -0.6909 H         1 L0I         0.2535
     38 H10        40.9745    1.1259   -5.7402 H         1 L0I         0.0538
     39 H11        42.7338   -0.4550   -6.4046 H         1 L0I         0.0478
     40 H12        44.8063   -1.3682   -6.1714 H         1 L0I         0.0968
     41 H13        45.8189   -0.8989   -4.7638 H         1 L0I         0.0968
     42 H14        45.9877    0.2879   -7.4340 H         1 L0I         0.2049
     43 H15        47.7026    0.6220   -5.0693 H         1 L0I         0.0837
     44 H16        46.7166    1.8796   -5.8899 H         1 L0I         0.0837
     45 H17        49.1983    1.9465   -6.3760 H         1 L0I         0.0613
     46 H18        48.1253    1.8650   -7.8144 H         1 L0I         0.0613
     47 H19        48.9284   -1.6718   -8.3516 H         1 L0I         0.0613
     48 H20        47.8597   -0.3352   -8.8976 H         1 L0I         0.0613
     49 H21        46.6104   -2.0057   -7.5675 H         1 L0I         0.0837
     50 H22        47.7264   -1.7443   -6.1844 H         1 L0I         0.0837
     51 H23        45.6200    1.6242   -4.0124 H         1 L0I         0.0475
     52 H24        44.4042    3.8516   -2.6664 H         1 L0I         0.2290
@<TRIPOS>BOND
     1    1    2 2  
     2    2    3 am 
     3    2    7 am 
     4    3    4 1  
     5    4    5 1  
     6    4    6 1  
     7    5    6 1  
     8    7    8 1  
     9    8    9 2  
    10    8   12 1  
    11    9   10 1  
    12   10   11 1  
    13   11   12 2  
    14   12   13 1  
    15   13   14 2  
    16   13   28 1  
    17   14   15 1  
    18   15   16 ar 
    19   15   27 ar 
    20   16   17 ar 
    21   17   18 ar 
    22   18   19 1  
    23   18   26 ar 
    24   19   20 1  
    25   20   21 1  
    26   20   25 1  
    27   21   22 1  
    28   22   23 1  
    29   23   24 1  
    30   24   25 1  
    31   26   27 ar 
    32   27   28 1  
    33    3   29 1  
    34    4   30 1  
    35    5   31 1  
    36    5   32 1  
    37    6   33 1  
    38    6   34 1  
    39    7   35 1  
    40    9   36 1  
    41   10   37 1  
    42   16   38 1  
    43   17   39 1  
    44   19   40 1  
    45   19   41 1  
    46   20   42 1  
    47   21   43 1  
    48   21   44 1  
    49   22   45 1  
    50   22   46 1  
    51   24   47 1  
    52   24   48 1  
    53   25   49 1  
    54   25   50 1  
    55   26   51 1  
    56   28   52 1  
@<TRIPOS>SUBSTRUCTURE
     1 L0I         1

