### 
### Created by X-TOOL on Mon Sep 10 21:13:01 2018
### 

@<TRIPOS>MOLECULE
2w2i_ligand
   15    15     1     0     0
SMALL
GAST_HUCK


@<TRIPOS>ATOM
      1 O42        10.9860   35.0150   86.1640 O.co2     1 PD2        -0.5574
      2 C41        10.6850   36.2190   86.1970 C.2       1 PD2         0.0728
      3 O41        10.7930   37.0110   85.2560 O.co2     1 PD2        -0.5574
      4 C4         10.2150   36.8390   87.5140 C.ar      1 PD2         0.0333
      5 C5         10.7780   36.3560   88.6920 C.ar      1 PD2        -0.0173
      6 C6         10.4080   36.8820   89.9140 C.ar      1 PD2         0.0184
      7 C3          9.2600   37.8660   87.5340 C.ar      1 PD2        -0.0054
      8 C2          8.9330   38.3660   88.8240 C.ar      1 PD2         0.0862
      9 N1          9.5120   37.8350   89.9290 N.ar      1 PD2        -0.2790
     10 C21         7.8890   39.3990   89.0310 C.2       1 PD2         0.0817
     11 O21         7.4640   40.0080   88.0200 O.co2     1 PD2        -0.5572
     12 O22         7.3770   39.4730   90.2170 O.co2     1 PD2        -0.5572
     13 H1         11.5130   35.5603   88.6497 H         1 PD2         0.0763
     14 H2         10.8475   36.5156   90.8347 H         1 PD2         0.0842
     15 H3          8.8034   38.2514   86.6295 H         1 PD2         0.0779
@<TRIPOS>BOND
     1    1    2 ar 
     2    2    3 ar 
     3    2    4 1  
     4    4    5 ar 
     5    4    7 ar 
     6    5    6 ar 
     7    6    9 ar 
     8    7    8 ar 
     9    8    9 ar 
    10    8   10 1  
    11   10   11 ar 
    12   10   12 ar 
    13    5   13 1  
    14    6   14 1  
    15    7   15 1  
@<TRIPOS>SUBSTRUCTURE
     1 PD2         1

