### 
### Created by X-TOOL on Mon Sep 10 21:13:01 2018
### 

@<TRIPOS>MOLECULE
2w3i_ligand
   62    66     1     0     0
SMALL
GAST_HUCK


@<TRIPOS>ATOM
      1 F2         -0.9210    7.9840   26.6140 F         1 L1C        -0.1572
      2 C14         0.2260    7.8330   25.9210 C.ar      1 L1C         0.1648
      3 C15         1.0840    8.9090   25.7100 C.ar      1 L1C         0.0379
      4 C16         2.2740    8.7330   24.9980 C.ar      1 L1C         0.1625
      5 F1          3.0580    9.8100   24.8240 F         1 L1C        -0.1564
      6 C17         2.6240    7.4770   24.4910 C.ar      1 L1C         0.0084
      7 C18         1.7450    6.4090   24.7160 C.ar      1 L1C        -0.0398
      8 C13         0.5610    6.5840   25.4270 C.ar      1 L1C        -0.0007
      9 C8          3.9000    7.2200   23.7120 C.3       1 L1C         0.0746
     10 O3          4.0340    5.8300   23.4060 O.3       1 L1C        -0.4274
     11 C11         5.1570    7.5710   24.4740 C.3       1 L1C         0.0393
     12 N2          6.1300    7.9890   23.4740 N.am      1 L1C        -0.2396
     13 C12         7.4530    8.1580   23.6880 C.2       1 L1C         0.2916
     14 O2          8.1810    8.4770   22.7690 O.2       1 L1C        -0.3900
     15 N3          7.9550    7.8080   24.8800 N.am      1 L1C        -0.2190
     16 C2          9.2820    7.7630   25.2280 C.ar      1 L1C         0.0670
     17 C7          9.6120    7.2830   26.4910 C.ar      1 L1C        -0.0408
     18 C6         10.9390    7.2250   26.9070 C.ar      1 L1C        -0.0618
     19 C5         11.9450    7.6660   26.0510 C.ar      1 L1C         0.0238
     20 CL1        13.6580    7.5930   26.5330 Cl        1 L1C        -0.0850
     21 C4         11.6340    8.1560   24.7950 C.ar      1 L1C        -0.0618
     22 C3         10.3170    8.2080   24.3850 C.ar      1 L1C        -0.0408
     23 C10         5.4610    8.2640   22.1890 C.3       1 L1C         0.1342
     24 C9          3.9740    8.0070   22.4260 C.3       1 L1C        -0.0094
     25 C1          5.9940    7.4120   21.0570 C.2       1 L1C         0.2305
     26 O1          6.1700    7.9540   19.9920 O.2       1 L1C        -0.3814
     27 N1          6.2730    6.1220   21.2860 N.am      1 L1C        -0.2211
     28 C26         6.7840    5.2150   20.3930 C.ar      1 L1C         0.1304
     29 C27         7.1110    5.5230   19.0710 C.ar      1 L1C        -0.0185
     30 C28         7.6240    4.5490   18.2290 C.ar      1 L1C        -0.0198
     31 C29         7.8110    3.2520   18.6830 C.ar      1 L1C         0.1234
     32 C30         7.4750    2.9730   20.0080 C.ar      1 L1C         0.0279
     33 N6          6.9770    3.9400   20.8130 N.ar      1 L1C        -0.2925
     34 N4          8.3200    2.3210   17.8430 N.am      1 L1C        -0.1646
     35 C24         9.4590    1.6850   18.1590 C.2       1 L1C         0.0815
     36 C23        10.0360    0.7330   17.3230 C.2       1 L1C        -0.0394
     37 C19         9.4270    0.4260   16.1110 C.2       1 L1C        -0.0771
     38 C21         8.2490    1.0750   15.7580 C.2       1 L1C        -0.0103
     39 C20         7.6910    2.0250   16.6120 C.2       1 L1C         0.2170
     40 O4          6.6380    2.6070   16.2770 O.2       1 L1C        -0.4145
     41 H1          0.8281    9.8877   26.0996 H         1 L1C         0.0674
     42 H2          1.9919    5.4271   24.3287 H         1 L1C         0.0822
     43 H3         -0.0996    5.7409   25.5940 H         1 L1C         0.0665
     44 H4          3.2924    5.5491   22.8829 H         1 L1C         0.1941
     45 H5          5.5277    6.6937   25.0244 H         1 L1C         0.0437
     46 H6          4.9592    8.3905   25.1806 H         1 L1C         0.0437
     47 H7          7.2960    7.5538   25.5879 H         1 L1C         0.2258
     48 H8          8.8263    6.9501   27.1594 H         1 L1C         0.0502
     49 H9         11.1874    6.8397   27.8893 H         1 L1C         0.0583
     50 H10        12.4226    8.4982   24.1346 H         1 L1C         0.0583
     51 H11        10.0772    8.5963   23.4018 H         1 L1C         0.0502
     52 H12         5.6121    9.3204   21.9221 H         1 L1C         0.0797
     53 H13         3.4308    8.9583   22.5258 H         1 L1C         0.0230
     54 H14         3.5472    7.4263   21.5950 H         1 L1C         0.0230
     55 H15         6.0886    5.7833   22.2087 H         1 L1C         0.2284
     56 H16         6.9626    6.5309   18.7006 H         1 L1C         0.0579
     57 H17         7.8812    4.8031   17.2071 H         1 L1C         0.0645
     58 H18         7.6144    1.9708   20.3968 H         1 L1C         0.0717
     59 H19         9.9489    1.9220   19.1023 H         1 L1C         0.1232
     60 H20        10.9576    0.2323   17.6160 H         1 L1C         0.0375
     61 H21         9.8680   -0.3147   15.4455 H         1 L1C         0.0639
     62 H22         7.7615    0.8407   14.8128 H         1 L1C         0.0403
@<TRIPOS>BOND
     1    1    2 1  
     2    2    3 ar 
     3    2    8 ar 
     4    3    4 ar 
     5    4    5 1  
     6    4    6 ar 
     7    6    7 ar 
     8    6    9 1  
     9    7    8 ar 
    10    9   10 1  
    11    9   11 1  
    12    9   24 1  
    13   11   12 1  
    14   12   13 am 
    15   12   23 1  
    16   13   14 2  
    17   13   15 am 
    18   15   16 1  
    19   16   17 ar 
    20   16   22 ar 
    21   17   18 ar 
    22   18   19 ar 
    23   19   20 1  
    24   19   21 ar 
    25   21   22 ar 
    26   23   24 1  
    27   23   25 1  
    28   25   26 2  
    29   25   27 am 
    30   27   28 1  
    31   28   29 ar 
    32   28   33 ar 
    33   29   30 ar 
    34   30   31 ar 
    35   31   32 ar 
    36   31   34 1  
    37   32   33 ar 
    38   34   35 1  
    39   34   39 am 
    40   35   36 2  
    41   36   37 1  
    42   37   38 2  
    43   38   39 1  
    44   39   40 2  
    45    3   41 1  
    46    7   42 1  
    47    8   43 1  
    48   10   44 1  
    49   11   45 1  
    50   11   46 1  
    51   15   47 1  
    52   17   48 1  
    53   18   49 1  
    54   21   50 1  
    55   22   51 1  
    56   23   52 1  
    57   24   53 1  
    58   24   54 1  
    59   27   55 1  
    60   29   56 1  
    61   30   57 1  
    62   32   58 1  
    63   35   59 1  
    64   36   60 1  
    65   37   61 1  
    66   38   62 1  
@<TRIPOS>SUBSTRUCTURE
     1 L1C         1

