### 
### Created by X-TOOL on Mon Sep 10 21:12:58 2018
### 

@<TRIPOS>MOLECULE
2w3l_ligand
   73    78     1     0     0
SMALL
GAST_HUCK


@<TRIPOS>ATOM
      1 CBF        42.8420   26.9780  -10.6500 C.ar      1 DRO        -0.0354
      2 CBG        43.0780   28.2310  -10.0890 C.ar      1 DRO        -0.0735
      3 CBH        42.0500   28.9350   -9.4790 C.ar      1 DRO        -0.0756
      4 CBI        40.7550   28.4320   -9.4170 C.ar      1 DRO        -0.0735
      5 CBJ        40.5210   27.1650   -9.9990 C.ar      1 DRO        -0.0354
      6 CBE        41.5430   26.4520  -10.6360 C.ar      1 DRO         0.0917
      7 NBB        41.3130   25.2090  -11.1710 N.am      1 DRO        -0.1694
      8 CBD        40.9890   24.1940  -10.2930 C.ar      1 DRO         0.0917
      9 CBK        39.6850   23.6500  -10.3650 C.ar      1 DRO        -0.0354
     10 CBL        39.2650   22.6330   -9.4860 C.ar      1 DRO        -0.0735
     11 CBM        40.1340   22.1660   -8.4870 C.ar      1 DRO        -0.0756
     12 CBN        41.4090   22.7280   -8.3720 C.ar      1 DRO        -0.0735
     13 CBO        41.8250   23.7360   -9.2690 C.ar      1 DRO        -0.0354
     14 CBA        41.3370   24.9230  -12.4800 C.2       1 DRO         0.2619
     15 OBC        41.1000   23.7790  -12.8800 O.2       1 DRO        -0.3627
     16 CAH        41.5730   26.0330  -13.5520 C.2       1 DRO         0.1228
     17 NAG        40.9820   27.2380  -13.5530 N.2       1 DRO        -0.1885
     18 CAI        42.2620   25.9350  -14.7490 C.2       1 DRO         0.0709
     19 CL1        43.1970   24.5660  -15.2720 Cl        1 DRO        -0.1070
     20 CAJ        42.0910   27.1720  -15.3660 C.2       1 DRO         0.1013
     21 CAK        42.6950   27.6000  -16.7180 C.3       1 DRO         0.0019
     22 NAF        41.2840   27.8960  -14.5640 N.pl3     1 DRO        -0.1497
     23 CAE        40.8250   29.1540  -14.7700 C.ar      1 DRO         0.1337
     24 CAA        41.6730   30.2590  -14.7760 C.ar      1 DRO        -0.0192
     25 CAB        41.1590   31.5400  -14.9990 C.ar      1 DRO        -0.0613
     26 CAC        39.7990   31.7310  -15.1880 C.ar      1 DRO        -0.0629
     27 CAY        38.9370   30.6560  -15.1610 C.ar      1 DRO        -0.0456
     28 CAD        39.4440   29.3720  -14.9410 C.ar      1 DRO         0.0863
     29 CAL        38.4770   28.1720  -14.9150 C.2       1 DRO         0.2075
     30 OAN        38.5170   27.3230  -15.8220 O.2       1 DRO        -0.3883
     31 NAM        37.5940   27.9950  -13.9150 N.am      1 DRO        -0.2535
     32 CAQ        37.4770   28.9140  -12.7100 C.3       1 DRO         0.0651
     33 CAR        37.2660   28.0320  -11.4440 C.ar      1 DRO        -0.0187
     34 CAW        37.2270   28.6510  -10.1810 C.ar      1 DRO        -0.0649
     35 CAV        37.0210   27.9080   -9.0080 C.ar      1 DRO        -0.0754
     36 CAU        36.8410   26.5420   -9.0850 C.ar      1 DRO        -0.0755
     37 CAT        36.8830   25.9080  -10.3210 C.ar      1 DRO        -0.0667
     38 CAS        37.0810   26.6460  -11.5010 C.ar      1 DRO        -0.0367
     39 CAP        37.1010   25.8520  -12.8090 C.3       1 DRO         0.0069
     40 CAO        36.7270   26.7900  -13.9710 C.3       1 DRO         0.0942
     41 CAX        35.2460   27.1830  -13.8690 C.3       1 DRO        -0.0098
     42 NAZ        34.6130   27.0100  -15.1750 N.4       1 DRO         0.2203
     43 H1         43.6554   26.4150  -11.0932 H         1 DRO         0.0522
     44 H2         44.0729   28.6594  -10.1294 H         1 DRO         0.0581
     45 H3         42.2618   29.9028   -9.0390 H         1 DRO         0.0501
     46 H4         39.9564   28.9895   -8.9411 H         1 DRO         0.0581
     47 H5         39.5268   26.7358   -9.9507 H         1 DRO         0.0522
     48 H6         38.9946   24.0238  -11.1125 H         1 DRO         0.0522
     49 H7         38.2711   22.2109   -9.5807 H         1 DRO         0.0581
     50 H8         39.8197   21.3781   -7.8121 H         1 DRO         0.0501
     51 H9         42.0805   22.3887   -7.5916 H         1 DRO         0.0581
     52 H10        42.8148   24.1648   -9.1617 H         1 DRO         0.0522
     53 H11        43.3092   26.7812  -17.1208 H         1 DRO         0.0442
     54 H12        43.3223   28.4919  -16.5735 H         1 DRO         0.0442
     55 H13        41.8846   27.8322  -17.4246 H         1 DRO         0.0442
     56 H14        42.7354   30.1253  -14.6072 H         1 DRO         0.0600
     57 H15        41.8298   32.3912  -15.0243 H         1 DRO         0.0635
     58 H16        39.4122   32.7293  -15.3576 H         1 DRO         0.0571
     59 H17        37.8736   30.8051  -15.3093 H         1 DRO         0.0652
     60 H18        36.6194   29.5906  -12.8395 H         1 DRO         0.0670
     61 H19        38.3979   29.5058  -12.6022 H         1 DRO         0.0670
     62 H20        37.3589   29.7248  -10.1123 H         1 DRO         0.0538
     63 H21        37.0034   28.4055   -8.0451 H         1 DRO         0.0541
     64 H22        36.6673   25.9651   -8.1839 H         1 DRO         0.0541
     65 H23        36.7617   24.8322  -10.3758 H         1 DRO         0.0537
     66 H24        36.3742   25.0283  -12.7515 H         1 DRO         0.0436
     67 H25        38.1078   25.4416  -12.9759 H         1 DRO         0.0436
     68 H26        36.8935   26.2700  -14.9259 H         1 DRO         0.0634
     69 H27        35.1648   28.2347  -13.5571 H         1 DRO         0.0838
     70 H28        34.7450   26.5414  -13.1292 H         1 DRO         0.0838
     71 H29        33.6402   27.2668  -15.1135 H         1 DRO         0.1995
     72 H30        34.6887   26.0461  -15.4601 H         1 DRO         0.1995
     73 H31        35.0735   27.5978  -15.8521 H         1 DRO         0.1995
@<TRIPOS>BOND
     1    1    2 ar 
     2    1    6 ar 
     3    2    3 ar 
     4    3    4 ar 
     5    4    5 ar 
     6    5    6 ar 
     7    6    7 1  
     8    7    8 1  
     9    7   14 am 
    10    8    9 ar 
    11    8   13 ar 
    12    9   10 ar 
    13   10   11 ar 
    14   11   12 ar 
    15   12   13 ar 
    16   14   15 2  
    17   14   16 1  
    18   16   17 2  
    19   16   18 1  
    20   17   22 1  
    21   18   19 1  
    22   18   20 2  
    23   20   21 1  
    24   20   22 1  
    25   22   23 1  
    26   23   24 ar 
    27   23   28 ar 
    28   24   25 ar 
    29   25   26 ar 
    30   26   27 ar 
    31   27   28 ar 
    32   28   29 1  
    33   29   30 2  
    34   29   31 am 
    35   31   32 1  
    36   31   40 1  
    37   32   33 1  
    38   33   34 ar 
    39   33   38 ar 
    40   34   35 ar 
    41   35   36 ar 
    42   36   37 ar 
    43   37   38 ar 
    44   38   39 1  
    45   39   40 1  
    46   40   41 1  
    47   41   42 1  
    48    1   43 1  
    49    2   44 1  
    50    3   45 1  
    51    4   46 1  
    52    5   47 1  
    53    9   48 1  
    54   10   49 1  
    55   11   50 1  
    56   12   51 1  
    57   13   52 1  
    58   21   53 1  
    59   21   54 1  
    60   21   55 1  
    61   24   56 1  
    62   25   57 1  
    63   26   58 1  
    64   27   59 1  
    65   32   60 1  
    66   32   61 1  
    67   34   62 1  
    68   35   63 1  
    69   36   64 1  
    70   37   65 1  
    71   39   66 1  
    72   39   67 1  
    73   40   68 1  
    74   41   69 1  
    75   41   70 1  
    76   42   71 1  
    77   42   72 1  
    78   42   73 1  
@<TRIPOS>SUBSTRUCTURE
     1 DRO         1

