### 
### Created by X-TOOL on Mon Sep 10 21:13:00 2018
### 

@<TRIPOS>MOLECULE
2w47_ligand
   38    39     1     0     0
SMALL
GAST_HUCK


@<TRIPOS>ATOM
      1 C1         -1.6660   16.2910    9.7560 C.3       1 UNF         0.2076
      2 C2         -2.1860   17.5440    9.0590 C.3       1 UNF         0.1417
      3 C3         -1.7040   17.5670    7.6140 C.3       1 UNF         0.1056
      4 C4         -0.1890   17.5130    7.6320 C.2       1 UNF        -0.0271
      5 C5          0.4560   16.7810    8.5700 C.2       1 UNF         0.1115
      6 C6          1.7680   16.5540    8.4920 C.2       1 UNF         0.0810
      7 O1         -2.2090   15.1360    9.1100 O.3       1 UNF        -0.3350
      8 O2         -3.6130   17.5680    9.1240 O.3       1 UNF        -0.3820
      9 O3         -2.1830   18.7470    6.9540 O.3       1 UNF        -0.3804
     10 O5         -0.2350   16.2310    9.7290 O.3       1 UNF        -0.2949
     11 O6          2.3230   15.8720    9.3980 O.co2     1 UNF        -0.5623
     12 C1'        -3.6910   12.0660    8.3570 C.3       1 UNF         0.1873
     13 C2'        -2.3940   12.5410    7.6960 C.3       1 UNF         0.1342
     14 C3'        -1.3470   12.9050    8.7520 C.3       1 UNF         0.1159
     15 C4'        -1.9160   13.8990    9.7670 C.3       1 UNF         0.1282
     16 C5'        -3.1940   13.3090   10.3790 C.3       1 UNF         0.1424
     17 C6'        -3.8160   14.2420   11.3830 C.2       1 UNF         0.0664
     18 O1'        -3.4930   10.7820    8.9700 O.3       1 UNF        -0.3648
     19 O2'        -1.8890   11.5220    6.8280 O.3       1 UNF        -0.3841
     20 O3'        -0.1720   13.4310    8.1210 O.3       1 UNF        -0.3863
     21 O5'        -4.1350   13.0210    9.3320 O.3       1 UNF        -0.3287
     22 O6'        -3.1310   14.6390   12.3520 O.co2     1 UNF        -0.5662
     23 OAC        -5.0070   14.5950   11.2200 O.co2     1 UNF        -0.5662
     24 OAN         2.4090   17.0340    7.5220 O.co2     1 UNF        -0.5623
     25 H1         -1.9975   16.3064   10.8047 H         1 UNF         0.0990
     26 H2         -1.7931   18.4316    9.5765 H         1 UNF         0.0694
     27 H3         -2.0909   16.6843    7.0838 H         1 UNF         0.0743
     28 H4          0.3824   18.0653    6.8874 H         1 UNF         0.0480
     29 H5         -3.9622   16.8078    8.6740 H         1 UNF         0.2103
     30 H6         -3.1330   18.7487    6.9608 H         1 UNF         0.2127
     31 H7         -4.4657   11.9700    7.5820 H         1 UNF         0.0937
     32 H8         -2.6131   13.4375    7.0975 H         1 UNF         0.0671
     33 H9         -1.0676   11.9879    9.2913 H         1 UNF         0.0649
     34 H10        -1.1776   14.0759   10.5629 H         1 UNF         0.0669
     35 H11        -2.9342   12.3711   10.8916 H         1 UNF         0.0794
     36 H12        -3.1997   10.1609    8.3138 H         1 UNF         0.2126
     37 H13        -1.6797   10.7483    7.3380 H         1 UNF         0.2101
     38 H14         0.4890   13.6058    8.7806 H         1 UNF         0.2100
@<TRIPOS>BOND
     1    1    2 1  
     2    7    1 1  
     3    1   10 1  
     4    2    3 1  
     5    2    8 1  
     6    3    4 1  
     7    3    9 1  
     8    5    4 2  
     9    5    6 1  
    10   10    5 1  
    11    6   11 ar 
    12    6   24 ar 
    13   15    7 1  
    14   13   12 1  
    15   12   18 1  
    16   12   21 1  
    17   14   13 1  
    18   13   19 1  
    19   14   15 1  
    20   14   20 1  
    21   15   16 1  
    22   16   17 1  
    23   16   21 1  
    24   17   22 ar 
    25   17   23 ar 
    26    1   25 1  
    27    2   26 1  
    28    3   27 1  
    29    4   28 1  
    30    8   29 1  
    31    9   30 1  
    32   12   31 1  
    33   13   32 1  
    34   14   33 1  
    35   15   34 1  
    36   16   35 1  
    37   18   36 1  
    38   19   37 1  
    39   20   38 1  
@<TRIPOS>SUBSTRUCTURE
     1 UNF         1

