### 
### Created by X-TOOL on Mon Sep 10 21:12:57 2018
### 

@<TRIPOS>MOLECULE
2w4i_ligand
   46    50     1     0     0
SMALL
GAST_HUCK


@<TRIPOS>ATOM
      1 N1         15.9620   -1.0420    4.7040 N.2       1 VGA        -0.3038
      2 C2         17.2450   -0.8280    4.8860 C.2       1 VGA         0.1441
      3 C3         17.6710    0.0300    6.0610 C.3       1 VGA         0.1423
      4 C4         15.9730    1.6150    5.9020 C.2       1 VGA         0.0516
      5 N5         17.2240    1.3990    5.7600 N.2       1 VGA        -0.3042
      6 C6         14.9550    0.5950    6.2440 C.ar      1 VGA         0.0183
      7 C7         14.9560   -0.6190    5.5650 C.ar      1 VGA         0.0135
      8 C8         13.9200   -1.4920    5.8640 C.ar      1 VGA        -0.0507
      9 C9         12.9080   -1.2060    6.7670 C.ar      1 VGA        -0.0638
     10 C10        12.8790    0.0020    7.4350 C.ar      1 VGA        -0.0626
     11 C11        13.9090    0.8930    7.1600 C.ar      1 VGA        -0.0513
     12 C12        15.4240    2.9330    5.5090 C.ar      1 VGA         0.0135
     13 N13        18.1730   -1.3400    4.0020 N.pl3     1 VGA        -0.2618
     14 C14        18.1130   -2.2440    2.8210 C.3       1 VGA         0.0684
     15 C15        19.5950   -1.9540    2.5100 C.3       1 VGA         0.0988
     16 C16        19.6360   -1.2310    3.8470 C.3       1 VGA         0.0684
     17 C17        16.2570    4.0230    5.2400 C.ar      1 VGA        -0.0434
     18 C18        15.7180    5.2340    4.8330 C.ar      1 VGA        -0.0542
     19 C19        14.3490    5.3750    4.6810 C.ar      1 VGA        -0.0556
     20 C20        13.5090    4.2940    4.9120 C.ar      1 VGA        -0.0542
     21 C21        14.0430    3.0740    5.3090 C.ar      1 VGA        -0.0434
     22 C22        19.1040    0.1500    6.4670 C.2       1 VGA         0.0488
     23 S23        19.8440    1.7350    6.4890 S.3       1 VGA        -0.0393
     24 C24        21.3280    1.0350    7.1180 C.2       1 VGA        -0.0181
     25 C25        21.1870   -0.2810    7.2690 C.2       1 VGA        -0.0914
     26 C26        19.9430   -0.7830    6.9190 C.2       1 VGA        -0.0763
     27 O27        20.4520   -3.0900    2.4900 O.3       1 VGA        -0.3875
     28 H1         17.1282   -0.3522    6.9381 H         1 VGA         0.0911
     29 H2         13.9009   -2.4529    5.3627 H         1 VGA         0.0564
     30 H3         12.1307   -1.9389    6.9508 H         1 VGA         0.0647
     31 H4         12.0913    0.2434    8.1395 H         1 VGA         0.0564
     32 H5         13.9155    1.8530    7.6635 H         1 VGA         0.0660
     33 H6         17.4176   -1.9102    2.0368 H         1 VGA         0.0569
     34 H7         17.9058   -3.2948    3.0718 H         1 VGA         0.0569
     35 H8         19.7706   -1.3301    1.6213 H         1 VGA         0.0637
     36 H9         20.2039   -1.7666    4.6220 H         1 VGA         0.0569
     37 H10        19.9973   -0.1943    3.7781 H         1 VGA         0.0569
     38 H11        17.3305    3.9209    5.3502 H         1 VGA         0.0683
     39 H12        16.3720    6.0750    4.6327 H         1 VGA         0.0635
     40 H13        13.9328    6.3300    4.3814 H         1 VGA         0.0669
     41 H14        12.4381    4.4015    4.7829 H         1 VGA         0.0635
     42 H15        13.3873    2.2250    5.4653 H         1 VGA         0.0683
     43 H16        22.2320    1.5958    7.3507 H         1 VGA         0.0610
     44 H17        21.9901   -0.9160    7.6402 H         1 VGA         0.0375
     45 H18        19.6771   -1.8356    7.0047 H         1 VGA         0.0293
     46 H19        20.3972   -3.5117    1.6405 H         1 VGA         0.2100
@<TRIPOS>BOND
     1    1    2 2  
     2    1    7 1  
     3    2    3 1  
     4    2   13 1  
     5    3    5 1  
     6    3   22 1  
     7    5    4 2  
     8    4    6 1  
     9    4   12 1  
    10    6    7 ar 
    11    6   11 ar 
    12    7    8 ar 
    13    8    9 ar 
    14    9   10 ar 
    15   10   11 ar 
    16   12   17 ar 
    17   12   21 ar 
    18   13   14 1  
    19   13   16 1  
    20   14   15 1  
    21   15   16 1  
    22   15   27 1  
    23   17   18 ar 
    24   18   19 ar 
    25   19   20 ar 
    26   20   21 ar 
    27   22   23 1  
    28   22   26 2  
    29   23   24 1  
    30   24   25 2  
    31   25   26 1  
    32    3   28 1  
    33    8   29 1  
    34    9   30 1  
    35   10   31 1  
    36   11   32 1  
    37   14   33 1  
    38   14   34 1  
    39   15   35 1  
    40   16   36 1  
    41   16   37 1  
    42   17   38 1  
    43   18   39 1  
    44   19   40 1  
    45   20   41 1  
    46   21   42 1  
    47   24   43 1  
    48   25   44 1  
    49   26   45 1  
    50   27   46 1  
@<TRIPOS>SUBSTRUCTURE
     1 VGA         1

