### 
### Created by X-TOOL on Mon Sep 10 21:13:00 2018
### 

@<TRIPOS>MOLECULE
2w4x_ligand
   33    33     1     0     0
SMALL
GAST_HUCK


@<TRIPOS>ATOM
      1 O3         -9.2680  -12.1810   11.2210 O.3       1 STZ        -0.3867
      2 C3         -8.7480  -11.0160   10.5860 C.3       1 STZ         0.1109
      3 C4         -7.9610  -10.1780   11.5810 C.3       1 STZ         0.1116
      4 O4         -8.8680   -9.6690   12.5840 O.3       1 STZ        -0.3865
      5 C5         -7.2120   -9.0840   10.8250 C.3       1 STZ         0.1130
      6 C6         -6.4480   -8.1600   11.7630 C.3       1 STZ         0.0730
      7 O6         -5.7580   -8.9270   12.7530 O.3       1 STZ        -0.3924
      8 O5         -6.3150   -9.6680    9.8570 O.3       1 STZ        -0.3410
      9 C1         -7.0480  -10.3630    8.8640 C.3       1 STZ         0.1822
     10 O1         -6.1340  -10.9620    7.9730 O.3       1 STZ        -0.3651
     11 C2         -7.8420  -11.5020    9.4800 C.3       1 STZ         0.1223
     12 N2         -8.6350  -12.1170    8.4380 N.am      1 STZ        -0.2516
     13 CAM        -9.4680  -11.4540    7.6510 C.2       1 STZ         0.3310
     14 OAG        -9.6550  -10.2590    7.7290 O.2       1 STZ        -0.3793
     15 NAN       -10.1250  -12.1610    6.7470 N.am      1 STZ        -0.0676
     16 CAH       -11.0950  -11.6520    5.7970 C.3       1 STZ         0.0819
     17 NAO        -9.8710  -13.5410    6.7170 N.2       1 STZ         0.0610
     18 OAP       -10.5100  -14.2030    5.9250 O.2       1 STZ        -0.2955
     19 H1         -9.8425  -11.9229   11.9322 H         1 STZ         0.2100
     20 H2         -9.5679  -10.4134   10.1682 H         1 STZ         0.0645
     21 H3         -7.2193  -10.8172   12.0822 H         1 STZ         0.0647
     22 H4         -8.3836   -9.1438   13.2101 H         1 STZ         0.2100
     23 H5         -7.9542   -8.4781   10.2847 H         1 STZ         0.0647
     24 H6         -7.1552   -7.4785   12.2583 H         1 STZ         0.0584
     25 H7         -5.7193   -7.5744   11.1833 H         1 STZ         0.0584
     26 H8         -6.3864   -9.4322   13.2553 H         1 STZ         0.2095
     27 H9         -7.7172   -9.6690    8.3344 H         1 STZ         0.0932
     28 H10        -6.6117  -11.4327    7.3001 H         1 STZ         0.2126
     29 H11        -7.1433  -12.2435    9.8947 H         1 STZ         0.0632
     30 H12        -8.5486  -13.1042    8.3038 H         1 STZ         0.1867
     31 H13       -11.4696  -12.4795    5.1765 H         1 STZ         0.0610
     32 H14       -10.6175  -10.8983    5.1536 H         1 STZ         0.0610
     33 H15       -11.9338  -11.1922    6.3401 H         1 STZ         0.0610
@<TRIPOS>BOND
     1    1    2 1  
     2    2    3 1  
     3    2   11 1  
     4    3    4 1  
     5    3    5 1  
     6    5    6 1  
     7    5    8 1  
     8    6    7 1  
     9    8    9 1  
    10    9   10 1  
    11    9   11 1  
    12   11   12 1  
    13   12   13 am 
    14   13   14 2  
    15   13   15 am 
    16   15   16 1  
    17   15   17 1  
    18   17   18 2  
    19    1   19 1  
    20    2   20 1  
    21    3   21 1  
    22    4   22 1  
    23    5   23 1  
    24    6   24 1  
    25    6   25 1  
    26    7   26 1  
    27    9   27 1  
    28   10   28 1  
    29   11   29 1  
    30   12   30 1  
    31   16   31 1  
    32   16   32 1  
    33   16   33 1  
@<TRIPOS>SUBSTRUCTURE
     1 STZ         1

