### 
### Created by X-TOOL on Mon Sep 10 21:12:57 2018
### 

@<TRIPOS>MOLECULE
2w54_ligand
   21    22     1     0     0
SMALL
GAST_HUCK


@<TRIPOS>ATOM
      1 C7         14.6360    8.8370   24.8920 C.ar      1 HHR         0.0349
      2 N8         15.2850    9.6180   24.0400 N.ar      1 HHR        -0.2812
      3 C9         16.5500    9.9980   24.2860 C.ar      1 HHR         0.0962
      4 N1         17.1830   10.7940   23.4030 N.2       1 HHR        -0.2823
      5 C2         18.4510   11.1970   23.6140 C.2       1 HHR         0.2384
      6 N2         19.0460   11.9840   22.7230 N.pl3     1 HHR        -0.2777
      7 C10        17.1910    9.5690   25.4590 C.ar      1 HHR         0.1482
      8 C4         18.5050    9.9690   25.7120 C.2       1 HHR         0.2597
      9 N3         19.1460   10.7960   24.7750 N.am      1 HHR        -0.1727
     10 O4         19.0970    9.6090   26.7300 O.2       1 HHR        -0.3771
     11 N5         16.5310    8.7760   26.3230 N.ar      1 HHR        -0.2643
     12 C6         15.2650    8.4030   26.0580 C.ar      1 HHR         0.0769
     13 C6A        14.5110    7.5060   27.0380 C.3       1 HHR         0.0957
     14 O6A        14.6710    7.6240   28.2510 O.3       1 HHR        -0.3803
     15 H1         13.6161    8.5357   24.6821 H         1 HHR         0.0871
     16 H2         18.5396   12.2772   21.8754 H         1 HHR         0.1916
     17 H3         20.0134   12.3006   22.8803 H         1 HHR         0.1916
     18 H4         20.0867   11.0981   24.9292 H         1 HHR         0.2533
     19 H5         14.7803    6.4698   26.7856 H         1 HHR         0.0746
     20 H6         13.4393    7.6634   26.8464 H         1 HHR         0.0746
     21 H7         14.1274    6.9902   28.7041 H         1 HHR         0.2129
@<TRIPOS>BOND
     1    1    2 ar 
     2    1   12 ar 
     3    2    3 ar 
     4    3    4 1  
     5    3    7 ar 
     6    4    5 2  
     7    5    6 1  
     8    5    9 am 
     9    7    8 1  
    10    7   11 ar 
    11    8    9 am 
    12    8   10 2  
    13   11   12 ar 
    14   12   13 1  
    15   13   14 1  
    16    1   15 1  
    17    6   16 1  
    18    6   17 1  
    19    9   18 1  
    20   13   19 1  
    21   13   20 1  
    22   14   21 1  
@<TRIPOS>SUBSTRUCTURE
     1 HHR         1

