### 
### Created by X-TOOL on Mon Sep 10 21:13:00 2018
### 

@<TRIPOS>MOLECULE
2w66_ligand
   35    35     1     0     0
SMALL
GAST_HUCK


@<TRIPOS>ATOM
      1 O9          5.8140  -10.0040    5.5050 O.2       1 HQ6        -0.3974
      2 C9          6.9450   -9.9230    5.9600 C.2       1 HQ6         0.1733
      3 C10         7.2630   -9.2940    7.3280 C.3       1 HQ6         0.0257
      4 N2          8.0650  -10.4360    5.2000 N.am      1 HQ6        -0.2788
      5 C5          7.9890  -11.3450    4.0440 C.3       1 HQ6         0.1012
      6 C6          7.4050  -12.7960    4.2300 C.3       1 HQ6         0.1200
      7 O6          7.7260  -13.6770    3.1340 O.3       1 HQ6        -0.3841
      8 C4          7.5180  -10.4890    2.8460 C.3       1 HQ6         0.1118
      9 O4          8.6890  -10.1550    2.0970 O.3       1 HQ6        -0.3866
     10 C3          6.4740  -11.0700    1.8760 C.3       1 HQ6         0.1276
     11 O3          6.3160  -10.1960    0.7820 O.3       1 HQ6        -0.3835
     12 C2          5.1280  -11.4320    2.5620 C.3       1 HQ6         0.0301
     13 C8          3.9690  -11.5510    1.5390 C.3       1 HQ6         0.0893
     14 O8          4.1680  -12.6890    0.7190 O.3       1 HQ6        -0.3894
     15 N1          5.2440  -12.7780    3.1200 N.4       1 HQ6         0.2346
     16 C7          5.8780  -12.8890    4.4070 C.3       1 HQ6        -0.0043
     17 H1          8.3469   -9.3406    7.5099 H         1 HQ6         0.0467
     18 H2          6.7345   -9.8477    8.1180 H         1 HQ6         0.0467
     19 H3          6.9351   -8.2441    7.3340 H         1 HQ6         0.0467
     20 H4          8.9776  -10.1453    5.4875 H         1 HQ6         0.1856
     21 H5          9.0421  -11.5636    3.8134 H         1 HQ6         0.0610
     22 H6          7.8701  -13.1992    5.1417 H         1 HQ6         0.0671
     23 H7          8.6697  -13.7528    3.0561 H         1 HQ6         0.2101
     24 H8          7.0821   -9.5688    3.2621 H         1 HQ6         0.0645
     25 H9          8.4437   -9.6259    1.3470 H         1 HQ6         0.2100
     26 H10         6.8856  -12.0115    1.4834 H         1 HQ6         0.0678
     27 H11         7.1477  -10.0985    0.3333 H         1 HQ6         0.2102
     28 H12         4.8902  -10.6903    3.3388 H         1 HQ6         0.0900
     29 H13         3.9422  -10.6484    0.9108 H         1 HQ6         0.0614
     30 H14         3.0152  -11.6513    2.0777 H         1 HQ6         0.0614
     31 H15         4.1904  -13.4686    1.2613 H         1 HQ6         0.2097
     32 H16         5.7749  -13.3345    2.4685 H         1 HQ6         0.2019
     33 H17         4.3132  -13.1556    3.2040 H         1 HQ6         0.2019
     34 H18         5.5329  -12.0727    5.0585 H         1 HQ6         0.0840
     35 H19         5.6188  -13.8562    4.8624 H         1 HQ6         0.0840
@<TRIPOS>BOND
     1    1    2 2  
     2    2    3 1  
     3    2    4 am 
     4    4    5 1  
     5    5    6 1  
     6    5    8 1  
     7    6    7 1  
     8    6   16 1  
     9    8    9 1  
    10    8   10 1  
    11   10   11 1  
    12   10   12 1  
    13   12   13 1  
    14   12   15 1  
    15   13   14 1  
    16   15   16 1  
    17    3   17 1  
    18    3   18 1  
    19    3   19 1  
    20    4   20 1  
    21    5   21 1  
    22    6   22 1  
    23    7   23 1  
    24    8   24 1  
    25    9   25 1  
    26   10   26 1  
    27   11   27 1  
    28   12   28 1  
    29   13   29 1  
    30   13   30 1  
    31   14   31 1  
    32   15   32 1  
    33   15   33 1  
    34   16   34 1  
    35   16   35 1  
@<TRIPOS>SUBSTRUCTURE
     1 HQ6         1

