### 
### Created by X-TOOL on Mon Sep 10 21:13:00 2018
### 

@<TRIPOS>MOLECULE
2w67_ligand
   31    31     1     0     0
SMALL
GAST_HUCK


@<TRIPOS>ATOM
      1 O8        -16.2050    2.8620   -3.5010 O.2       1 F34        -0.3974
      2 C8        -15.0350    2.7940   -3.8510 C.2       1 F34         0.1734
      3 C9        -14.6370    2.1650   -5.1690 C.3       1 F34         0.0257
      4 N2        -14.0380    3.3180   -3.1330 N.am      1 F34        -0.2764
      5 C3        -14.1600    3.9600   -1.8160 C.3       1 F34         0.1098
      6 C4        -14.6830    2.9220   -0.8580 C.3       1 F34         0.1114
      7 O4        -13.5300    2.1410   -0.4030 O.3       1 F34        -0.3866
      8 C5        -15.3270    3.4800    0.3840 C.3       1 F34         0.1141
      9 O5        -15.5900    2.3270    1.1740 O.3       1 F34        -0.3864
     10 C6        -16.5870    4.3380    0.2030 C.3       1 F34         0.1229
     11 O6        -17.6180    3.6160    0.8590 O.3       1 F34        -0.3838
     12 C7        -17.1020    4.6030   -1.2180 C.3       1 F34        -0.0044
     13 N1        -16.2080    5.3070   -2.1390 N.4       1 F34         0.2306
     14 C2        -14.8300    5.3410   -1.6680 C.3       1 F34        -0.0075
     15 H1        -13.5437    2.2100   -5.2814 H         1 F34         0.0467
     16 H2        -15.1133    2.7128   -5.9954 H         1 F34         0.0467
     17 H3        -14.9647    1.1151   -5.1880 H         1 F34         0.0467
     18 H4        -13.1211    3.2689   -3.5290 H         1 F34         0.1857
     19 H5        -13.1213    4.1526   -1.5096 H         1 F34         0.0636
     20 H6        -15.4060    2.2807   -1.3833 H         1 F34         0.0645
     21 H7        -13.8219    1.4728    0.2060 H         1 F34         0.2100
     22 H8        -14.5875    4.1120    0.8976 H         1 F34         0.0648
     23 H9        -16.0023    2.5899    1.9885 H         1 F34         0.2100
     24 H10       -16.4156    5.3090    0.6907 H         1 F34         0.0674
     25 H11       -17.3941    3.5091    1.7760 H         1 F34         0.2101
     26 H12       -18.0213    5.2005   -1.1296 H         1 F34         0.0840
     27 H13       -17.3399    3.6286   -1.6696 H         1 F34         0.0840
     28 H14       -16.5358    6.2542   -2.2459 H         1 F34         0.2015
     29 H15       -16.2322    4.8402   -3.0321 H         1 F34         0.2015
     30 H16       -14.2666    6.0790   -2.2578 H         1 F34         0.0837
     31 H17       -14.8196    5.6339   -0.6078 H         1 F34         0.0837
@<TRIPOS>BOND
     1    1    2 2  
     2    2    3 1  
     3    2    4 am 
     4    4    5 1  
     5    5    6 1  
     6    5   14 1  
     7    6    7 1  
     8    6    8 1  
     9    8    9 1  
    10    8   10 1  
    11   10   11 1  
    12   10   12 1  
    13   12   13 1  
    14   13   14 1  
    15    3   15 1  
    16    3   16 1  
    17    3   17 1  
    18    4   18 1  
    19    5   19 1  
    20    6   20 1  
    21    7   21 1  
    22    8   22 1  
    23    9   23 1  
    24   10   24 1  
    25   11   25 1  
    26   12   26 1  
    27   12   27 1  
    28   13   28 1  
    29   13   29 1  
    30   14   30 1  
    31   14   31 1  
@<TRIPOS>SUBSTRUCTURE
     1 F34         1

