### 
### Created by X-TOOL on Mon Sep 10 21:12:58 2018
### 

@<TRIPOS>MOLECULE
2w68_ligand
   81    83     1     0     0
SMALL
GAST_HUCK


@<TRIPOS>ATOM
      1 C1         25.4450  -37.8050   -6.3780 C.2       1 SIA         0.1041
      2 C2         24.2850  -36.9760   -5.8170 C.3       1 SIA         0.2208
      3 C3         23.0430  -37.1290   -6.6950 C.3       1 SIA         0.0353
      4 C4         22.3470  -38.4590   -6.5130 C.3       1 SIA         0.0850
      5 C5         22.0200  -38.6050   -5.0460 C.3       1 SIA         0.0964
      6 C6         23.3610  -38.6050   -4.3370 C.3       1 SIA         0.1143
      7 C7         23.3070  -38.9580   -2.8570 C.3       1 SIA         0.1114
      8 C8         24.6640  -38.7050   -2.1970 C.3       1 SIA         0.1065
      9 C9         24.6990  -39.1910   -0.7560 C.3       1 SIA         0.0727
     10 C10        20.2160  -40.2250   -4.5900 C.2       1 SIA         0.1733
     11 C11        19.8840  -41.6910   -4.5720 C.3       1 SIA         0.0257
     12 N5         21.4750  -39.9490   -4.9500 N.am      1 SIA        -0.2790
     13 O1A        26.0360  -38.6360   -5.6390 O.co2     1 SIA        -0.5426
     14 O1B        25.7990  -37.6280   -7.5790 O.co2     1 SIA        -0.5426
     15 O4         21.1700  -38.4970   -7.3160 O.3       1 SIA        -0.3893
     16 O6         24.0040  -37.3500   -4.4710 O.3       1 SIA        -0.3384
     17 O7         22.2390  -38.2680   -2.2230 O.3       1 SIA        -0.3865
     18 O8         25.6650  -39.4960   -2.8780 O.3       1 SIA        -0.3869
     19 O9         25.2470  -40.5300   -0.7550 O.3       1 SIA        -0.3924
     20 O10        19.3880  -39.3750   -4.2860 O.2       1 SIA        -0.3974
     21 C1         26.6100  -33.2270   -3.8570 C.3       1 GAL         0.1884
     22 C2         25.3560  -33.7440   -4.5300 C.3       1 GAL         0.1344
     23 C3         25.6940  -35.1030   -5.1360 C.3       1 GAL         0.1197
     24 C4         26.9240  -34.9890   -6.0440 C.3       1 GAL         0.1121
     25 C5         28.0880  -34.3650   -5.3020 C.3       1 GAL         0.1130
     26 C6         29.2960  -34.1930   -6.2170 C.3       1 GAL         0.0730
     27 O2         24.3320  -33.8310   -3.5430 O.3       1 GAL        -0.3841
     28 O3         24.5640  -35.5650   -5.8830 O.3       1 GAL        -0.3380
     29 O4         26.6150  -34.1520   -7.1650 O.3       1 GAL        -0.3865
     30 O5         27.6420  -33.0900   -4.8390 O.3       1 GAL        -0.3405
     31 O6         30.2840  -35.1700   -5.8590 O.3       1 GAL        -0.3924
     32 C2         28.5270  -29.5480   -1.5230 C.3       1 BGC         0.1339
     33 C3         27.6530  -30.0830   -2.6410 C.3       1 BGC         0.1144
     34 C4         27.4250  -31.5810   -2.4330 C.3       1 BGC         0.1184
     35 C5         27.1840  -31.9780   -0.9600 C.3       1 BGC         0.1134
     36 C6         28.3890  -32.7350   -0.3980 C.3       1 BGC         0.0730
     37 C1         27.8020  -29.7120   -0.1750 C.3       1 BGC         0.1854
     38 O1         28.7880  -29.8760    0.8480 O.3       1 BGC        -0.3649
     39 O2         28.8160  -28.1800   -1.7990 O.3       1 BGC        -0.3841
     40 O3         28.2830  -29.8380   -3.8990 O.3       1 BGC        -0.3864
     41 O4         26.3270  -31.9710   -3.2590 O.3       1 BGC        -0.3401
     42 O5         26.8830  -30.8390   -0.1300 O.3       1 BGC        -0.3407
     43 O6         28.1060  -34.1320   -0.3750 O.3       1 BGC        -0.3924
     44 H1         23.3452  -37.0335   -7.7484 H         1 SIA         0.0336
     45 H2         22.3348  -36.3261   -6.4424 H         1 SIA         0.0336
     46 H3         23.0171  -39.2751   -6.8211 H         1 SIA         0.0618
     47 H4         21.3358  -37.8317   -4.6667 H         1 SIA         0.0608
     48 H5         23.9837  -39.3642   -4.8328 H         1 SIA         0.0646
     49 H6         23.0975  -40.0346   -2.7736 H         1 SIA         0.0647
     50 H7         24.9052  -37.6329   -2.2462 H         1 SIA         0.0643
     51 H8         23.6807  -39.2030   -0.3401 H         1 SIA         0.0584
     52 H9         25.3340  -38.5262   -0.1520 H         1 SIA         0.0584
     53 H10        18.8358  -41.8258   -4.2670 H         1 SIA         0.0467
     54 H11        20.5428  -42.2074   -3.8584 H         1 SIA         0.0467
     55 H12        20.0304  -42.1125   -5.5774 H         1 SIA         0.0467
     56 H13        22.0790  -40.7159   -5.1667 H         1 SIA         0.1856
     57 H14        20.7267  -39.3273   -7.1871 H         1 SIA         0.2099
     58 H15        21.4259  -38.4624   -2.6740 H         1 SIA         0.2100
     59 H16        25.6983  -39.2430   -3.7931 H         1 SIA         0.2100
     60 H17        26.1243  -40.5122   -1.1191 H         1 SIA         0.2095
     61 H18        26.9346  -33.9366   -3.0817 H         1 SIA         0.0938
     62 H19        25.0371  -33.0558   -5.3267 H         1 SIA         0.0671
     63 H20        25.9115  -35.8171   -4.3281 H         1 SIA         0.0650
     64 H21        27.2080  -35.9919   -6.3955 H         1 SIA         0.0647
     65 H22        28.3691  -34.9992   -4.4483 H         1 SIA         0.0647
     66 H23        29.7128  -33.1824   -6.0946 H         1 SIA         0.0584
     67 H24        28.9919  -34.3399   -7.2639 H         1 SIA         0.0584
     68 H25        24.1551  -32.9650   -3.1946 H         1 SIA         0.2101
     69 H26        26.3812  -33.2846   -6.8562 H         1 SIA         0.2100
     70 H27        31.0425  -35.0729   -6.4227 H         1 SIA         0.2095
     71 H28        29.4689  -30.1152   -1.4904 H         1 SIA         0.0671
     72 H29        26.6820  -29.5666   -2.6208 H         1 SIA         0.0648
     73 H30        28.3257  -32.1131   -2.7731 H         1 SIA         0.0651
     74 H31        26.3149  -32.6518   -0.9339 H         1 SIA         0.0647
     75 H32        28.5964  -32.3864    0.6245 H         1 SIA         0.0584
     76 H33        29.2672  -32.5496   -1.0338 H         1 SIA         0.0584
     77 H34        27.2270  -28.7947    0.0198 H         1 SIA         0.0935
     78 H35        29.3920  -29.1431    0.8245 H         1 SIA         0.2126
     79 H36        29.2620  -28.1142   -2.6352 H         1 SIA         0.2101
     80 H37        28.4156  -28.9037   -4.0089 H         1 SIA         0.2100
     81 H38        28.8553  -34.6001   -0.0258 H         1 SIA         0.2095
@<TRIPOS>BOND
     1    2    1 1  
     2    1   13 ar 
     3    1   14 ar 
     4    2    3 1  
     5    2   16 1  
     6   28    2 1  
     7    3    4 1  
     8    4    5 1  
     9    4   15 1  
    10    6    5 1  
    11    5   12 1  
    12    6    7 1  
    13   16    6 1  
    14    7    8 1  
    15    7   17 1  
    16    8    9 1  
    17    8   18 1  
    18    9   19 1  
    19   10   11 1  
    20   12   10 am 
    21   10   20 2  
    22   21   22 1  
    23   21   30 1  
    24   41   21 1  
    25   22   23 1  
    26   22   27 1  
    27   23   24 1  
    28   23   28 1  
    29   25   24 1  
    30   24   29 1  
    31   25   26 1  
    32   30   25 1  
    33   26   31 1  
    34   33   32 1  
    35   32   37 1  
    36   32   39 1  
    37   34   33 1  
    38   33   40 1  
    39   34   35 1  
    40   34   41 1  
    41   35   36 1  
    42   35   42 1  
    43   36   43 1  
    44   37   38 1  
    45   37   42 1  
    46    3   44 1  
    47    3   45 1  
    48    4   46 1  
    49    5   47 1  
    50    6   48 1  
    51    7   49 1  
    52    8   50 1  
    53    9   51 1  
    54    9   52 1  
    55   11   53 1  
    56   11   54 1  
    57   11   55 1  
    58   12   56 1  
    59   15   57 1  
    60   17   58 1  
    61   18   59 1  
    62   19   60 1  
    63   21   61 1  
    64   22   62 1  
    65   23   63 1  
    66   24   64 1  
    67   25   65 1  
    68   26   66 1  
    69   26   67 1  
    70   27   68 1  
    71   29   69 1  
    72   31   70 1  
    73   32   71 1  
    74   33   72 1  
    75   34   73 1  
    76   35   74 1  
    77   36   75 1  
    78   36   76 1  
    79   37   77 1  
    80   38   78 1  
    81   39   79 1  
    82   40   80 1  
    83   43   81 1  
@<TRIPOS>SUBSTRUCTURE
     1 SIA         1

