### 
### Created by X-TOOL on Mon Sep 10 21:13:00 2018
### 

@<TRIPOS>MOLECULE
2w6c_ligand
   68    69     1     0     0
SMALL
GAST_HUCK


@<TRIPOS>ATOM
      1 OAU         5.8970   64.0220   63.0090 O.3       1 BM4        -0.3262
      2 CAS         4.8440   64.6790   63.5850 C.ar      1 BM4         0.1156
      3 CAQ         4.7150   66.0620   63.4300 C.ar      1 BM4        -0.0118
      4 CAT         3.9020   63.9670   64.3270 C.ar      1 BM4        -0.0039
      5 CAR         2.8340   64.6550   64.8960 C.ar      1 BM4        -0.0394
      6 CAP         2.7210   66.0400   64.7500 C.ar      1 BM4        -0.0490
      7 CAO         3.6720   66.7680   64.0310 C.ar      1 BM4        -0.0514
      8 CAC         3.5540   68.3130   63.8530 C.3       1 BM4        -0.0001
      9 CAM         2.5890   68.5520   62.6900 C.3       1 BM4        -0.0695
     10 CAN         3.3220   68.4300   61.3340 C.3       1 BM4        -0.0721
     11 CAB         2.9960   69.0340   65.1070 C.3       1 BM4        -0.0488
     12 CAD         4.9130   68.9230   63.4080 C.3       1 BM4        -0.0665
     13 CAE         5.9280   69.2000   64.5270 C.3       1 BM4        -0.0550
     14 CAF         5.3930   70.2400   65.5200 C.3       1 BM4        -0.0132
     15 CAG         4.7830   69.5700   66.7540 C.3       1 BM4        -0.0327
     16 NAA         3.7200   68.6370   66.3380 N.4       1 BM4         0.2296
     17 CAH         2.8680   68.2230   67.4750 C.3       1 BM4        -0.0326
     18 CAI         3.7430   67.4010   68.4660 C.3       1 BM4        -0.0125
     19 CAJ         3.0570   66.1110   68.9420 C.3       1 BM4        -0.0483
     20 CAK         4.0510   64.9850   69.2810 C.3       1 BM4        -0.0529
     21 CAL         3.3270   63.6260   69.4550 C.3       1 BM4        -0.0531
     22 CAV         2.7070   63.4570   70.8470 C.3       1 BM4        -0.0529
     23 CAW         1.3820   62.6860   70.8250 C.3       1 BM4        -0.0483
     24 CAX         1.2000   61.8240   72.0920 C.3       1 BM4        -0.0126
     25 CAY        -0.2190   61.9460   72.6800 C.3       1 BM4        -0.0354
     26 NAZ        -0.6340   60.6860   73.3320 N.4       1 BM4         0.2185
     27 H1          6.7117   64.3695   63.3525 H         1 BM4         0.2487
     28 H2          5.4412   66.5981   62.8297 H         1 BM4         0.0755
     29 H3          3.9999   62.8955   64.4585 H         1 BM4         0.0793
     30 H4          2.0830   64.1112   65.4576 H         1 BM4         0.0674
     31 H5          1.8824   66.5576   65.2016 H         1 BM4         0.0769
     32 H6          2.1604   69.5612   62.7786 H         1 BM4         0.0173
     33 H7          1.7819   67.8058   62.7320 H         1 BM4         0.0173
     34 H8          2.6092   68.6055   60.5148 H         1 BM4         0.0222
     35 H9          3.7499   67.4212   61.2379 H         1 BM4         0.0222
     36 H10         4.1283   69.1765   61.2846 H         1 BM4         0.0222
     37 H11         1.9324   68.7778   65.2213 H         1 BM4         0.0715
     38 H12         3.0987   70.1204   64.9683 H         1 BM4         0.0715
     39 H13         4.7035   69.8763   62.9008 H         1 BM4         0.0176
     40 H14         5.3785   68.2241   62.6975 H         1 BM4         0.0176
     41 H15         6.8597   69.5773   64.0803 H         1 BM4         0.0260
     42 H16         6.1326   68.2628   65.0653 H         1 BM4         0.0260
     43 H17         4.6210   70.8458   65.0230 H         1 BM4         0.0317
     44 H18         6.2210   70.8905   65.8382 H         1 BM4         0.0317
     45 H19         4.3565   70.3392   67.4145 H         1 BM4         0.0814
     46 H20         5.5652   69.0160   67.2936 H         1 BM4         0.0814
     47 H21         4.2090   67.7968   66.0716 H         1 BM4         0.2025
     48 H22         2.0362   67.6025   67.1102 H         1 BM4         0.0814
     49 H23         2.4667   69.1125   67.9826 H         1 BM4         0.0814
     50 H24         3.9610   68.0269   69.3439 H         1 BM4         0.0317
     51 H25         4.6843   67.1330   67.9638 H         1 BM4         0.0317
     52 H26         2.3864   65.7571   68.1451 H         1 BM4         0.0267
     53 H27         2.4679   66.3400   69.8423 H         1 BM4         0.0267
     54 H28         4.5708   65.2361   70.2173 H         1 BM4         0.0265
     55 H29         4.7848   64.8979   68.4662 H         1 BM4         0.0265
     56 H30         4.0546   62.8170   69.2938 H         1 BM4         0.0265
     57 H31         2.5272   63.5550   68.7031 H         1 BM4         0.0265
     58 H32         2.5245   64.4548   71.2726 H         1 BM4         0.0265
     59 H33         3.4190   62.9114   71.4836 H         1 BM4         0.0265
     60 H34         1.3665   62.0296   69.9425 H         1 BM4         0.0267
     61 H35         0.5523   63.4054   70.7616 H         1 BM4         0.0267
     62 H36         1.9269   62.1507   72.8502 H         1 BM4         0.0317
     63 H37         1.3872   60.7712   71.8341 H         1 BM4         0.0317
     64 H38        -0.9249   62.1808   71.8697 H         1 BM4         0.0813
     65 H39        -0.2315   62.7565   73.4236 H         1 BM4         0.0813
     66 H40        -1.5634   60.7922   73.7074 H         1 BM4         0.1994
     67 H41         0.0069   60.4670   74.0786 H         1 BM4         0.1994
     68 H42        -0.6285   59.9395   72.6547 H         1 BM4         0.1994
@<TRIPOS>BOND
     1    1    2 1  
     2    2    3 ar 
     3    2    4 ar 
     4    3    7 ar 
     5    4    5 ar 
     6    5    6 ar 
     7    6    7 ar 
     8    7    8 1  
     9    8    9 1  
    10    8   11 1  
    11    8   12 1  
    12    9   10 1  
    13   11   16 1  
    14   12   13 1  
    15   13   14 1  
    16   14   15 1  
    17   15   16 1  
    18   16   17 1  
    19   17   18 1  
    20   18   19 1  
    21   19   20 1  
    22   20   21 1  
    23   21   22 1  
    24   22   23 1  
    25   23   24 1  
    26   24   25 1  
    27   25   26 1  
    28    1   27 1  
    29    3   28 1  
    30    4   29 1  
    31    5   30 1  
    32    6   31 1  
    33    9   32 1  
    34    9   33 1  
    35   10   34 1  
    36   10   35 1  
    37   10   36 1  
    38   11   37 1  
    39   11   38 1  
    40   12   39 1  
    41   12   40 1  
    42   13   41 1  
    43   13   42 1  
    44   14   43 1  
    45   14   44 1  
    46   15   45 1  
    47   15   46 1  
    48   16   47 1  
    49   17   48 1  
    50   17   49 1  
    51   18   50 1  
    52   18   51 1  
    53   19   52 1  
    54   19   53 1  
    55   20   54 1  
    56   20   55 1  
    57   21   56 1  
    58   21   57 1  
    59   22   58 1  
    60   22   59 1  
    61   23   60 1  
    62   23   61 1  
    63   24   62 1  
    64   24   63 1  
    65   25   64 1  
    66   25   65 1  
    67   26   66 1  
    68   26   67 1  
    69   26   68 1  
@<TRIPOS>SUBSTRUCTURE
     1 BM4         1

