### 
### Created by X-TOOL on Mon Sep 10 21:13:00 2018
### 

@<TRIPOS>MOLECULE
2w6m_ligand
   22    23     1     0     0
SMALL
GAST_HUCK


@<TRIPOS>ATOM
      1 BR1         0.0340  -19.7960   22.6570 Br        1 OA1        -0.0487
      2 C7          1.7520  -20.4620   23.1640 C.ar      1 OA1         0.0184
      3 C3          1.9230  -21.9170   23.3010 C.ar      1 OA1        -0.0342
      4 C11         2.7250  -19.6750   23.3700 C.ar      1 OA1        -0.0480
      5 C8          3.8380  -20.0480   23.6890 C.ar      1 OA1        -0.0535
      6 C4          4.1540  -21.2660   23.8550 C.ar      1 OA1        -0.0412
      7 C1          3.1400  -22.3240   23.6600 C.ar      1 OA1         0.0352
      8 C2          3.4680  -23.7410   23.8280 C.2       1 OA1         0.1776
      9 O6          4.5840  -24.1360   23.5240 O.2       1 OA1        -0.3793
     10 C5          2.5260  -24.7370   24.3420 C.2       1 OA1         0.1779
     11 O10         2.8320  -26.1340   24.1480 O.3       1 OA1        -0.2001
     12 C14         1.6790  -26.6790   24.8070 C.2       1 OA1         0.2754
     13 N15         1.4580  -27.9850   24.9210 N.pl3     1 OA1        -0.2805
     14 N13         0.9820  -25.7120   25.2230 N.2       1 OA1        -0.2978
     15 C9          1.4350  -24.5940   24.9800 C.2       1 OA1        -0.0012
     16 H1          1.1114  -22.6128   23.1215 H         1 OA1         0.0696
     17 H2          2.5553  -18.6105   23.2554 H         1 OA1         0.0679
     18 H3          4.6045  -19.2965   23.8403 H         1 OA1         0.0636
     19 H4          5.1661  -21.5302   24.1394 H         1 OA1         0.0691
     20 H5          0.6139  -28.3243   25.4040 H         1 OA1         0.1861
     21 H6          2.1309  -28.6576   24.5263 H         1 OA1         0.1861
     22 H7          0.9802  -23.6457   25.2625 H         1 OA1         0.0577
@<TRIPOS>BOND
     1    1    2 1  
     2    2    3 ar 
     3    2    4 ar 
     4    3    7 ar 
     5    4    5 ar 
     6    5    6 ar 
     7    6    7 ar 
     8    7    8 1  
     9    8    9 2  
    10    8   10 1  
    11   10   11 1  
    12   10   15 2  
    13   11   12 1  
    14   12   13 1  
    15   12   14 2  
    16   14   15 1  
    17    3   16 1  
    18    4   17 1  
    19    5   18 1  
    20    6   19 1  
    21   13   20 1  
    22   13   21 1  
    23   15   22 1  
@<TRIPOS>SUBSTRUCTURE
     1 OA1         1

