### 
### Created by X-TOOL on Mon Sep 10 21:13:00 2018
### 

@<TRIPOS>MOLECULE
2w6n_ligand
   40    42     1     0     0
SMALL
GAST_HUCK


@<TRIPOS>ATOM
      1 O2          4.7780  -24.3280   23.2950 O.2       1 OA2        -0.3936
      2 C1          3.8310  -23.6740   23.7420 C.2       1 OA2         0.2288
      3 C3          2.6920  -24.4920   24.3020 C.2       1 OA2         0.1933
      4 O4          2.9270  -25.8280   24.1360 O.3       1 OA2        -0.1991
      5 C6          1.8280  -26.3890   24.6940 C.2       1 OA2         0.2746
      6 N8          1.6810  -27.7340   24.7320 N.pl3     1 OA2        -0.2809
      7 N7          0.9390  -25.5240   25.2090 N.2       1 OA2        -0.2991
      8 C5          1.4700  -24.2950   24.9650 C.2       1 OA2        -0.0008
      9 N13         3.8840  -22.3260   23.7160 N.am      1 OA2        -0.2513
     10 C10         4.9510  -21.6090   23.0110 C.3       1 OA2         0.0685
     11 C9          5.7770  -20.7960   23.9920 C.ar      1 OA2        -0.0207
     12 C11         5.9040  -19.4100   23.8250 C.ar      1 OA2        -0.0584
     13 C14         6.6590  -18.6640   24.7270 C.ar      1 OA2        -0.0685
     14 C17         7.2910  -19.2950   25.7920 C.ar      1 OA2        -0.0687
     15 C15         7.1600  -20.6720   25.9670 C.ar      1 OA2        -0.0685
     16 C12         6.3940  -21.4260   25.0660 C.ar      1 OA2        -0.0584
     17 C16         2.9350  -21.4250   24.3540 C.3       1 OA2         0.0685
     18 C18         2.0070  -20.7970   23.3440 C.ar      1 OA2        -0.0207
     19 C19         1.7350  -21.4000   22.1220 C.ar      1 OA2        -0.0584
     20 C21         0.8780  -20.7840   21.2200 C.ar      1 OA2        -0.0685
     21 C23         0.2840  -19.5650   21.5410 C.ar      1 OA2        -0.0687
     22 C22         0.5620  -18.9610   22.7560 C.ar      1 OA2        -0.0685
     23 C20         1.4250  -19.5760   23.6570 C.ar      1 OA2        -0.0584
     24 H1          0.8403  -28.1483   25.1593 H         1 OA2         0.1859
     25 H2          2.4098  -28.3432   24.3337 H         1 OA2         0.1859
     26 H3          1.0289  -23.3364   25.2341 H         1 OA2         0.0569
     27 H4          4.5040  -20.9340   22.2663 H         1 OA2         0.0686
     28 H5          5.6023  -22.3355   22.5031 H         1 OA2         0.0686
     29 H6          5.4139  -18.9180   22.9926 H         1 OA2         0.0557
     30 H7          6.7536  -17.5918   24.5984 H         1 OA2         0.0599
     31 H8          7.8868  -18.7155   26.4878 H         1 OA2         0.0559
     32 H9          7.6510  -21.1606   26.8008 H         1 OA2         0.0599
     33 H10         6.2838  -22.4952   25.2068 H         1 OA2         0.0557
     34 H11         3.4901  -20.6296   24.8729 H         1 OA2         0.0686
     35 H12         2.3385  -21.9920   25.0839 H         1 OA2         0.0686
     36 H13         2.1918  -22.3510   21.8731 H         1 OA2         0.0557
     37 H14         0.6706  -21.2520   20.2645 H         1 OA2         0.0599
     38 H15        -0.3943  -19.0904   20.8412 H         1 OA2         0.0559
     39 H16         0.1071  -18.0090   23.0047 H         1 OA2         0.0599
     40 H17         1.6438  -19.1006   24.6063 H         1 OA2         0.0557
@<TRIPOS>BOND
     1    1    2 2  
     2    2    3 1  
     3    2    9 am 
     4    3    4 1  
     5    3    8 2  
     6    4    5 1  
     7    5    6 1  
     8    5    7 2  
     9    7    8 1  
    10    9   10 1  
    11    9   17 1  
    12   10   11 1  
    13   11   12 ar 
    14   11   16 ar 
    15   12   13 ar 
    16   13   14 ar 
    17   14   15 ar 
    18   15   16 ar 
    19   17   18 1  
    20   18   19 ar 
    21   18   23 ar 
    22   19   20 ar 
    23   20   21 ar 
    24   21   22 ar 
    25   22   23 ar 
    26    6   24 1  
    27    6   25 1  
    28    8   26 1  
    29   10   27 1  
    30   10   28 1  
    31   12   29 1  
    32   13   30 1  
    33   14   31 1  
    34   15   32 1  
    35   16   33 1  
    36   17   34 1  
    37   17   35 1  
    38   19   36 1  
    39   20   37 1  
    40   21   38 1  
    41   22   39 1  
    42   23   40 1  
@<TRIPOS>SUBSTRUCTURE
     1 OA2         1

