### 
### Created by X-TOOL on Mon Sep 10 21:13:02 2018
### 

@<TRIPOS>MOLECULE
2w6o_ligand
   27    28     1     0     0
SMALL
GAST_HUCK


@<TRIPOS>ATOM
      1 O8         19.4530   10.8210    0.5560 O.2       1 OA3        -0.3859
      2 C3         18.6550   10.2790   -0.1970 C.2       1 OA3         0.1331
      3 C7         17.6110    9.3320    0.3580 C.3       1 OA3         0.0281
      4 C11        17.6120    8.0660   -0.4880 C.3       1 OA3        -0.0060
      5 C38        16.6110    7.0540    0.0590 C.3       1 OA3        -0.0554
      6 C40        18.9970    7.4230   -0.4020 C.3       1 OA3        -0.0554
      7 C5         17.2590    8.4090   -1.9390 C.3       1 OA3         0.0097
      8 C2         17.9970    9.6140   -2.5140 C.ar      1 OA3         0.0510
      9 N6         18.0050    9.8290   -3.8530 N.ar      1 OA3        -0.2765
     10 C12        18.6380   10.8770   -4.4040 C.ar      1 OA3         0.0685
     11 N9         19.2900   11.7510   -3.6210 N.ar      1 OA3        -0.2538
     12 C4         19.3140   11.5810   -2.2750 C.ar      1 OA3         0.1381
     13 C1         18.6670   10.5080   -1.6900 C.ar      1 OA3         0.1007
     14 N10        19.9680   12.4670   -1.5010 N.pl3     1 OA3        -0.3123
     15 H1         16.6194    9.8062    0.3157 H         1 OA3         0.0489
     16 H2         17.8536    9.0817    1.4013 H         1 OA3         0.0489
     17 H3         16.6271    6.1483   -0.5650 H         1 OA3         0.0238
     18 H4         15.6019    7.4916    0.0441 H         1 OA3         0.0238
     19 H5         16.8819    6.7921    1.0924 H         1 OA3         0.0238
     20 H6         19.7513    8.1240   -0.7888 H         1 OA3         0.0238
     21 H7         19.0113    6.5012   -1.0021 H         1 OA3         0.0238
     22 H8         19.2246    7.1814    0.6467 H         1 OA3         0.0238
     23 H9         16.1795    8.6146   -1.9882 H         1 OA3         0.0496
     24 H10        17.4946    7.5346   -2.5635 H         1 OA3         0.0496
     25 H11        18.6226   11.0171   -5.4788 H         1 OA3         0.1097
     26 H12        19.9885   12.3414   -0.4789 H         1 OA3         0.1830
     27 H13        20.4480   13.2706   -1.9308 H         1 OA3         0.1830
@<TRIPOS>BOND
     1    1    2 2  
     2    2    3 1  
     3    2   13 1  
     4    3    4 1  
     5    4    5 1  
     6    4    6 1  
     7    4    7 1  
     8    7    8 1  
     9    8    9 ar 
    10    8   13 ar 
    11    9   10 ar 
    12   10   11 ar 
    13   11   12 ar 
    14   12   13 ar 
    15   12   14 1  
    16    3   15 1  
    17    3   16 1  
    18    5   17 1  
    19    5   18 1  
    20    5   19 1  
    21    6   20 1  
    22    6   21 1  
    23    6   22 1  
    24    7   23 1  
    25    7   24 1  
    26   10   25 1  
    27   14   26 1  
    28   14   27 1  
@<TRIPOS>SUBSTRUCTURE
     1 OA3         1

