### 
### Created by X-TOOL on Mon Sep 10 21:13:00 2018
### 

@<TRIPOS>MOLECULE
2w6p_ligand
   33    35     1     0     0
SMALL
GAST_HUCK


@<TRIPOS>ATOM
      1 C1          3.8980  -24.7580   24.4630 C.ar      1 OA4         0.0208
      2 C2          3.1600  -23.8480   25.2400 C.ar      1 OA4         0.0516
      3 C3          1.9130  -24.3210   25.7360 C.ar      1 OA4         0.1319
      4 N4          1.5130  -25.5850   25.4710 N.ar      1 OA4        -0.2406
      5 C5          2.2700  -26.4180   24.7280 C.ar      1 OA4         0.1579
      6 N6          3.4480  -26.0070   24.2230 N.ar      1 OA4        -0.2947
      7 N7          1.0210  -23.6410   26.4960 N.pl3     1 OA4        -0.3079
      8 C8          5.1270  -24.4250   23.9150 C.ar      1 OA4        -0.0549
      9 C9          5.6500  -23.1650   24.1240 C.ar      1 OA4        -0.0600
     10 C12         4.9510  -22.2260   24.8820 C.ar      1 OA4        -0.0124
     11 C13         3.7080  -22.5530   25.4540 C.ar      1 OA4        -0.0166
     12 N14         1.8390  -27.6700   24.4780 N.pl3     1 OA4        -0.3074
     13 C26         7.6540  -19.7410   25.7260 C.ar      1 OA4        -0.0638
     14 C27         7.0590  -18.5320   25.3870 C.ar      1 OA4        -0.0641
     15 C10         2.9910  -21.5090   26.2790 C.3       1 OA4        -0.0244
     16 C22         5.7630  -18.5070   24.8820 C.ar      1 OA4        -0.0638
     17 C23         5.0510  -19.6940   24.7070 C.ar      1 OA4        -0.0578
     18 CAP         5.6390  -20.9100   25.0510 C.ar      1 OA4        -0.0247
     19 C25         6.9440  -20.9270   25.5530 C.ar      1 OA4        -0.0578
     20 H1          0.1465  -24.0959   26.7948 H         1 OA4         0.1878
     21 H2          1.2173  -22.6691   26.7750 H         1 OA4         0.1878
     22 H3          5.6748  -25.1509   23.3250 H         1 OA4         0.0520
     23 H4          6.6109  -22.9034   23.6959 H         1 OA4         0.0647
     24 H5          0.9385  -27.9908   24.8614 H         1 OA4         0.1834
     25 H6          2.4101  -28.3062   23.9035 H         1 OA4         0.1834
     26 H7          8.6629  -19.7612   26.1220 H         1 OA4         0.0611
     27 H8          7.6064  -17.6054   25.5164 H         1 OA4         0.0598
     28 H9          2.0418  -21.9231   26.6498 H         1 OA4         0.0425
     29 H10         2.7871  -20.6257   25.6559 H         1 OA4         0.0425
     30 H11         3.6222  -21.2185   27.1317 H         1 OA4         0.0425
     31 H12         5.3037  -17.5599   24.6230 H         1 OA4         0.0611
     32 H13         4.0445  -19.6706   24.3051 H         1 OA4         0.0601
     33 H14         7.4078  -21.8725   25.8101 H         1 OA4         0.0601
@<TRIPOS>BOND
     1    2    1 ar 
     2    1    6 ar 
     3    8    1 ar 
     4    2    3 ar 
     5   11    2 ar 
     6    3    4 ar 
     7    3    7 1  
     8    4    5 ar 
     9    6    5 ar 
    10    5   12 1  
    11    9    8 ar 
    12   10    9 ar 
    13   10   11 ar 
    14   18   10 1  
    15   11   15 1  
    16   14   13 ar 
    17   13   19 ar 
    18   16   14 ar 
    19   17   16 ar 
    20   17   18 ar 
    21   18   19 ar 
    22    7   20 1  
    23    7   21 1  
    24    8   22 1  
    25    9   23 1  
    26   12   24 1  
    27   12   25 1  
    28   13   26 1  
    29   14   27 1  
    30   15   28 1  
    31   15   29 1  
    32   15   30 1  
    33   16   31 1  
    34   17   32 1  
    35   19   33 1  
@<TRIPOS>SUBSTRUCTURE
     1 OA4         1

