### 
### Created by X-TOOL on Sun Sep  9 21:51:05 2018
### 

@<TRIPOS>MOLECULE
2w6u_ligand
  109   109     1     0     0
SMALL
GAST_HUCK


@<TRIPOS>ATOM
      1 N         -69.6480  -36.6590   20.0390 N.4       1 NON         0.2396
      2 CA        -70.0210  -37.9770   19.4540 C.3       1 NON         0.0885
      3 C         -68.8470  -38.8820   19.8100 C.2       1 NON         0.2290
      4 O         -67.7490  -38.6880   19.2720 O.2       1 NON        -0.3906
      5 CB        -71.3860  -38.4440   20.0130 C.3       1 NON         0.1041
      6 OG        -71.3860  -39.7860   20.4650 O.3       1 NON        -0.3870
      7 N         -69.0700  -39.8790   20.6660 N.am      1 NON        -0.2612
      8 CA        -68.0280  -40.3700   21.5830 C.3       1 NON         0.1283
      9 C         -66.7050  -41.1060   21.1510 C.2       1 NON         0.2036
     10 O         -65.8230  -41.2440   22.0020 O.2       1 NON        -0.3944
     11 CB        -68.6860  -41.0870   22.7720 C.3       1 NON        -0.0244
     12 C1        -65.0300  -43.6140   20.2410 C.2       1 NON         0.2039
     13 C2        -65.2610  -42.2980   19.5030 C.3       1 NON         0.1311
     14 C3        -63.9550  -41.4740   19.6500 C.3       1 NON        -0.0095
     15 C4        -63.6160  -40.6550   18.4120 C.3       1 NON        -0.0132
     16 C5        -62.4170  -39.7180   18.5650 C.3       1 NON         0.1308
     17 C6        -61.5300  -38.3770   20.3950 C.2       1 NON         0.4127
     18 C7        -60.2320  -39.0380   20.0130 C.3       1 NON         0.0884
     19 N1        -66.5260  -41.5610   19.9020 N.am      1 NON        -0.2637
     20 N2        -62.5860  -38.7460   19.6540 N.2       1 NON         0.0422
     21 O1        -64.2210  -43.6670   21.1950 O.2       1 NON        -0.3944
     22 O2        -63.6890  -38.2430   19.8690 O.2       1 NON         0.0576
     23 O3        -61.5330  -37.5740   21.3160 O.2       1 NON        -0.1654
     24 N         -65.7070  -44.6870   19.8070 N.am      1 NON        -0.2637
     25 CA        -65.8910  -45.8940   20.6730 C.3       1 NON         0.1310
     26 CB        -64.5760  -46.6130   21.0670 C.3       1 NON        -0.0106
     27 CG        -64.7770  -47.9430   21.8200 C.3       1 NON        -0.0285
     28 CD        -63.6820  -48.3520   22.8460 C.3       1 NON         0.0312
     29 NE        -63.9610  -47.9140   24.2340 N.am      1 NON        -0.2850
     30 C         -66.6130  -45.4520   21.9360 C.2       1 NON         0.2040
     31 O         -67.2780  -44.3960   21.9430 O.2       1 NON        -0.3944
     32 N         -66.4870  -46.2490   22.9950 N.am      1 NON        -0.2622
     33 CA        -67.0800  -45.8930   24.2920 C.3       1 NON         0.1423
     34 C         -66.7150  -44.4830   24.7890 C.2       1 NON         0.2056
     35 O         -67.5530  -43.7000   25.2670 O.2       1 NON        -0.3943
     36 CB        -68.5710  -46.3390   24.4970 C.3       1 NON         0.0406
     37 CG        -69.5440  -45.6970   23.5030 C.2       1 NON         0.0393
     38 OD1       -69.5590  -44.4410   23.4790 O.co2     1 NON        -0.5688
     39 OD2       -70.2910  -46.4310   22.7820 O.co2     1 NON        -0.5688
     40 C1        -64.5710  -44.8770   26.4980 C.2       1 NON         0.2040
     41 C2        -64.4920  -43.6800   25.5530 C.3       1 NON         0.1311
     42 C3        -64.6900  -42.2500   26.0890 C.3       1 NON        -0.0095
     43 C4        -64.7120  -41.2020   24.9690 C.3       1 NON        -0.0132
     44 C5        -63.3450  -40.6380   24.6030 C.3       1 NON         0.1308
     45 C6        -62.9750  -38.2080   24.3480 C.2       1 NON         0.4127
     46 C7        -62.3840  -38.3090   25.7260 C.3       1 NON         0.0884
     47 N1        -65.4370  -44.1720   24.5310 N.am      1 NON        -0.2636
     48 N2        -63.4340  -39.3500   23.8870 N.2       1 NON         0.0422
     49 O1        -64.8450  -44.7600   27.7020 O.2       1 NON        -0.3944
     50 O2        -63.9050  -39.2340   22.7640 O.2       1 NON         0.0576
     51 O3        -63.0620  -37.1600   23.6960 O.2       1 NON        -0.1654
     52 N         -64.3090  -46.0440   25.8840 N.am      1 NON        -0.2616
     53 CA        -64.7840  -47.3940   26.2860 C.3       1 NON         0.1538
     54 C         -64.9280  -48.2860   25.0050 C.2       1 NON         0.2039
     55 O         -66.0490  -48.5620   24.5350 O.2       1 NON        -0.3945
     56 CB        -66.1090  -47.3070   27.1040 C.3       1 NON         0.0843
     57 OG        -66.8220  -48.5300   27.1110 O.3       1 NON        -0.3903
     58 H1        -70.3769  -35.9890   19.8497 H         1 NON         0.2016
     59 H2        -68.7844  -36.3411   19.6277 H         1 NON         0.2016
     60 H3        -69.5303  -36.7549   21.0355 H         1 NON         0.2016
     61 H4        -70.1054  -37.8998   18.3600 H         1 NON         0.1122
     62 H5        -72.1394  -38.3453   19.2176 H         1 NON         0.0640
     63 H6        -71.6568  -37.7930   20.8573 H         1 NON         0.0640
     64 H7        -72.2492  -40.0082   20.7939 H         1 NON         0.2099
     65 H8        -69.9735  -40.3070   20.6860 H         1 NON         0.1884
     66 H9        -67.6346  -39.4323   22.0023 H         1 NON         0.0797
     67 H10       -67.9065  -41.4533   23.4563 H         1 NON         0.0277
     68 H11       -69.2802  -41.9367   22.4046 H         1 NON         0.0277
     69 H12       -69.3423  -40.3844   23.3064 H         1 NON         0.0277
     70 H13       -65.3789  -42.5371   18.4358 H         1 NON         0.0800
     71 H14       -63.1248  -42.1681   19.8473 H         1 NON         0.0313
     72 H15       -64.0694  -40.7876   20.5019 H         1 NON         0.0313
     73 H16       -64.4948  -40.0453   18.1550 H         1 NON         0.0299
     74 H17       -63.4007  -41.3530   17.5895 H         1 NON         0.0299
     75 H18       -62.2786  -39.1683   17.6223 H         1 NON         0.0703
     76 H19       -61.5222  -40.3237   18.7710 H         1 NON         0.0703
     77 H20       -59.4285  -38.6758   20.6712 H         1 NON         0.0827
     78 H21       -59.9890  -38.7926   18.9686 H         1 NON         0.0827
     79 H22       -60.3303  -40.1283   20.1202 H         1 NON         0.0827
     80 H23       -67.2413  -41.4114   19.2194 H         1 NON         0.1883
     81 H24       -66.0969  -44.6807   18.8861 H         1 NON         0.1883
     82 H25       -66.5197  -46.6138   20.1284 H         1 NON         0.0800
     83 H26       -63.9946  -45.9375   21.7117 H         1 NON         0.0313
     84 H27       -64.0090  -46.8208   20.1476 H         1 NON         0.0313
     85 H28       -64.8405  -48.7429   21.0676 H         1 NON         0.0287
     86 H29       -65.7307  -47.8745   22.3638 H         1 NON         0.0287
     87 H30       -62.7274  -47.9072   22.5285 H         1 NON         0.0520
     88 H31       -63.5954  -49.4486   22.8404 H         1 NON         0.0520
     89 H32       -63.3223  -47.2490   24.6210 H         1 NON         0.1851
     90 H33       -65.9793  -47.1060   22.9064 H         1 NON         0.1884
     91 H34       -66.5393  -46.5439   24.9948 H         1 NON         0.0819
     92 H35       -68.8804  -46.0614   25.5154 H         1 NON         0.0478
     93 H36       -68.6264  -47.4315   24.3819 H         1 NON         0.0478
     94 H37       -63.4838  -43.6639   25.1135 H         1 NON         0.0800
     95 H38       -63.8652  -42.0137   26.7774 H         1 NON         0.0313
     96 H39       -65.6453  -42.2058   26.6325 H         1 NON         0.0313
     97 H40       -65.3523  -40.3679   25.2918 H         1 NON         0.0299
     98 H41       -65.1426  -41.6685   24.0707 H         1 NON         0.0299
     99 H42       -62.8257  -41.3633   23.9594 H         1 NON         0.0703
    100 H43       -62.7672  -40.4879   25.5269 H         1 NON         0.0703
    101 H44       -62.0228  -37.3197   26.0434 H         1 NON         0.0827
    102 H45       -61.5442  -39.0193   25.7136 H         1 NON         0.0827
    103 H46       -63.1524  -38.6619   26.4296 H         1 NON         0.0827
    104 H47       -65.1050  -44.2792   23.5938 H         1 NON         0.1883
    105 H48       -63.7320  -45.9990   25.0685 H         1 NON         0.1884
    106 H49       -64.0215  -47.8495   26.9349 H         1 NON         0.0823
    107 H50       -66.7474  -46.5289   26.6602 H         1 NON         0.0606
    108 H51       -65.8660  -47.0342   28.1416 H         1 NON         0.0606
    109 H52       -67.0431  -48.7715   26.2192 H         1 NON         0.2097
@<TRIPOS>BOND
     1    2    1 1  
     2    3    2 1  
     3    2    5 1  
     4    3    4 2  
     5    7    3 am 
     6    5    6 1  
     7    8    7 1  
     8    9    8 1  
     9    8   11 1  
    10    9   10 2  
    11   19    9 am 
    12   12   13 1  
    13   12   21 2  
    14   24   12 am 
    15   13   14 1  
    16   13   19 1  
    17   14   15 1  
    18   15   16 1  
    19   16   20 1  
    20   17   18 1  
    21   20   17 1  
    22   17   23 2  
    23   20   22 2  
    24   25   24 1  
    25   25   26 1  
    26   30   25 1  
    27   26   27 1  
    28   27   28 1  
    29   28   29 1  
    30   29   54 am 
    31   30   31 2  
    32   32   30 am 
    33   33   32 1  
    34   34   33 1  
    35   33   36 1  
    36   34   35 2  
    37   47   34 am 
    38   36   37 1  
    39   37   38 ar 
    40   37   39 ar 
    41   41   40 1  
    42   40   49 2  
    43   40   52 am 
    44   42   41 1  
    45   41   47 1  
    46   43   42 1  
    47   44   43 1  
    48   48   44 1  
    49   45   46 1  
    50   45   48 1  
    51   45   51 2  
    52   48   50 2  
    53   52   53 1  
    54   53   54 1  
    55   53   56 1  
    56   54   55 2  
    57   56   57 1  
    58    1   58 1  
    59    1   59 1  
    60    1   60 1  
    61    2   61 1  
    62    5   62 1  
    63    5   63 1  
    64    6   64 1  
    65    7   65 1  
    66    8   66 1  
    67   11   67 1  
    68   11   68 1  
    69   11   69 1  
    70   13   70 1  
    71   14   71 1  
    72   14   72 1  
    73   15   73 1  
    74   15   74 1  
    75   16   75 1  
    76   16   76 1  
    77   18   77 1  
    78   18   78 1  
    79   18   79 1  
    80   19   80 1  
    81   24   81 1  
    82   25   82 1  
    83   26   83 1  
    84   26   84 1  
    85   27   85 1  
    86   27   86 1  
    87   28   87 1  
    88   28   88 1  
    89   29   89 1  
    90   32   90 1  
    91   33   91 1  
    92   36   92 1  
    93   36   93 1  
    94   41   94 1  
    95   42   95 1  
    96   42   96 1  
    97   43   97 1  
    98   43   98 1  
    99   44   99 1  
   100   44  100 1  
   101   46  101 1  
   102   46  102 1  
   103   46  103 1  
   104   47  104 1  
   105   52  105 1  
   106   53  106 1  
   107   56  107 1  
   108   56  108 1  
   109   57  109 1  
@<TRIPOS>SUBSTRUCTURE
     1 NON         1

