### 
### Created by X-TOOL on Mon Sep 10 21:13:00 2018
### 

@<TRIPOS>MOLECULE
2w6z_ligand
   29    30     1     0     0
SMALL
GAST_HUCK


@<TRIPOS>ATOM
      1 C14         1.3260  -20.4300   21.5610 C.3       1 L21        -0.0406
      2 C13         1.6000  -20.6690   23.0180 C.2       1 L21        -0.0857
      3 C15         2.2600  -21.7840   23.3840 C.2       1 L21        -0.0916
      4 C12         1.1190  -19.6250   23.9820 C.3       1 L21        -0.0406
      5 N10         2.1580  -27.7970   24.6540 N.pl3     1 L21        -0.2686
      6 C6          2.2830  -26.4590   24.6930 C.ar      1 L21         0.2261
      7 C5          3.4650  -25.8200   24.0800 C.ar      1 L21         0.2147
      8 N9          4.5840  -26.1890   23.4250 N.2       1 L21        -0.1850
      9 C4          3.5080  -24.3710   24.1810 C.ar      1 L21         0.2283
     10 N7          4.6360  -23.9560   23.5860 N.pl3     1 L21        -0.1878
     11 C8          5.2850  -25.0630   23.1320 C.2       1 L21         0.1805
     12 C80         2.6240  -22.2020   24.8070 C.3       1 L21         0.0341
     13 N3          2.5440  -23.6630   24.7890 N.ar      1 L21        -0.2785
     14 C2          1.4800  -24.3070   25.3160 C.ar      1 L21         0.1048
     15 N1          1.3510  -25.6530   25.2790 N.ar      1 L21        -0.1962
     16 H1          0.7827  -19.4811   21.4409 H         1 L21         0.0375
     17 H2          0.7165  -21.2544   21.1625 H         1 L21         0.0375
     18 H3          2.2780  -20.3793   21.0123 H         1 L21         0.0375
     19 H4          2.5654  -22.4564   22.5836 H         1 L21         0.0257
     20 H5          1.3834  -19.9231   25.0073 H         1 L21         0.0375
     21 H6          0.0267  -19.5250   23.8994 H         1 L21         0.0375
     22 H7          1.5943  -18.6614   23.7463 H         1 L21         0.0375
     23 H8          1.3366  -28.2501   25.0793 H         1 L21         0.2258
     24 H9          2.8837  -28.3690   24.1989 H         1 L21         0.2258
     25 H10         6.2378  -25.0480   22.6049 H         1 L21         0.1824
     26 H11         1.9100  -21.7820   25.5307 H         1 L21         0.0543
     27 H12         3.6417  -21.8711   25.0616 H         1 L21         0.0543
     28 H13         0.6985  -23.7220   25.7873 H         1 L21         0.1341
     29 H14         4.9525  -22.9805   23.4903 H         1 L21         0.2586
@<TRIPOS>BOND
     1    2    1 1  
     2    3    2 2  
     3    2    4 1  
     4   12    3 1  
     5    6    5 1  
     6    7    6 ar 
     7    6   15 ar 
     8    7    8 1  
     9    9    7 ar 
    10   11    8 2  
    11    9   10 1  
    12   13    9 ar 
    13   10   11 1  
    14   12   13 1  
    15   13   14 ar 
    16   14   15 ar 
    17    1   16 1  
    18    1   17 1  
    19    1   18 1  
    20    3   19 1  
    21    4   20 1  
    22    4   21 1  
    23    4   22 1  
    24    5   23 1  
    25    5   24 1  
    26   11   25 1  
    27   12   26 1  
    28   12   27 1  
    29   14   28 1  
    30   10   29 1  
@<TRIPOS>SUBSTRUCTURE
     1 L21         1

