### 
### Created by X-TOOL on Mon Sep 10 21:13:00 2018
### 

@<TRIPOS>MOLECULE
2w70_ligand
   20    21     1     0     0
SMALL
GAST_HUCK


@<TRIPOS>ATOM
      1 N13         7.5150  -24.1010   22.3320 N.pl3     1 L22        -0.2977
      2 C10         6.4080  -23.6750   22.9710 C.2       1 L22         0.1813
      3 S9          6.1040  -22.0040   23.3080 S.3       1 L22         0.0276
      4 C5          4.6020  -22.4080   24.0680 C.2       1 L22         0.0227
      5 N6          5.4190  -24.4860   23.4140 N.2       1 L22        -0.3096
      6 C2          4.4160  -23.7860   24.0220 C.2       1 L22         0.0283
      7 C1          3.2260  -24.4730   24.5920 C.ar      1 L22         0.0441
      8 C4          2.2480  -23.7720   25.2960 C.ar      1 L22        -0.0237
      9 C8          1.1660  -24.4710   25.8040 C.ar      1 L22         0.0075
     10 N11         1.0850  -25.7920   25.6290 N.ar      1 L22        -0.2621
     11 C7          2.0430  -26.4630   24.9500 C.ar      1 L22         0.1802
     12 N3          3.1080  -25.8080   24.4320 N.ar      1 L22        -0.2597
     13 N12         1.9390  -27.7920   24.7890 N.pl3     1 L22        -0.3044
     14 H1          7.6521  -25.1062   22.1538 H         1 L22         0.1863
     15 H2          8.2241  -23.4215   22.0216 H         1 L22         0.1863
     16 H3          3.9102  -21.6944   24.5130 H         1 L22         0.0775
     17 H4          2.3329  -22.7013   25.4428 H         1 L22         0.0633
     18 H5          0.3856  -23.9462   26.3432 H         1 L22         0.0872
     19 H6          1.1310  -28.2966   25.1807 H         1 L22         0.1824
     20 H7          2.6672  -28.3069   24.2738 H         1 L22         0.1824
@<TRIPOS>BOND
     1    1    2 1  
     2    2    3 1  
     3    2    5 2  
     4    3    4 1  
     5    4    6 2  
     6    5    6 1  
     7    6    7 1  
     8    7    8 ar 
     9    7   12 ar 
    10    8    9 ar 
    11    9   10 ar 
    12   10   11 ar 
    13   11   12 ar 
    14   11   13 1  
    15    1   14 1  
    16    1   15 1  
    17    4   16 1  
    18    8   17 1  
    19    9   18 1  
    20   13   19 1  
    21   13   20 1  
@<TRIPOS>SUBSTRUCTURE
     1 L22         1

