### 
### Created by X-TOOL on Mon Sep 10 21:13:00 2018
### 

@<TRIPOS>MOLECULE
2w71_ligand
   35    37     1     0     0
SMALL
GAST_HUCK


@<TRIPOS>ATOM
      1 CL21       32.3510   22.2820   24.0110 Cl        1 L23        -0.0771
      2 C17        33.3720   20.8150   23.9210 C.ar      1 L23         0.0445
      3 C20        33.3080   19.8790   24.9520 C.ar      1 L23        -0.0543
      4 C22        34.0980   18.7300   24.8940 C.ar      1 L23        -0.0677
      5 C18        34.9500   18.5250   23.8160 C.ar      1 L23        -0.0543
      6 C16        35.0100   19.4710   22.7940 C.ar      1 L23         0.0445
      7 CL19       36.1160   19.2150   21.4080 Cl        1 L23        -0.0771
      8 C15        34.2260   20.6150   22.8440 C.ar      1 L23         0.0161
      9 C11        34.3050   21.6170   21.7110 C.3       1 L23         0.0961
     10 N7         34.9560   22.8750   22.0840 N.pl3     1 L23        -0.2250
     11 C3         36.1100   22.9850   22.7540 C.2       1 L23         0.0588
     12 C8         34.5060   24.1100   21.7910 C.2       1 L23         0.1200
     13 C12        33.2530   24.4870   21.0440 C.3       1 L23         0.0140
     14 N4         35.3750   25.0060   22.2880 N.2       1 L23        -0.3222
     15 C1         36.3750   24.3380   22.8860 C.2       1 L23         0.0372
     16 C2         37.5340   24.9860   23.5620 C.ar      1 L23         0.0382
     17 C6         38.4640   24.2410   24.2900 C.ar      1 L23        -0.0270
     18 C10        39.5160   24.9170   24.9060 C.ar      1 L23         0.0048
     19 N13        39.6160   26.2500   24.7860 N.ar      1 L23        -0.2649
     20 C9         38.7000   26.9630   24.0780 C.ar      1 L23         0.1772
     21 N5         37.6670   26.3310   23.4700 N.ar      1 L23        -0.2638
     22 N14        38.8070   28.3090   23.9700 N.pl3     1 L23        -0.3049
     23 H1         32.6472   20.0430   25.7955 H         1 L23         0.0607
     24 H2         34.0468   17.9968   25.6908 H         1 L23         0.0560
     25 H3         35.5652   17.6337   23.7699 H         1 L23         0.0607
     26 H4         33.2824   21.8416   21.3736 H         1 L23         0.0794
     27 H5         34.8725   21.1636   20.8849 H         1 L23         0.0794
     28 H6         36.7240   22.1657   23.1250 H         1 L23         0.0974
     29 H7         33.1816   25.5826   20.9773 H         1 L23         0.0469
     30 H8         32.3754   24.0942   21.5783 H         1 L23         0.0469
     31 H9         33.2873   24.0595   20.0311 H         1 L23         0.0469
     32 H10        38.3703   23.1643   24.3740 H         1 L23         0.0614
     33 H11        40.2521   24.3669   25.4810 H         1 L23         0.0864
     34 H12        39.5873   28.8019   24.4272 H         1 L23         0.1824
     35 H13        38.1080   28.8396   23.4307 H         1 L23         0.1824
@<TRIPOS>BOND
     1    1    2 1  
     2    2    3 ar 
     3    2    8 ar 
     4    3    4 ar 
     5    4    5 ar 
     6    5    6 ar 
     7    6    7 1  
     8    6    8 ar 
     9    8    9 1  
    10    9   10 1  
    11   10   11 1  
    12   10   12 1  
    13   11   15 2  
    14   12   13 1  
    15   12   14 2  
    16   14   15 1  
    17   15   16 1  
    18   16   17 ar 
    19   16   21 ar 
    20   17   18 ar 
    21   18   19 ar 
    22   19   20 ar 
    23   20   21 ar 
    24   20   22 1  
    25    3   23 1  
    26    4   24 1  
    27    5   25 1  
    28    9   26 1  
    29    9   27 1  
    30   11   28 1  
    31   13   29 1  
    32   13   30 1  
    33   13   31 1  
    34   17   32 1  
    35   18   33 1  
    36   22   34 1  
    37   22   35 1  
@<TRIPOS>SUBSTRUCTURE
     1 L23         1

