### 
### Created by X-TOOL on Mon Sep 10 21:13:00 2018
### 

@<TRIPOS>MOLECULE
2w7x_ligand
   46    48     1     0     0
SMALL
GAST_HUCK


@<TRIPOS>ATOM
      1 O3         49.4650  -15.9110   -3.9700 O.2       1 D1A        -0.4837
      2 N7         48.8340  -16.8670   -3.5090 N.2       1 D1A        -0.1977
      3 O2         49.1030  -17.2620   -2.3750 O.2       1 D1A        -0.4837
      4 C3         47.8570  -17.5190   -4.2700 C.ar      1 D1A         0.1573
      5 C2         47.1990  -18.6650   -3.8240 C.ar      1 D1A         0.0114
      6 C4         47.5500  -17.0170   -5.5230 C.ar      1 D1A         0.1676
      7 N1         48.0000  -15.9460   -6.2090 N.pl3     1 D1A        -0.1982
      8 C8         47.3640  -15.8380   -7.4150 C.2       1 D1A         0.2657
      9 C7         46.4910  -16.9040   -7.5370 C.2       1 D1A         0.0735
     10 C5         46.6180  -17.6270   -6.3190 C.ar      1 D1A         0.0842
     11 C6         45.9550  -18.7780   -5.8990 C.ar      1 D1A        -0.0067
     12 C1         46.2480  -19.2920   -4.6330 C.ar      1 D1A        -0.0154
     13 C9         47.6560  -14.8120   -8.4290 C.2       1 D1A         0.3954
     14 O1         48.5660  -14.0180   -8.2030 O.2       1 D1A        -0.2899
     15 N2         46.9240  -14.8250   -9.5420 N.am      1 D1A        -0.1322
     16 C10        47.1010  -13.9920  -10.6530 C.ar      1 D1A         0.2116
     17 C15        46.2730  -14.2180  -11.7520 C.ar      1 D1A         0.0649
     18 C14        46.3850  -13.4850  -12.9010 C.ar      1 D1A         0.0319
     19 C13        47.3390  -12.4890  -12.9940 C.ar      1 D1A         0.1201
     20 C12        48.1940  -12.2730  -11.9110 C.ar      1 D1A         0.0319
     21 C11        48.0760  -13.0180  -10.7380 C.ar      1 D1A         0.0649
     22 C16        47.4590  -11.7040  -14.2600 C.2       1 D1A         0.2225
     23 C17        48.0960  -10.3460  -14.2780 C.3       1 D1A         0.0360
     24 N3         47.0600  -12.2280  -15.3470 N.2       1 D1A         0.0085
     25 N4         47.1240  -11.6160  -16.4530 N.pl3     1 D1A        -0.1322
     26 C18        46.6990  -12.2990  -17.5130 C.cat     1 D1A         0.1949
     27 N6         46.7110  -11.7970  -18.7250 N.pl3     1 D1A        -0.3450
     28 N5         46.3480  -13.4960  -17.3670 N.pl3     1 D1A        -0.3450
     29 H          47.4278  -19.0734   -2.8396 H         1 D1A         0.1003
     30 H          48.7177  -15.3035   -5.8735 H         1 D1A         0.2590
     31 H          45.8456  -17.1390   -8.3833 H         1 D1A         0.1138
     32 H          45.2242  -19.2666   -6.5434 H         1 D1A         0.1037
     33 H          45.7335  -20.1841   -4.2759 H         1 D1A         0.0682
     34 H          46.1647  -15.5045   -9.5890 H         1 D1A         0.3278
     35 H          45.5160  -15.0001  -11.6936 H         1 D1A         0.0973
     36 H          45.7225  -13.6860  -13.7429 H         1 D1A         0.0982
     37 H          48.9674  -11.5084  -11.9839 H         1 D1A         0.0982
     38 H          48.7457  -12.8335   -9.8980 H         1 D1A         0.0973
     39 H          48.9878  -10.3727  -14.9042 H         1 D1A         0.0557
     40 H          47.3895   -9.6200  -14.6804 H         1 D1A         0.0557
     41 H          48.3719  -10.0620  -13.2625 H         1 D1A         0.0557
     42 H          47.4780  -10.6622  -16.5269 H         1 D1A         0.2854
     43 H          47.0551  -10.8496  -18.8812 H         1 D1A         0.1678
     44 H          46.3762  -12.3541  -19.5111 H         1 D1A         0.1678
     45 H          46.3910  -13.9313  -16.4456 H         1 D1A         0.1678
     46 H          46.0199  -14.0328  -18.1699 H         1 D1A         0.1678
@<TRIPOS>BOND
     1    1    2 2  
     2    2    3 2  
     3    2    4 1  
     4    4    5 ar 
     5    4    6 ar 
     6    5   12 ar 
     7    6    7 1  
     8    6   10 ar 
     9    7    8 1  
    10    8    9 2  
    11    8   13 1  
    12    9   10 1  
    13   10   11 ar 
    14   11   12 ar 
    15   13   14 2  
    16   13   15 am 
    17   15   16 1  
    18   16   17 ar 
    19   16   21 ar 
    20   17   18 ar 
    21   18   19 ar 
    22   19   20 ar 
    23   19   22 1  
    24   20   21 ar 
    25   22   23 1  
    26   22   24 2  
    27   24   25 1  
    28   25   26 ar 
    29   26   27 ar 
    30   26   28 ar 
    31    5   29 1  
    32    7   30 1  
    33    9   31 1  
    34   11   32 1  
    35   12   33 1  
    36   15   34 1  
    37   17   35 1  
    38   18   36 1  
    39   20   37 1  
    40   21   38 1  
    41   23   39 1  
    42   23   40 1  
    43   23   41 1  
    44   25   42 1  
    45   27   43 1  
    46   27   44 1  
    47   28   45 1  
    48   28   46 1  
@<TRIPOS>SUBSTRUCTURE
     1 D1A         1

