### 
### Created by X-TOOL on Fri Sep 26 17:34:45 2014
### 

@<TRIPOS>MOLECULE
2w7y_ligand
   71    73     1     0     0
SMALL
GAST_HUCK


@<TRIPOS>ATOM
      1 C1         16.3090    1.9070   48.3660 C.3       1 A2G         0.1854
      2 C2         17.1070    0.6710   47.9830 C.3       1 A2G         0.1210
      3 C3         18.5070    1.0900   47.5140 C.3       1 A2G         0.1111
      4 C4         18.4110    2.0100   46.2960 C.3       1 A2G         0.1116
      5 C5         17.5270    3.2110   46.6560 C.3       1 A2G         0.1130
      6 C6         17.3110    4.1380   45.4620 C.3       1 A2G         0.0730
      7 C7         16.9370   -1.5140   49.0610 C.2       1 A2G         0.1733
      8 C8         17.2070   -2.2930   50.3450 C.3       1 A2G         0.0257
      9 O          16.2270    2.7630   47.1950 O.3       1 A2G        -0.3408
     10 O3         19.3030   -0.0650   47.2410 O.3       1 A2G        -0.3867
     11 O4         17.8450    1.3030   45.1850 O.3       1 A2G        -0.3865
     12 O6         16.3850    5.1580   45.8420 O.3       1 A2G        -0.3924
     13 O7         16.4400   -2.0620   48.0770 O.2       1 A2G        -0.3974
     14 N2         17.2710   -0.2300   49.1240 N.am      1 A2G        -0.2766
     15 C1         16.2640    5.6410   51.5370 C.3       1 A2G         0.1858
     16 C2         16.9550    4.4450   50.8800 C.3       1 A2G         0.1408
     17 C3         15.9750    3.6730   49.9920 C.3       1 A2G         0.1209
     18 C4         14.6530    3.3850   50.7130 C.3       1 A2G         0.1123
     19 C5         14.0990    4.6990   51.2820 C.3       1 A2G         0.1130
     20 C6         12.7680    4.5500   52.0230 C.3       1 A2G         0.0730
     21 O1         17.1040    6.1540   52.5460 O.3       1 A2G        -0.3649
     22 O2         18.0360    4.9320   50.1120 O.3       1 A2G        -0.3378
     23 O3         16.5750    2.4810   49.5390 O.3       1 A2G        -0.3403
     24 O4         14.8800    2.4330   51.7260 O.3       1 A2G        -0.3865
     25 O5         15.0510    5.2720   52.1580 O.3       1 A2G        -0.3407
     26 O6         12.1110    5.8040   52.0450 O.3       1 A2G        -0.3924
     27 C1         19.3040    4.2860   50.3950 C.3       1 A2G         0.1884
     28 C2         20.3890    4.8540   49.4770 C.3       1 A2G         0.1341
     29 C3         20.7520    6.2710   49.9260 C.3       1 A2G         0.1140
     30 C4         21.2180    6.2520   51.3820 C.3       1 A2G         0.1095
     31 C5         20.1370    5.6010   52.2520 C.3       1 A2G         0.0873
     32 C6         20.5720    5.4320   53.7040 C.3       1 A2G        -0.0361
     33 O2         19.9200    4.8750   48.1520 O.3       1 A2G        -0.3841
     34 O3         21.7260    6.8450   49.0810 O.3       1 A2G        -0.3864
     35 O4         22.4360    5.5410   51.4990 O.3       1 A2G        -0.3866
     36 O5         19.7380    4.3340   51.7480 O.3       1 A2G        -0.3431
     37 H1         15.2827    1.5377   48.5083 H         1 A2G         0.0935
     38 H2         16.5848    0.1428   47.1716 H         1 A2G         0.0633
     39 H3         18.9895    1.6520   48.3272 H         1 A2G         0.0645
     40 H4         19.4167    2.3633   46.0246 H         1 A2G         0.0647
     41 H5         18.0429    3.7845   47.4402 H         1 A2G         0.0647
     42 H6         16.9048    3.5646   44.6157 H         1 A2G         0.0584
     43 H7         18.2676    4.5955   45.1695 H         1 A2G         0.0584
     44 H8         17.6502   -1.6214   51.0950 H         1 A2G         0.0467
     45 H9         17.9038   -3.1176   50.1340 H         1 A2G         0.0467
     46 H10        16.2617   -2.7016   50.7317 H         1 A2G         0.0467
     47 H11        18.9142   -0.5542   46.5254 H         1 A2G         0.2100
     48 H12        18.3977    0.5613   44.9683 H         1 A2G         0.2100
     49 H13        15.5616    4.7580   46.0959 H         1 A2G         0.2095
     50 H14        17.6460    0.1320   49.9774 H         1 A2G         0.1857
     51 H15        16.0698    6.4109   50.7757 H         1 A2G         0.0936
     52 H16        17.3358    3.7700   51.6606 H         1 A2G         0.0675
     53 H17        15.7488    4.2969   49.1148 H         1 A2G         0.0651
     54 H18        13.9274    2.9742   49.9955 H         1 A2G         0.0647
     55 H19        13.9379    5.3861   50.4382 H         1 A2G         0.0647
     56 H20        12.9549    4.2133   53.0534 H         1 A2G         0.0584
     57 H21        12.1377    3.8123   51.5048 H         1 A2G         0.0584
     58 H22        16.6894    6.9080   52.9486 H         1 A2G         0.2126
     59 H23        15.2214    1.6355   51.3388 H         1 A2G         0.2100
     60 H24        11.2835    5.7187   52.5038 H         1 A2G         0.2095
     61 H25        19.1766    3.2223   50.1453 H         1 A2G         0.0938
     62 H26        21.2835    4.2164   49.5341 H         1 A2G         0.0671
     63 H27        19.8459    6.8917   49.8651 H         1 A2G         0.0648
     64 H28        21.3767    7.2863   51.7212 H         1 A2G         0.0646
     65 H29        19.2608    6.2659   52.2360 H         1 A2G         0.0621
     66 H30        19.7597    4.9619   54.2778 H         1 A2G         0.0255
     67 H31        20.8025    6.4175   54.1348 H         1 A2G         0.0255
     68 H32        21.4675    4.7946   53.7467 H         1 A2G         0.0255
     69 H33        19.1490    5.4275   48.0989 H         1 A2G         0.2101
     70 H34        21.4081    6.8425   48.1858 H         1 A2G         0.2100
     71 H35        23.0963    5.9546   50.9555 H         1 A2G         0.2100
@<TRIPOS>BOND
     1    1    2 1  
     2    1    9 1  
     3   23    1 1  
     4    2    3 1  
     5    2   14 1  
     6    3    4 1  
     7    3   10 1  
     8    5    4 1  
     9    4   11 1  
    10    5    6 1  
    11    9    5 1  
    12    6   12 1  
    13    7    8 1  
    14    7   13 2  
    15   14    7 am 
    16   16   15 1  
    17   15   21 1  
    18   15   25 1  
    19   17   16 1  
    20   16   22 1  
    21   17   18 1  
    22   17   23 1  
    23   18   19 1  
    24   18   24 1  
    25   19   20 1  
    26   19   25 1  
    27   20   26 1  
    28   22   27 1  
    29   27   28 1  
    30   27   36 1  
    31   28   29 1  
    32   28   33 1  
    33   29   30 1  
    34   29   34 1  
    35   30   31 1  
    36   30   35 1  
    37   31   32 1  
    38   31   36 1  
    39    1   37 1  
    40    2   38 1  
    41    3   39 1  
    42    4   40 1  
    43    5   41 1  
    44    6   42 1  
    45    6   43 1  
    46    8   44 1  
    47    8   45 1  
    48    8   46 1  
    49   10   47 1  
    50   11   48 1  
    51   12   49 1  
    52   14   50 1  
    53   15   51 1  
    54   16   52 1  
    55   17   53 1  
    56   18   54 1  
    57   19   55 1  
    58   20   56 1  
    59   20   57 1  
    60   21   58 1  
    61   24   59 1  
    62   26   60 1  
    63   27   61 1  
    64   28   62 1  
    65   29   63 1  
    66   30   64 1  
    67   31   65 1  
    68   32   66 1  
    69   32   67 1  
    70   32   68 1  
    71   33   69 1  
    72   34   70 1  
    73   35   71 1  
@<TRIPOS>SUBSTRUCTURE
     1 A2G         1

