### 
### Created by X-TOOL on Mon Sep 10 21:12:59 2018
### 

@<TRIPOS>MOLECULE
2w87_ligand
   22    22     1     0     0
SMALL
GAST_HUCK


@<TRIPOS>ATOM
      1 C1        -14.5540   -4.7660   23.4790 C.3       1 GCU         0.1873
      2 C2        -15.3610   -3.6540   22.8090 C.3       1 GCU         0.1342
      3 C3        -14.4040   -2.6940   22.1090 C.3       1 GCU         0.1156
      4 C4        -13.4940   -2.0880   23.1580 C.3       1 GCU         0.1214
      5 C5        -12.7620   -3.2300   23.8800 C.3       1 GCU         0.1420
      6 C6        -11.8610   -2.7260   24.9990 C.2       1 GCU         0.0663
      7 O1        -13.8200   -5.4160   22.4420 O.3       1 GCU        -0.3648
      8 O2        -16.2360   -4.2190   21.8470 O.3       1 GCU        -0.3841
      9 O3        -15.1160   -1.6610   21.4250 O.3       1 GCU        -0.3863
     10 O4        -12.5030   -1.2070   22.5700 O.3       1 GCU        -0.3848
     11 O5        -13.7070   -4.1210   24.4710 O.3       1 GCU        -0.3287
     12 O6A       -11.0970   -1.7940   24.7080 O.co2     1 GCU        -0.5662
     13 O6B       -11.9200   -3.2660   26.1300 O.co2     1 GCU        -0.5662
     14 H1        -15.2161   -5.4917   23.9739 H         1 GCU         0.0937
     15 H2        -15.9443   -3.1110   23.5672 H         1 GCU         0.0671
     16 H3        -13.8004   -3.2529   21.3787 H         1 GCU         0.0649
     17 H4        -14.1009   -1.5190   23.8777 H         1 GCU         0.0665
     18 H5        -12.1520   -3.7746   23.1442 H         1 GCU         0.0794
     19 H6        -13.2834   -4.7775   21.9874 H         1 GCU         0.2126
     20 H7        -15.7283   -4.6901   21.1968 H         1 GCU         0.2101
     21 H8        -15.6836   -2.0496   20.7697 H         1 GCU         0.2100
     22 H9        -11.9473   -0.8550   23.2555 H         1 GCU         0.2102
@<TRIPOS>BOND
     1    1    2 1  
     2    1    7 1  
     3    1   11 1  
     4    2    3 1  
     5    2    8 1  
     6    3    4 1  
     7    3    9 1  
     8    4    5 1  
     9    4   10 1  
    10    5    6 1  
    11    5   11 1  
    12    6   12 ar 
    13    6   13 ar 
    14    1   14 1  
    15    2   15 1  
    16    3   16 1  
    17    4   17 1  
    18    5   18 1  
    19    7   19 1  
    20    8   20 1  
    21    9   21 1  
    22   10   22 1  
@<TRIPOS>SUBSTRUCTURE
     1 GCU         1

