### 
### Created by X-TOOL on Mon Sep 10 21:13:02 2018
### 

@<TRIPOS>MOLECULE
2w8f_ligand
   56    60     1     0     0
SMALL
GAST_HUCK


@<TRIPOS>ATOM
      1 C17        46.2040   35.6470   54.2390 C.3       1 BS1        -0.0410
      2 N1         45.8010   37.0180   54.6210 N.4       1 BS1         0.2434
      3 C16        46.2310   37.9790   53.6000 C.3       1 BS1        -0.0410
      4 C3         46.3070   37.5010   55.9200 C.3       1 BS1        -0.0167
      5 C12        45.4370   38.7260   56.2010 C.3       1 BS1        -0.0044
      6 C13        44.1450   38.4860   55.3990 C.3       1 BS1        -0.0044
      7 C2         44.3490   37.1040   54.7610 C.3       1 BS1        -0.0167
      8 C8         46.0910   36.4710   57.0340 C.3       1 BS1         0.0173
      9 C6         44.7630   35.6780   56.9510 C.3       1 BS1         0.0740
     10 C7         43.8630   35.9740   55.6890 C.3       1 BS1         0.0173
     11 O1         44.9780   34.2700   57.1250 O.3       1 BS1        -0.3508
     12 C1         44.1200   33.7280   58.1500 C.3       1 BS1         0.1215
     13 C5         42.9120   33.1010   57.5170 C.ar      1 BS1        -0.0022
     14 C19        41.7580   33.9010   57.4940 C.ar      1 BS1        -0.0626
     15 C23        40.5590   33.4560   56.9280 C.ar      1 BS1        -0.0751
     16 C26        40.4940   32.1800   56.3700 C.ar      1 BS1        -0.0753
     17 C21        41.6340   31.3740   56.3810 C.ar      1 BS1        -0.0663
     18 C9         42.8460   31.8100   56.9380 C.ar      1 BS1        -0.0349
     19 C15        43.9680   30.7830   56.8650 C.3       1 BS1        -0.0125
     20 C14        45.3720   31.3030   57.1630 C.3       1 BS1        -0.0125
     21 C10        45.4560   31.6360   58.6270 C.ar      1 BS1        -0.0349
     22 C22        46.1340   30.7660   59.4960 C.ar      1 BS1        -0.0663
     23 C25        46.2070   31.0740   60.8550 C.ar      1 BS1        -0.0753
     24 C24        45.5980   32.2480   61.3180 C.ar      1 BS1        -0.0751
     25 C18        44.9180   33.1120   60.4480 C.ar      1 BS1        -0.0626
     26 C4         44.8440   32.8070   59.0850 C.ar      1 BS1        -0.0022
     27 H1         47.2984   35.6012   54.1383 H         1 BS1         0.0778
     28 H2         45.7361   35.3811   53.2796 H         1 BS1         0.0778
     29 H3         45.8773   34.9391   55.0150 H         1 BS1         0.0778
     30 H4         45.9244   38.9925   53.8981 H         1 BS1         0.0778
     31 H5         45.7653   37.7236   52.6367 H         1 BS1         0.0778
     32 H6         47.3257   37.9419   53.4994 H         1 BS1         0.0778
     33 H7         47.3727   37.7659   55.8555 H         1 BS1         0.0853
     34 H8         45.9390   39.6437   55.8606 H         1 BS1         0.0322
     35 H9         45.2163   38.8058   57.2757 H         1 BS1         0.0322
     36 H10        44.0168   39.2576   54.6256 H         1 BS1         0.0322
     37 H11        43.2682   38.4834   56.0633 H         1 BS1         0.0322
     38 H12        43.8413   37.0360   53.7876 H         1 BS1         0.0853
     39 H13        46.1104   37.0022   57.9970 H         1 BS1         0.0345
     40 H14        46.9208   35.7499   56.9962 H         1 BS1         0.0345
     41 H15        44.1705   36.0085   57.8169 H         1 BS1         0.0604
     42 H16        43.8052   35.0511   55.0933 H         1 BS1         0.0345
     43 H17        42.8584   36.2423   56.0479 H         1 BS1         0.0345
     44 H18        43.7647   34.5734   58.7575 H         1 BS1         0.0891
     45 H19        41.7978   34.8935   57.9281 H         1 BS1         0.0541
     46 H20        39.6862   34.0988   56.9232 H         1 BS1         0.0542
     47 H21        39.5702   31.8183   55.9332 H         1 BS1         0.0543
     48 H22        41.5813   30.3823   55.9465 H         1 BS1         0.0538
     49 H23        43.9737   30.3625   55.8486 H         1 BS1         0.0433
     50 H24        43.7432   29.9869   57.5900 H         1 BS1         0.0433
     51 H25        45.5683   32.2053   56.5653 H         1 BS1         0.0433
     52 H26        46.1145   30.5302   56.9150 H         1 BS1         0.0433
     53 H27        46.5967   29.8630   59.1144 H         1 BS1         0.0538
     54 H28        46.7266   30.4155   61.5417 H         1 BS1         0.0543
     55 H29        45.6539   32.4937   62.3723 H         1 BS1         0.0542
     56 H30        44.4515   34.0128   60.8302 H         1 BS1         0.0541
@<TRIPOS>BOND
     1    1    2 1  
     2    2    3 1  
     3    2    4 1  
     4    2    7 1  
     5    4    5 1  
     6    4    8 1  
     7    5    6 1  
     8    6    7 1  
     9    7   10 1  
    10    8    9 1  
    11    9   10 1  
    12    9   11 1  
    13   11   12 1  
    14   12   13 1  
    15   12   26 1  
    16   13   14 ar 
    17   13   18 ar 
    18   14   15 ar 
    19   15   16 ar 
    20   16   17 ar 
    21   17   18 ar 
    22   18   19 1  
    23   19   20 1  
    24   20   21 1  
    25   21   22 ar 
    26   21   26 ar 
    27   22   23 ar 
    28   23   24 ar 
    29   24   25 ar 
    30   25   26 ar 
    31    1   27 1  
    32    1   28 1  
    33    1   29 1  
    34    3   30 1  
    35    3   31 1  
    36    3   32 1  
    37    4   33 1  
    38    5   34 1  
    39    5   35 1  
    40    6   36 1  
    41    6   37 1  
    42    7   38 1  
    43    8   39 1  
    44    8   40 1  
    45    9   41 1  
    46   10   42 1  
    47   10   43 1  
    48   12   44 1  
    49   14   45 1  
    50   15   46 1  
    51   16   47 1  
    52   17   48 1  
    53   19   49 1  
    54   19   50 1  
    55   20   51 1  
    56   20   52 1  
    57   22   53 1  
    58   23   54 1  
    59   24   55 1  
    60   25   56 1  
@<TRIPOS>SUBSTRUCTURE
     1 BS1         1

