### 
### Created by X-TOOL on Mon Sep 10 21:13:01 2018
### 

@<TRIPOS>MOLECULE
2w8g_ligand
   63    68     1     0     0
SMALL
GAST_HUCK


@<TRIPOS>ATOM
      1 CAY        53.5640  -26.9000    4.3750 C.ar      1 BS2        -0.0022
      2 CAL        53.0620  -25.8280    5.0800 C.ar      1 BS2        -0.0626
      3 CAF        52.2320  -24.9290    4.4450 C.ar      1 BS2        -0.0751
      4 CAD        51.9100  -25.0920    3.1100 C.ar      1 BS2        -0.0753
      5 CAJ        52.4260  -26.1550    2.3930 C.ar      1 BS2        -0.0663
      6 CAW        53.2270  -27.0710    3.0590 C.ar      1 BS2        -0.0349
      7 CAN        53.7640  -28.2000    2.1930 C.3       1 BS2        -0.0125
      8 CAO        55.2070  -27.7710    1.8660 C.3       1 BS2        -0.0125
      9 CAX        56.1320  -28.1320    3.0450 C.ar      1 BS2        -0.0349
     10 CAK        57.3960  -28.4800    2.5380 C.ar      1 BS2        -0.0663
     11 CAE        58.4050  -28.8680    3.4150 C.ar      1 BS2        -0.0753
     12 CAG        58.1280  -28.8910    4.7850 C.ar      1 BS2        -0.0751
     13 CAM        56.8560  -28.5540    5.2850 C.ar      1 BS2        -0.0626
     14 CAZ        55.8260  -28.1750    4.4240 C.ar      1 BS2        -0.0022
     15 CBD        54.4850  -27.8200    5.2110 C.3       1 BS2         0.1215
     16 OAU        53.6620  -28.8960    5.8170 O.3       1 BS2        -0.3508
     17 CBA        52.3820  -28.5090    6.4330 C.3       1 BS2         0.0740
     18 CAT        52.5140  -28.1470    7.9220 C.3       1 BS2         0.0173
     19 CAS        51.3750  -29.6570    6.3320 C.3       1 BS2         0.0173
     20 CBB        51.8360  -30.8160    7.2380 C.3       1 BS2        -0.0166
     21 CAP        53.3470  -31.0720    7.0140 C.3       1 BS2        -0.0045
     22 CAQ        54.0240  -30.1070    8.0290 C.3       1 BS2        -0.0045
     23 CBC        52.8700  -29.3970    8.7330 C.3       1 BS2        -0.0166
     24 NBE        51.7920  -30.4100    8.6620 N.4       1 BS2         0.2515
     25 CAR        52.2220  -31.4950    9.5720 C.3       1 BS2         0.0025
     26 CAV        51.7410  -32.9180    9.2540 C.ar      1 BS2         0.0014
     27 CAH        50.4800  -33.1680    8.7290 C.ar      1 BS2        -0.0553
     28 CAB        50.0570  -34.4690    8.4780 C.ar      1 BS2        -0.0684
     29 CAA        50.8970  -35.5200    8.7740 C.ar      1 BS2        -0.0687
     30 CAC        52.1430  -35.2860    9.3180 C.ar      1 BS2        -0.0684
     31 CAI        52.5750  -33.9910    9.5580 C.ar      1 BS2        -0.0553
     32 H1         53.3174  -25.6927    6.1248 H         1 BS2         0.0541
     33 H2         51.8285  -24.0875    4.9965 H         1 BS2         0.0542
     34 H3         51.2499  -24.3829    2.6237 H         1 BS2         0.0543
     35 H4         52.2102  -26.2700    1.3369 H         1 BS2         0.0538
     36 H5         53.1696  -28.3029    1.2732 H         1 BS2         0.0433
     37 H6         53.7553  -29.1522    2.7436 H         1 BS2         0.0433
     38 H7         55.2367  -26.6846    1.6965 H         1 BS2         0.0433
     39 H8         55.5480  -28.2930    0.9598 H         1 BS2         0.0433
     40 H9         57.5838  -28.4464    1.4709 H         1 BS2         0.0538
     41 H10        59.3846  -29.1464    3.0435 H         1 BS2         0.0543
     42 H11        58.9111  -29.1750    5.4786 H         1 BS2         0.0542
     43 H12        56.6745  -28.5895    6.3531 H         1 BS2         0.0541
     44 H13        54.8284  -27.2197    6.0664 H         1 BS2         0.0891
     45 H14        51.9918  -27.6351    5.8907 H         1 BS2         0.0604
     46 H15        51.5594  -27.7372    8.2838 H         1 BS2         0.0345
     47 H16        53.3065  -27.3942    8.0455 H         1 BS2         0.0345
     48 H17        51.3170  -30.0051    5.2901 H         1 BS2         0.0345
     49 H18        50.3842  -29.3072    6.6575 H         1 BS2         0.0345
     50 H19        51.2314  -31.7154    7.0497 H         1 BS2         0.0852
     51 H20        53.6399  -30.8282    5.9821 H         1 BS2         0.0322
     52 H21        53.6064  -32.1186    7.2313 H         1 BS2         0.0322
     53 H22        54.6620  -29.3804    7.5046 H         1 BS2         0.0322
     54 H23        54.6297  -30.6712    8.7534 H         1 BS2         0.0322
     55 H24        53.1117  -29.1293    9.7722 H         1 BS2         0.0852
     56 H25        50.8869  -30.0508    8.9223 H         1 BS2         0.2054
     57 H26        51.8609  -31.2425   10.5799 H         1 BS2         0.0981
     58 H27        53.3219  -31.5106    9.5698 H         1 BS2         0.0981
     59 H28        49.8167  -32.3385    8.5120 H         1 BS2         0.0558
     60 H29        49.0767  -34.6540    8.0539 H         1 BS2         0.0599
     61 H30        50.5770  -36.5370    8.5783 H         1 BS2         0.0559
     62 H31        52.7896  -36.1218    9.5598 H         1 BS2         0.0599
     63 H32        53.5576  -33.8143    9.9804 H         1 BS2         0.0558
@<TRIPOS>BOND
     1    1    2 ar 
     2    1    6 ar 
     3    1   15 1  
     4    2    3 ar 
     5    3    4 ar 
     6    4    5 ar 
     7    5    6 ar 
     8    6    7 1  
     9    7    8 1  
    10    8    9 1  
    11    9   10 ar 
    12    9   14 ar 
    13   10   11 ar 
    14   11   12 ar 
    15   12   13 ar 
    16   13   14 ar 
    17   14   15 1  
    18   15   16 1  
    19   16   17 1  
    20   17   18 1  
    21   17   19 1  
    22   18   23 1  
    23   19   20 1  
    24   20   21 1  
    25   20   24 1  
    26   21   22 1  
    27   22   23 1  
    28   23   24 1  
    29   24   25 1  
    30   25   26 1  
    31   26   27 ar 
    32   26   31 ar 
    33   27   28 ar 
    34   28   29 ar 
    35   29   30 ar 
    36   30   31 ar 
    37    2   32 1  
    38    3   33 1  
    39    4   34 1  
    40    5   35 1  
    41    7   36 1  
    42    7   37 1  
    43    8   38 1  
    44    8   39 1  
    45   10   40 1  
    46   11   41 1  
    47   12   42 1  
    48   13   43 1  
    49   15   44 1  
    50   17   45 1  
    51   18   46 1  
    52   18   47 1  
    53   19   48 1  
    54   19   49 1  
    55   20   50 1  
    56   21   51 1  
    57   21   52 1  
    58   22   53 1  
    59   22   54 1  
    60   23   55 1  
    61   24   56 1  
    62   25   57 1  
    63   25   58 1  
    64   27   59 1  
    65   28   60 1  
    66   29   61 1  
    67   30   62 1  
    68   31   63 1  
@<TRIPOS>SUBSTRUCTURE
     1 BS2         1

