### 
### Created by X-TOOL on Mon Sep 10 21:13:00 2018
### 

@<TRIPOS>MOLECULE
2w8y_ligand
   67    71     1     0     0
SMALL
GAST_HUCK


@<TRIPOS>ATOM
      1 O30        13.5700    7.3990    2.9280 O.2       1 486        -0.4132
      2 C2         13.0500    6.7680    3.8260 C.2       1 486         0.0822
      3 C1         11.5590    6.8400    3.9510 C.3       1 486         0.0152
      4 C3         13.8510    6.0290    4.7120 C.2       1 486        -0.0445
      5 C4         13.3270    5.4180    5.7940 C.2       1 486        -0.0540
      6 C7         14.2400    4.5480    6.6190 C.3       1 486        -0.0157
      7 C5         11.9040    5.5750    6.1810 C.2       1 486        -0.0336
      8 C6         10.9900    6.4020    5.2970 C.3       1 486        -0.0177
      9 C10        11.4250    5.0620    7.3410 C.2       1 486        -0.0245
     10 C14         9.9510    5.2980    7.7360 C.3       1 486         0.0291
     11 C18         8.9960    4.3080    7.0470 C.ar      1 486        -0.0368
     12 C22         9.4150    3.3370    6.1400 C.ar      1 486        -0.0683
     13 C23         8.5020    2.4920    5.5140 C.ar      1 486        -0.0499
     14 C24         7.1330    2.5810    5.7760 C.ar      1 486         0.0336
     15 N27         6.2080    1.7330    5.1350 N.pl3     1 486        -0.3183
     16 C29         6.5760    0.4340    4.5630 C.3       1 486         0.0139
     17 C28         4.9060    2.2840    4.7370 C.3       1 486         0.0139
     18 C25         6.7050    3.5560    6.6660 C.ar      1 486        -0.0499
     19 C26         7.6300    4.4050    7.2770 C.ar      1 486        -0.0683
     20 C13         9.7350    5.4050    9.2750 C.3       1 486        -0.0192
     21 C12        10.4890    4.3300   10.0310 C.3       1 486         0.0178
     22 C19        10.0060    2.9410    9.5910 C.3       1 486        -0.0552
     23 C17        10.5030    4.4320   11.5660 C.3       1 486         0.1325
     24 C31        10.7170    5.7960   12.0840 C.1       1 486        -0.0673
     25 C30        10.9420    6.8570   12.5160 C.1       1 486        -0.1027
     26 C32        11.2490    8.1660   13.1150 C.3       1 486        -0.0025
     27 O3          9.3380    3.8990   12.1630 O.3       1 486        -0.3760
     28 C16        11.7210    3.5760   11.9630 C.3       1 486        -0.0116
     29 C15        12.6580    3.5960   10.7300 C.3       1 486        -0.0433
     30 C11        11.9900    4.5410    9.7220 C.3       1 486        -0.0150
     31 C9         12.3190    4.2570    8.2550 C.3       1 486         0.0085
     32 C8         13.7880    4.5820    8.0740 C.3       1 486        -0.0245
     33 H1         11.1224    6.1964    3.1731 H         1 486         0.0481
     34 H2         11.2545    7.8827    3.7777 H         1 486         0.0481
     35 H3         14.9200    5.9475    4.5208 H         1 486         0.0233
     36 H4         15.2712    4.9239    6.5456 H         1 486         0.0461
     37 H5         14.1991    3.5142    6.2455 H         1 486         0.0461
     38 H6         10.0866    5.8061    5.1001 H         1 486         0.0369
     39 H7         10.7163    7.3093    5.8554 H         1 486         0.0369
     40 H8          9.6907    6.2885    7.3346 H         1 486         0.0659
     41 H9         10.4712    3.2374    5.9174 H         1 486         0.0532
     42 H10         8.8610    1.7505    4.8094 H         1 486         0.0500
     43 H11         5.6859   -0.0371    4.1205 H         1 486         0.0475
     44 H12         6.9787   -0.2146    5.3549 H         1 486         0.0475
     45 H13         7.3393    0.5792    3.7844 H         1 486         0.0475
     46 H14         4.7518    3.2543    5.2317 H         1 486         0.0475
     47 H15         4.1071    1.5892    5.0354 H         1 486         0.0475
     48 H16         4.8840    2.4212    3.6458 H         1 486         0.0475
     49 H17         5.6489    3.6588    6.8876 H         1 486         0.0500
     50 H18         7.2682    5.1684    7.9563 H         1 486         0.0532
     51 H19         8.6611    5.3037    9.4906 H         1 486         0.0324
     52 H20        10.0859    6.3905    9.6150 H         1 486         0.0324
     53 H21        10.0020    2.8852    8.4924 H         1 486         0.0237
     54 H22         8.9879    2.7696    9.9705 H         1 486         0.0237
     55 H23        10.6820    2.1728    9.9947 H         1 486         0.0237
     56 H24        10.9622    8.9654   12.4160 H         1 486         0.0362
     57 H25        12.3272    8.2303   13.3230 H         1 486         0.0362
     58 H26        10.6870    8.2806   14.0536 H         1 486         0.0362
     59 H27         8.5933    4.4477   11.9467 H         1 486         0.2114
     60 H28        11.4093    2.5464   12.1926 H         1 486         0.0303
     61 H29        12.2273    4.0096   12.8380 H         1 486         0.0303
     62 H30        12.7548    2.5863   10.3044 H         1 486         0.0272
     63 H31        13.6529    3.9731   11.0093 H         1 486         0.0272
     64 H32        12.2823    5.5795    9.9369 H         1 486         0.0341
     65 H33        12.1579    3.1899    8.0423 H         1 486         0.0530
     66 H34        13.9740    5.5898    8.4736 H         1 486         0.0325
     67 H35        14.3799    3.8480    8.6404 H         1 486         0.0325
@<TRIPOS>BOND
     1    1    2 2  
     2    2    3 1  
     3    2    4 1  
     4    3    8 1  
     5    4    5 2  
     6    5    6 1  
     7    5    7 1  
     8    6   32 1  
     9    7    8 1  
    10    7    9 2  
    11    9   10 1  
    12    9   31 1  
    13   10   11 1  
    14   10   20 1  
    15   11   12 ar 
    16   11   19 ar 
    17   12   13 ar 
    18   13   14 ar 
    19   14   15 1  
    20   14   18 ar 
    21   15   16 1  
    22   15   17 1  
    23   18   19 ar 
    24   20   21 1  
    25   21   22 1  
    26   21   23 1  
    27   21   30 1  
    28   23   24 1  
    29   23   27 1  
    30   23   28 1  
    31   24   25 3  
    32   25   26 1  
    33   28   29 1  
    34   29   30 1  
    35   30   31 1  
    36   31   32 1  
    37    3   33 1  
    38    3   34 1  
    39    4   35 1  
    40    6   36 1  
    41    6   37 1  
    42    8   38 1  
    43    8   39 1  
    44   10   40 1  
    45   12   41 1  
    46   13   42 1  
    47   16   43 1  
    48   16   44 1  
    49   16   45 1  
    50   17   46 1  
    51   17   47 1  
    52   17   48 1  
    53   18   49 1  
    54   19   50 1  
    55   20   51 1  
    56   20   52 1  
    57   22   53 1  
    58   22   54 1  
    59   22   55 1  
    60   26   56 1  
    61   26   57 1  
    62   26   58 1  
    63   27   59 1  
    64   28   60 1  
    65   28   61 1  
    66   29   62 1  
    67   29   63 1  
    68   30   64 1  
    69   31   65 1  
    70   32   66 1  
    71   32   67 1  
@<TRIPOS>SUBSTRUCTURE
     1 486         1

