### 
### Created by X-TOOL on Mon Sep 10 21:12:59 2018
### 

@<TRIPOS>MOLECULE
2w92_ligand
   27    28     1     0     0
SMALL
GAST_HUCK


@<TRIPOS>ATOM
      1 C1         -3.5930   -5.1300  -24.9050 C.3       1 NGT         0.1382
      2 C2         -3.5530   -3.5850  -25.0090 C.3       1 NGT         0.0652
      3 C3         -4.1310   -3.0880  -26.3500 C.3       1 NGT         0.0954
      4 C4         -3.5890   -3.9000  -27.5240 C.3       1 NGT         0.1101
      5 C5         -3.9280   -5.3660  -27.3010 C.3       1 NGT         0.1116
      6 C6         -3.3600   -6.1950  -28.4820 C.3       1 NGT         0.0730
      7 C7         -5.4020   -3.9510  -23.5280 C.2       1 NGT         0.0728
      8 C8         -6.4310   -3.6440  -22.4350 C.3       1 NGT         0.0106
      9 N2         -4.4340   -3.1120  -23.9240 N.2       1 NGT        -0.3502
     10 S1         -5.3090   -5.4400  -24.3970 S.3       1 NGT        -0.0199
     11 O3         -3.8480   -1.7070  -26.5770 O.3       1 NGT        -0.3883
     12 O4         -4.2010   -3.4550  -28.7290 O.3       1 NGT        -0.3866
     13 O5         -3.3470   -5.8510  -26.0870 O.3       1 NGT        -0.3535
     14 O6         -3.8540   -7.5290  -28.4060 O.3       1 NGT        -0.3924
     15 H          -2.8002   -5.4646  -24.2359 H         1 NGT         0.0761
     16 H          -2.5280   -3.2206  -24.9403 H         1 NGT         0.0431
     17 H          -5.2109   -3.2197  -26.2819 H         1 NGT         0.0628
     18 H          -2.5090   -3.7723  -27.5975 H         1 NGT         0.0646
     19 H          -5.0116   -5.4641  -27.2361 H         1 NGT         0.0646
     20 H          -2.2714   -6.2068  -28.4275 H         1 NGT         0.0584
     21 H          -3.6713   -5.7452  -29.4248 H         1 NGT         0.0584
     22 H          -5.9141   -3.4516  -21.4948 H         1 NGT         0.0521
     23 H          -7.0099   -2.7653  -22.7193 H         1 NGT         0.0521
     24 H          -7.0985   -4.4975  -22.3161 H         1 NGT         0.0521
     25 H          -2.8987   -1.5836  -26.6482 H         1 NGT         0.2099
     26 H          -3.9884   -2.5298  -28.8718 H         1 NGT         0.2100
     27 H          -4.8127   -7.5172  -28.4542 H         1 NGT         0.2095
@<TRIPOS>BOND
     1    2    1 1  
     2    1   10 1  
     3    1   13 1  
     4    2    3 1  
     5    9    2 1  
     6    3    4 1  
     7    3   11 1  
     8    4    5 1  
     9    4   12 1  
    10    5    6 1  
    11   13    5 1  
    12    6   14 1  
    13    7    8 1  
    14    7    9 2  
    15    7   10 1  
    16    1   15 1  
    17    2   16 1  
    18    3   17 1  
    19    4   18 1  
    20    5   19 1  
    21    6   20 1  
    22    6   21 1  
    23    8   22 1  
    24    8   23 1  
    25    8   24 1  
    26   11   25 1  
    27   12   26 1  
    28   14   27 1  
@<TRIPOS>SUBSTRUCTURE
     1 NGT         1

