### 
### Created by X-TOOL on Sun Sep  9 21:51:17 2018
### 

@<TRIPOS>MOLECULE
2w97_ligand
   14    13     1     0     0
SMALL
GAST_HUCK


@<TRIPOS>ATOM
      1 C1         33.6760   -9.6030   18.5610 C.3       1 NON         0.0723
      2 O1         32.2500   -9.5970   18.6210 O.3       1 NON        -0.3924
      3 C2         34.1270   -8.6530   17.4600 C.3       1 NON         0.1012
      4 O2         35.5400   -8.5330   17.5000 O.3       1 NON        -0.3873
      5 C3         33.7280   -9.2380   16.1120 C.3       1 NON         0.0723
      6 O3         34.1570   -8.3810   15.0520 O.3       1 NON        -0.3924
      7 H1         34.0321  -10.6200   18.3399 H         1 NON         0.0583
      8 H2         34.0876   -9.2720   19.5259 H         1 NON         0.0583
      9 H3         31.9605  -10.1879   19.3062 H         1 NON         0.2095
     10 H4         33.6599   -7.6668   17.5983 H         1 NON         0.0639
     11 H5         35.8259   -7.9409   16.8144 H         1 NON         0.2100
     12 H6         32.6339   -9.3442   16.0722 H         1 NON         0.0583
     13 H7         34.1970  -10.2258   15.9921 H         1 NON         0.0583
     14 H8         35.1020   -8.2894   15.0831 H         1 NON         0.2095
@<TRIPOS>BOND
     1    1    2 1  
     2    1    3 1  
     3    3    4 1  
     4    3    5 1  
     5    5    6 1  
     6    1    7 1  
     7    1    8 1  
     8    2    9 1  
     9    3   10 1  
    10    4   11 1  
    11    5   12 1  
    12    5   13 1  
    13    6   14 1  
@<TRIPOS>SUBSTRUCTURE
     1 NON         1

