### 
### Created by X-TOOL on Mon Sep 10 21:12:59 2018
### 

@<TRIPOS>MOLECULE
2w9h_ligand
   39    40     1     0     0
SMALL
GAST_HUCK


@<TRIPOS>ATOM
      1 C1          7.0800   -4.2930   14.7190 C.ar      1 TOP         0.0016
      2 N2          6.0010   -3.8790   14.0780 N.ar      1 TOP        -0.2822
      3 C3          6.0670   -2.8760   13.2410 C.ar      1 TOP         0.1638
      4 N4          4.9790   -2.5240   12.5840 N.pl3     1 TOP        -0.3098
      5 N5          7.1920   -2.2280   13.0720 N.ar      1 TOP        -0.2486
      6 C6          8.2800   -2.5070   13.7140 C.ar      1 TOP         0.1161
      7 N7          9.3950   -1.8170   13.5620 N.pl3     1 TOP        -0.3198
      8 C8          8.2590   -3.6500   14.6160 C.ar      1 TOP         0.0217
      9 C9          9.5350   -4.0470   15.3400 C.3       1 TOP         0.0058
     10 C10         9.5490   -5.2960   16.2120 C.ar      1 TOP        -0.0614
     11 C11         9.8030   -5.1980   17.5710 C.ar      1 TOP        -0.0491
     12 C12         9.8280   -6.3630   18.3910 C.ar      1 TOP         0.1051
     13 O13        10.0770   -6.3160   19.7210 O.3       1 TOP        -0.3297
     14 C14        10.4380   -5.1920   20.3750 C.3       1 TOP         0.0563
     15 C15         9.5530   -7.5160   17.8150 C.ar      1 TOP         0.1396
     16 O16         9.4900   -8.6780   18.5090 O.3       1 TOP        -0.3340
     17 C17         8.4000   -9.5670   18.2700 C.3       1 TOP         0.0526
     18 C18         9.2980   -7.6260   16.5000 C.ar      1 TOP         0.1051
     19 O19         9.0550   -8.8040   15.9850 O.3       1 TOP        -0.3297
     20 C20         9.0340   -9.0900   14.6430 C.3       1 TOP         0.0563
     21 C21         9.3050   -6.5000   15.6680 C.ar      1 TOP        -0.0491
     22 H1          7.0143   -5.1752   15.3455 H         1 TOP         0.0775
     23 H2          4.1007   -3.0428   12.7267 H         1 TOP         0.1804
     24 H3          5.0076   -1.7303   11.9281 H         1 TOP         0.1804
     25 H4         10.2376   -2.0760   14.0948 H         1 TOP         0.1790
     26 H5          9.4224   -1.0196   12.9106 H         1 TOP         0.1790
     27 H6          9.8104   -3.2020   15.9882 H         1 TOP         0.0535
     28 H7         10.3086   -4.1862   14.5705 H         1 TOP         0.0535
     29 H8          9.9844   -4.2256   18.0144 H         1 TOP         0.0367
     30 H9         10.5805   -5.4184   21.4420 H         1 TOP         0.0572
     31 H10         9.6493   -4.4334   20.2633 H         1 TOP         0.0572
     32 H11        11.3784   -4.8081   19.9529 H         1 TOP         0.0572
     33 H12         8.5031  -10.4544   18.9118 H         1 TOP         0.0565
     34 H13         8.4033   -9.8757   17.2142 H         1 TOP         0.0565
     35 H14         7.4532   -9.0564   18.4998 H         1 TOP         0.0565
     36 H15         8.8041  -10.1560   14.4989 H         1 TOP         0.0572
     37 H16        10.0173   -8.8645   14.2046 H         1 TOP         0.0572
     38 H17         8.2638   -8.4789   14.1498 H         1 TOP         0.0572
     39 H18         9.1171   -6.5978   14.6049 H         1 TOP         0.0367
@<TRIPOS>BOND
     1    1    2 ar 
     2    1    8 ar 
     3    2    3 ar 
     4    3    4 1  
     5    3    5 ar 
     6    5    6 ar 
     7    6    7 1  
     8    6    8 ar 
     9    8    9 1  
    10    9   10 1  
    11   10   11 ar 
    12   10   21 ar 
    13   11   12 ar 
    14   12   13 1  
    15   12   15 ar 
    16   13   14 1  
    17   15   16 1  
    18   15   18 ar 
    19   16   17 1  
    20   18   19 1  
    21   18   21 ar 
    22   19   20 1  
    23    1   22 1  
    24    4   23 1  
    25    4   24 1  
    26    7   25 1  
    27    7   26 1  
    28    9   27 1  
    29    9   28 1  
    30   11   29 1  
    31   14   30 1  
    32   14   31 1  
    33   14   32 1  
    34   17   33 1  
    35   17   34 1  
    36   17   35 1  
    37   20   36 1  
    38   20   37 1  
    39   20   38 1  
    40   21   39 1  
@<TRIPOS>SUBSTRUCTURE
     1 TOP         1

