### 
### Created by X-TOOL on Mon Sep 10 21:13:03 2018
### 

@<TRIPOS>MOLECULE
2wa3_ligand
   17    17     1     0     0
SMALL
GAST_HUCK


@<TRIPOS>ATOM
      1 C8         22.6840   26.0610   27.7960 C.2       1 A29         0.1253
      2 O1         22.6770   25.0670   27.0470 O.co2     1 A29        -0.5473
      3 O2         23.7170   26.8100   27.8990 O.co2     1 A29        -0.5473
      4 C7         21.3890   26.4540   28.5550 C.2       1 A29         0.1967
      5 C1         20.0360   25.7500   28.4510 C.ar      1 A29         0.0340
      6 C2         18.9410   26.3420   29.0740 C.ar      1 A29        -0.0142
      7 C3         17.6460   25.8150   28.9940 C.ar      1 A29         0.0932
      8 C4         17.3950   24.6550   28.2730 C.ar      1 A29        -0.0286
      9 C5         18.4710   24.0420   27.6250 C.ar      1 A29        -0.0645
     10 C6         19.7790   24.5890   27.7110 C.ar      1 A29        -0.0535
     11 O3         16.6200   26.4460   29.6500 O.3       1 A29        -0.3320
     12 O7         21.4370   27.4510   29.2660 O.2       1 A29        -0.3453
     13 H1         19.0974   27.2497   29.6455 H         1 A29         0.0594
     14 H2         16.3961   24.2381   28.2146 H         1 A29         0.0581
     15 H3         18.3053   23.1382   27.0499 H         1 A29         0.0602
     16 H4         20.5950   24.0978   27.1933 H         1 A29         0.0578
     17 H5         16.9550   27.2176   30.0915 H         1 A29         0.2481
@<TRIPOS>BOND
     1    1    2 ar 
     2    1    3 ar 
     3    1    4 1  
     4    4    5 1  
     5    4   12 2  
     6    5    6 ar 
     7    5   10 ar 
     8    6    7 ar 
     9    7    8 ar 
    10    7   11 1  
    11    8    9 ar 
    12    9   10 ar 
    13    6   13 1  
    14    8   14 1  
    15    9   15 1  
    16   10   16 1  
    17   11   17 1  
@<TRIPOS>SUBSTRUCTURE
     1 A29         1

