### 
### Created by X-TOOL on Mon Sep 10 21:13:04 2018
### 

@<TRIPOS>MOLECULE
2wa4_ligand
   18    18     1     0     0
SMALL
GAST_HUCK


@<TRIPOS>ATOM
      1 C3         17.0740   25.7740   29.1330 C.ar      1 069         0.0928
      2 O3         16.1090   26.3830   29.8610 O.3       1 069        -0.3321
      3 C2         18.3680   26.2490   29.2720 C.ar      1 069        -0.0138
      4 C1         19.4060   25.7080   28.5330 C.ar      1 069         0.0427
      5 C          20.8400   26.3270   28.6710 C.2       1 069         0.2251
      6 O          21.0730   27.2610   29.4690 O.2       1 069        -0.3850
      7 N          21.7390   25.8450   27.8040 N.am      1 069        -0.1634
      8 C6         19.1010   24.6390   27.6550 C.ar      1 069        -0.0531
      9 C5         17.7920   24.1450   27.5380 C.ar      1 069        -0.0650
     10 C4         16.7480   24.7270   28.2840 C.ar      1 069        -0.0291
     11 O2         23.0340   26.3190   27.7390 O.3       1 069        -0.2719
     12 H1         15.2715   25.9719   29.6815 H         1 069         0.2481
     13 H2         18.5702   27.0547   29.9684 H         1 069         0.0591
     14 H3         21.4621   25.1142   27.1801 H         1 069         0.2213
     15 H4         19.8926   24.1943   27.0628 H         1 069         0.0574
     16 H5         17.5843   23.3147   26.8728 H         1 069         0.0600
     17 H6         15.7282   24.3698   28.1976 H         1 069         0.0577
     18 H7         23.0207   27.2462   27.5319 H         1 069         0.2491
@<TRIPOS>BOND
     1    1    2 1  
     2    1    3 ar 
     3    1   10 ar 
     4    3    4 ar 
     5    4    5 1  
     6    4    8 ar 
     7    5    6 2  
     8    5    7 am 
     9    7   11 1  
    10    8    9 ar 
    11    9   10 ar 
    12    2   12 1  
    13    3   13 1  
    14    7   14 1  
    15    8   15 1  
    16    9   16 1  
    17   10   17 1  
    18   11   18 1  
@<TRIPOS>SUBSTRUCTURE
     1 069         1

