### 
### Created by X-TOOL on Mon Sep 10 21:13:00 2018
### 

@<TRIPOS>MOLECULE
2waj_ligand
   31    33     1     0     0
SMALL
GAST_HUCK


@<TRIPOS>ATOM
      1 CL         18.6030    6.6010   33.1110 Cl        1 SNB        -0.0707
      2 C16        19.9190    7.6810   32.5780 C.ar      1 SNB         0.0794
      3 C2         21.0810    7.1450   32.0540 C.ar      1 SNB         0.1117
      4 O          21.1920    5.7840   31.9400 O.3       1 SNB        -0.3169
      5 C1         22.2100    5.2400   31.0890 C.3       1 SNB         0.0608
      6 C15        19.7610    9.0620   32.6930 C.ar      1 SNB        -0.0338
      7 C14        20.7880    9.9010   32.2710 C.ar      1 SNB         0.0081
      8 C4         21.9650    9.3710   31.7450 C.ar      1 SNB        -0.0140
      9 C3         22.1160    7.9900   31.6280 C.ar      1 SNB        -0.0214
     10 C7         20.6710   11.3810   32.3810 C.ar      1 SNB         0.0553
     11 N          21.4980   12.0690   31.7140 N.ar      1 SNB        -0.2993
     12 C6         22.4980   11.6030   30.7510 C.ar      1 SNB         0.0005
     13 C5         23.0720   10.2950   31.2860 C.ar      1 SNB        -0.0388
     14 C8         19.6410   12.0270   33.2790 C.ar      1 SNB         0.0045
     15 C13        19.4250   11.5260   34.5530 C.ar      1 SNB        -0.0396
     16 C12        18.4910   12.1230   35.3870 C.ar      1 SNB         0.0165
     17 BR         18.2520   11.4290   37.1280 Br        1 SNB        -0.0491
     18 C11        17.7410   13.2130   34.9450 C.ar      1 SNB        -0.0497
     19 C10        17.9310   13.7160   33.6700 C.ar      1 SNB        -0.0556
     20 C9         18.8990   13.1210   32.8560 C.ar      1 SNB        -0.0467
     21 H1         22.1594    4.1414   31.1129 H         1 SNB         0.0580
     22 H2         23.1982    5.5693   31.4426 H         1 SNB         0.0580
     23 H3         22.0533    5.5919   30.0587 H         1 SNB         0.0580
     24 H4         18.8488    9.4770   33.1063 H         1 SNB         0.0654
     25 H5         23.0257    7.5729   31.2113 H         1 SNB         0.0517
     26 H6         22.7787   12.0968   29.8277 H         1 SNB         0.0762
     27 H7         24.1291   10.0594   31.3313 H         1 SNB         0.0670
     28 H8         19.9871   10.6659   34.8985 H         1 SNB         0.0676
     29 H9         17.0078   13.6670   35.6018 H         1 SNB         0.0664
     30 H10        17.3425   14.5524   33.3107 H         1 SNB         0.0631
     31 H11        19.0753   13.5256   31.8659 H         1 SNB         0.0671
@<TRIPOS>BOND
     1    1    2 1  
     2    2    3 ar 
     3    2    6 ar 
     4    3    4 1  
     5    3    9 ar 
     6    4    5 1  
     7    6    7 ar 
     8    7    8 ar 
     9    7   10 ar 
    10    8    9 ar 
    11    8   13 ar 
    12   10   11 ar 
    13   10   14 1  
    14   11   12 ar 
    15   12   13 ar 
    16   14   15 ar 
    17   14   20 ar 
    18   15   16 ar 
    19   16   17 1  
    20   16   18 ar 
    21   18   19 ar 
    22   19   20 ar 
    23    5   21 1  
    24    5   22 1  
    25    5   23 1  
    26    6   24 1  
    27    9   25 1  
    28   12   26 1  
    29   13   27 1  
    30   15   28 1  
    31   18   29 1  
    32   19   30 1  
    33   20   31 1  
@<TRIPOS>SUBSTRUCTURE
     1 SNB         1

