### 
### Created by X-TOOL on Mon Sep 10 21:13:00 2018
### 

@<TRIPOS>MOLECULE
2wap_ligand
   45    47     1     0     0
SMALL
GAST_HUCK


@<TRIPOS>ATOM
      1 O9        -12.5720  -11.4210   -4.6340 O.2       1 PIX        -0.3829
      2 C8        -13.5160  -11.2030   -3.8770 C.2       1 PIX         0.1718
      3 N3        -14.6790  -10.6950   -4.2770 N.am      1 PIX        -0.2747
      4 C2        -15.7490  -10.4700   -3.2970 C.3       1 PIX         0.0345
      5 C1        -16.3760   -9.0940   -3.5450 C.3       1 PIX        -0.0277
      6 C4        -14.9060  -10.3930   -5.6890 C.3       1 PIX         0.0345
      7 C5        -15.5670   -9.0360   -5.8370 C.3       1 PIX        -0.0277
      8 C6        -16.8080   -8.8810   -4.9790 C.3       1 PIX        -0.0278
      9 C7        -17.3700   -7.4660   -5.0870 C.3       1 PIX        -0.0182
     10 C12       -18.0840   -7.2500   -6.3940 C.ar      1 PIX        -0.0488
     11 C13       -19.4390   -7.4930   -6.4980 C.ar      1 PIX        -0.0691
     12 C14       -20.0980   -7.3070   -7.7090 C.ar      1 PIX        -0.0743
     13 C15       -19.3950   -6.8660   -8.8190 C.ar      1 PIX        -0.0315
     14 C17       -17.3820   -6.8030   -7.4930 C.ar      1 PIX        -0.0237
     15 C16       -18.0350   -6.6290   -8.6970 C.ar      1 PIX         0.1247
     16 O18       -17.3280   -6.1890   -9.7600 O.3       1 PIX        -0.2180
     17 C19       -17.1890   -4.8440   -9.9220 C.ar      1 PIX         0.2242
     18 C20       -17.9130   -3.9590   -9.1220 C.ar      1 PIX         0.0291
     19 C21       -17.7440   -2.5970   -9.3040 C.ar      1 PIX        -0.0227
     20 N24       -16.3290   -4.3880  -10.8710 N.ar      1 PIX        -0.2297
     21 C23       -16.1600   -3.0680  -11.0590 C.ar      1 PIX         0.0351
     22 C24       -16.8670   -2.1370  -10.2840 C.ar      1 PIX         0.0606
     23 C25       -16.6690   -0.6590  -10.4900 C.3       1 PIX         0.3714
     24 F28       -16.3400   -0.3870  -11.7320 F         1 PIX        -0.2281
     25 F26       -17.7680    0.0120  -10.1990 F         1 PIX        -0.2281
     26 F27       -15.6770   -0.2570   -9.7210 F         1 PIX        -0.2281
     27 H1        -13.3936  -11.4387   -2.8209 H         1 PIX         0.1546
     28 H2        -15.3307  -10.5061   -2.2803 H         1 PIX         0.0524
     29 H3        -16.5174  -11.2496   -3.4053 H         1 PIX         0.0524
     30 H4        -15.6369   -8.3219   -3.2851 H         1 PIX         0.0289
     31 H5        -17.2581   -8.9905   -2.8960 H         1 PIX         0.0289
     32 H6        -15.5585  -11.1639   -6.1247 H         1 PIX         0.0524
     33 H7        -13.9418  -10.3867   -6.2184 H         1 PIX         0.0524
     34 H8        -15.8507   -8.8980   -6.8908 H         1 PIX         0.0289
     35 H9        -14.8426   -8.2605   -5.5477 H         1 PIX         0.0289
     36 H10       -17.5714   -9.6159   -5.2742 H         1 PIX         0.0324
     37 H11       -16.5416   -6.7464   -5.0100 H         1 PIX         0.0427
     38 H12       -18.0782   -7.2996   -4.2620 H         1 PIX         0.0427
     39 H13       -19.9933   -7.8311   -5.6300 H         1 PIX         0.0483
     40 H14       -21.1607   -7.5069   -7.7844 H         1 PIX         0.0578
     41 H15       -19.8997   -6.7093   -9.7654 H         1 PIX         0.0512
     42 H16       -16.3224   -6.5891   -7.4123 H         1 PIX         0.0504
     43 H17       -18.5977   -4.3325   -8.3691 H         1 PIX         0.0729
     44 H18       -18.2908   -1.8926   -8.6876 H         1 PIX         0.0912
     45 H19       -15.4695   -2.7189  -11.8182 H         1 PIX         0.1055
@<TRIPOS>BOND
     1    1    2 2  
     2    2    3 am 
     3    3    4 1  
     4    3    6 1  
     5    4    5 1  
     6    5    8 1  
     7    6    7 1  
     8    7    8 1  
     9    8    9 1  
    10    9   10 1  
    11   10   11 ar 
    12   10   14 ar 
    13   11   12 ar 
    14   12   13 ar 
    15   13   15 ar 
    16   14   15 ar 
    17   15   16 1  
    18   16   17 1  
    19   17   18 ar 
    20   17   20 ar 
    21   18   19 ar 
    22   19   22 ar 
    23   20   21 ar 
    24   21   22 ar 
    25   22   23 1  
    26   23   24 1  
    27   23   25 1  
    28   23   26 1  
    29    2   27 1  
    30    4   28 1  
    31    4   29 1  
    32    5   30 1  
    33    5   31 1  
    34    6   32 1  
    35    6   33 1  
    36    7   34 1  
    37    7   35 1  
    38    8   36 1  
    39    9   37 1  
    40    9   38 1  
    41   11   39 1  
    42   12   40 1  
    43   13   41 1  
    44   14   42 1  
    45   18   43 1  
    46   19   44 1  
    47   21   45 1  
@<TRIPOS>SUBSTRUCTURE
     1 PIX         1

