### 
### Created by X-TOOL on Mon Sep 10 21:13:00 2018
### 

@<TRIPOS>MOLECULE
2wb5_ligand
   51    53     1     0     0
SMALL
GAST_HUCK


@<TRIPOS>ATOM
      1 CBA        37.1180   40.7830   22.4200 C.3       1 VGB        -0.0482
      2 CAN        36.3730   41.9840   21.8530 C.3       1 VGB         0.0346
      3 CAL        34.8300   41.8550   21.8190 C.2       1 VGB         0.1783
      4 OAM        34.1940   40.8890   22.2620 O.2       1 VGB        -0.3969
      5 NAK        34.2570   42.9020   21.2500 N.am      1 VGB        -0.2640
      6 CAC        32.7940   43.0210   21.1110 C.3       1 VGB         0.1446
      7 CAB        32.1550   43.1900   22.4710 C.3       1 VGB         0.1222
      8 OAG        32.2030   44.5760   22.7320 O.3       1 VGB        -0.3842
      9 CAA        30.7170   42.6680   22.4770 C.3       1 VGB         0.1176
     10 OAH        30.1570   42.9940   23.7540 O.3       1 VGB        -0.3858
     11 CAF        30.7730   41.1640   22.2490 C.3       1 VGB         0.1168
     12 CAI        29.4770   40.3640   22.4840 C.3       1 VGB         0.0768
     13 OAJ        28.4160   41.0020   21.8070 O.3       1 VGB        -0.3919
     14 NAE        31.1810   41.0250   20.8510 N.pl3     1 VGB        -0.2497
     15 CAQ        30.8100   40.2080   19.8900 C.2       1 VGB         0.0236
     16 CAD        32.1570   41.8780   20.3130 C.2       1 VGB         0.1393
     17 NAO        32.2980   41.5580   19.0520 N.2       1 VGB        -0.3317
     18 CAP        31.4990   40.5410   18.7870 C.2       1 VGB        -0.0178
     19 CAR        31.4280   39.8440   17.4180 C.3       1 VGB        -0.0191
     20 CAS        31.2930   40.8880   16.3130 C.3       1 VGB        -0.0133
     21 CAT        29.8640   41.4530   16.1900 C.ar      1 VGB        -0.0416
     22 CAU        28.8390   40.6370   15.7040 C.ar      1 VGB        -0.0602
     23 CAV        27.5530   41.1440   15.5490 C.ar      1 VGB        -0.0686
     24 CAW        27.3130   42.4690   15.8980 C.ar      1 VGB        -0.0687
     25 CAX        28.3240   43.2950   16.3920 C.ar      1 VGB        -0.0686
     26 CAY        29.6050   42.7840   16.5420 C.ar      1 VGB        -0.0602
     27 H1         38.2002   40.9790   22.3979 H         1 VGB         0.0254
     28 H2         36.8941   39.8929   21.8137 H         1 VGB         0.0254
     29 H3         36.7980   40.6096   23.4580 H         1 VGB         0.0254
     30 H4         36.7226   42.1443   20.8224 H         1 VGB         0.0500
     31 H5         36.6264   42.8609   22.4668 H         1 VGB         0.0500
     32 H6         34.8362   43.6390   20.9017 H         1 VGB         0.1888
     33 H7         32.6008   43.9435   20.5439 H         1 VGB         0.0820
     34 H8         32.7338   42.6437   23.2303 H         1 VGB         0.0672
     35 H9         31.8131   44.7510   23.5804 H         1 VGB         0.2103
     36 H10        30.1275   43.1428   21.6789 H         1 VGB         0.0654
     37 H11        29.2601   42.6834   23.7938 H         1 VGB         0.2100
     38 H12        31.5445   40.7421   22.9099 H         1 VGB         0.0699
     39 H13        29.2573   40.3253   23.5611 H         1 VGB         0.0589
     40 H14        29.5993   39.3413   22.0978 H         1 VGB         0.0589
     41 H15        28.3137   41.8851   22.1418 H         1 VGB         0.2095
     42 H16        30.0771   39.4069   19.9736 H         1 VGB         0.0663
     43 H17        30.5569   39.1728   17.3946 H         1 VGB         0.0392
     44 H18        32.3458   39.2593   17.2578 H         1 VGB         0.0392
     45 H19        31.5696   40.4228   15.3554 H         1 VGB         0.0442
     46 H20        31.9809   41.7186   16.5294 H         1 VGB         0.0442
     47 H21        29.0469   39.6047   15.4467 H         1 VGB         0.0557
     48 H22        26.7546   40.5197   15.1643 H         1 VGB         0.0599
     49 H23        26.3130   42.8713   15.7831 H         1 VGB         0.0559
     50 H24        28.1105   44.3246   16.6556 H         1 VGB         0.0599
     51 H25        30.4004   43.4106   16.9291 H         1 VGB         0.0557
@<TRIPOS>BOND
     1    1    2 1  
     2    2    3 1  
     3    3    4 2  
     4    3    5 am 
     5    5    6 1  
     6    6    7 1  
     7    6   16 1  
     8    7    8 1  
     9    7    9 1  
    10    9   10 1  
    11    9   11 1  
    12   11   12 1  
    13   11   14 1  
    14   12   13 1  
    15   14   15 1  
    16   14   16 1  
    17   15   18 2  
    18   16   17 2  
    19   17   18 1  
    20   18   19 1  
    21   19   20 1  
    22   20   21 1  
    23   21   22 ar 
    24   21   26 ar 
    25   22   23 ar 
    26   23   24 ar 
    27   24   25 ar 
    28   25   26 ar 
    29    1   27 1  
    30    1   28 1  
    31    1   29 1  
    32    2   30 1  
    33    2   31 1  
    34    5   32 1  
    35    6   33 1  
    36    7   34 1  
    37    8   35 1  
    38    9   36 1  
    39   10   37 1  
    40   11   38 1  
    41   12   39 1  
    42   12   40 1  
    43   13   41 1  
    44   15   42 1  
    45   19   43 1  
    46   19   44 1  
    47   20   45 1  
    48   20   46 1  
    49   22   47 1  
    50   23   48 1  
    51   24   49 1  
    52   25   50 1  
    53   26   51 1  
@<TRIPOS>SUBSTRUCTURE
     1 VGB         1

