### 
### Created by X-TOOL on Mon Sep 10 21:13:01 2018
### 

@<TRIPOS>MOLECULE
2wbb_ligand
   30    31     1     0     0
SMALL
GAST_HUCK


@<TRIPOS>ATOM
      1 C5          5.1960  -15.5910    7.9160 C.ar      1 RO3        -0.0587
      2 C6          5.3350  -14.4510    7.1410 C.ar      1 RO3        -0.0415
      3 C9          4.6950  -16.7500   10.0740 C.3       1 RO3        -0.0311
      4 C10         4.8350  -15.4950    9.2570 C.ar      1 RO3        -0.0460
      5 C1          7.4780  -10.8590    7.5200 C.2       1 RO3         0.3212
      6 O1          6.9980  -10.3970    8.5390 O.2       1 RO3        -0.3846
      7 N1          8.7720  -10.6900    7.2190 N.am      1 RO3        -0.1760
      8 C4          9.5840   -9.9180    7.9450 C.2       1 RO3         0.2090
      9 O3          4.7650  -12.0650    5.4910 O.2       1 RO3        -0.1465
     10 C15        11.2170   -8.4600    8.3020 C.2       1 RO3        -0.0340
     11 C14        10.6300   -8.6020    9.5140 C.2       1 RO3         0.0631
     12 C12         4.7120  -13.0970    9.0540 C.ar      1 RO3        -0.0415
     13 O2          4.5450  -10.7830    7.3600 O.2       1 RO3        -0.1465
     14 BR2        11.2740   -7.6460   11.0690 Br        1 RO3        -0.0568
     15 S16         9.3990   -9.5990    9.4930 S.3       1 RO3         0.0162
     16 N17        10.5840   -9.2110    7.4210 N.2       1 RO3        -0.3160
     17 N5          6.7500  -11.5770    6.6700 N.am      1 RO3        -0.1332
     18 S2          5.2650  -11.8960    6.8220 S.o2      1 RO3         0.0886
     19 C11         5.0840  -13.2030    7.7110 C.ar      1 RO3         0.1060
     20 C8          4.5880  -14.2450    9.8300 C.ar      1 RO3        -0.0587
     21 H1          5.3698  -16.5657    7.4745 H         1 RO3         0.0557
     22 H2          5.6357  -14.5282    6.1024 H         1 RO3         0.0619
     23 H3          4.4066  -16.4876   11.1026 H         1 RO3         0.0391
     24 H4          5.6547  -17.2874   10.0881 H         1 RO3         0.0391
     25 H5          3.9213  -17.3929    9.6290 H         1 RO3         0.0391
     26 H6          9.1446  -11.1605    6.4191 H         1 RO3         0.2426
     27 H7         12.0761   -7.8259    8.0882 H         1 RO3         0.0571
     28 H8          4.5206  -12.1231    9.4898 H         1 RO3         0.0619
     29 H9          7.2151  -11.9389    5.8621 H         1 RO3         0.2150
     30 H10         4.3015  -14.1701   10.8728 H         1 RO3         0.0557
@<TRIPOS>BOND
     1    2    1 ar 
     2    1    4 ar 
     3   19    2 ar 
     4    4    3 1  
     5   20    4 ar 
     6    5    6 2  
     7    5    7 am 
     8   17    5 am 
     9    7    8 1  
    10    8   15 1  
    11    8   16 2  
    12   18    9 2  
    13   10   11 2  
    14   16   10 1  
    15   11   14 1  
    16   15   11 1  
    17   19   12 ar 
    18   12   20 ar 
    19   18   13 2  
    20   18   17 am 
    21   18   19 1  
    22    1   21 1  
    23    2   22 1  
    24    3   23 1  
    25    3   24 1  
    26    3   25 1  
    27    7   26 1  
    28   10   27 1  
    29   12   28 1  
    30   17   29 1  
    31   20   30 1  
@<TRIPOS>SUBSTRUCTURE
     1 RO3         1

