### 
### Created by X-TOOL on Mon Sep 10 21:13:01 2018
### 

@<TRIPOS>MOLECULE
2wbd_ligand
   33    34     1     0     0
SMALL
GAST_HUCK


@<TRIPOS>ATOM
      1 C5         34.8610   13.8410  -23.2290 C.ar      1 RO5        -0.0667
      2 C6         36.2530   13.8000  -23.2130 C.ar      1 RO5        -0.0417
      3 C10        34.1510   13.5390  -22.0780 C.ar      1 RO5        -0.0602
      4 C1         39.3890   10.9120  -22.4290 C.2       1 RO5         0.3212
      5 O1         39.0970   10.5930  -21.2920 O.2       1 RO5        -0.3846
      6 N1         39.8530   10.0460  -23.3190 N.am      1 RO5        -0.1760
      7 C4         40.0740    8.8140  -22.9060 C.2       1 RO5         0.2090
      8 O3         39.3080   14.5630  -22.5550 O.2       1 RO5        -0.1458
      9 C15        41.0480    6.7670  -22.8370 C.2       1 RO5        -0.0340
     10 C14        40.3050    6.5600  -21.7110 C.2       1 RO5         0.0631
     11 C12        36.2350   13.1840  -20.8980 C.ar      1 RO5        -0.0333
     12 O2         39.0730   13.3430  -20.6190 O.2       1 RO5        -0.1458
     13 BR2        40.1840    5.0270  -20.5840 Br        1 RO5        -0.0568
     14 S16        39.4330    8.0370  -21.4850 S.3       1 RO5         0.0162
     15 N17        40.9340    7.9280  -23.4190 N.2       1 RO5        -0.3160
     16 N5         39.2490   12.1390  -22.8640 N.am      1 RO5        -0.1326
     17 S2         38.6890   13.4090  -21.9990 S.o2      1 RO5         0.0901
     18 C11        36.9340   13.4640  -22.0550 C.ar      1 RO5         0.1064
     19 C8         34.8430   13.2160  -20.9070 C.ar      1 RO5        -0.0414
     20 C20        34.1110   12.9330  -19.6110 C.3       1 RO5        -0.0219
     21 C21        33.2690   11.7020  -19.7290 C.3       1 RO5        -0.0554
     22 H1         34.3350   14.1081  -24.1384 H         1 RO5         0.0600
     23 H2         36.8080   14.0330  -24.1145 H         1 RO5         0.0578
     24 H3         33.0671   13.5531  -22.0855 H         1 RO5         0.0557
     25 H4         40.0283   10.3166  -24.2656 H         1 RO5         0.2426
     26 H5         41.7075    5.9958  -23.2322 H         1 RO5         0.0571
     27 H6         36.7677   12.9402  -19.9860 H         1 RO5         0.0576
     28 H7         39.5086   12.3160  -23.8134 H         1 RO5         0.2150
     29 H8         33.4644   13.7892  -19.3686 H         1 RO5         0.0423
     30 H9         34.8469   12.7897  -18.8060 H         1 RO5         0.0423
     31 H10        32.7499   11.5202  -18.7764 H         1 RO5         0.0252
     32 H11        33.9102   10.8406  -19.9673 H         1 RO5         0.0252
     33 H12        32.5278   11.8401  -20.5299 H         1 RO5         0.0252
@<TRIPOS>BOND
     1    2    1 ar 
     2    1    3 ar 
     3   18    2 ar 
     4   19    3 ar 
     5    4    5 2  
     6    4    6 am 
     7   16    4 am 
     8    6    7 1  
     9    7   14 1  
    10    7   15 2  
    11   17    8 2  
    12    9   10 2  
    13   15    9 1  
    14   10   13 1  
    15   14   10 1  
    16   18   11 ar 
    17   11   19 ar 
    18   17   12 2  
    19   17   16 am 
    20   17   18 1  
    21   19   20 1  
    22   20   21 1  
    23    1   22 1  
    24    2   23 1  
    25    3   24 1  
    26    6   25 1  
    27    9   26 1  
    28   11   27 1  
    29   16   28 1  
    30   20   29 1  
    31   20   30 1  
    32   21   31 1  
    33   21   32 1  
    34   21   33 1  
@<TRIPOS>SUBSTRUCTURE
     1 RO5         1

