### 
### Created by X-TOOL on Mon Sep 10 21:13:00 2018
### 

@<TRIPOS>MOLECULE
2wc3_ligand
   50    51     1     0     0
SMALL
GAST_HUCK


@<TRIPOS>ATOM
      1 O4          0.4080   -0.0410   11.7630 O.3       1 AM3        -0.3867
      2 C4          1.6890    0.3380   11.2440 C.3       1 AM3         0.1103
      3 C5          1.8200    1.8740   11.1390 C.3       1 AM3         0.1113
      4 C6          0.6760    2.5940   10.3810 C.3       1 AM3         0.1120
      5 O6          0.3070    3.6430   11.3140 O.3       1 AM3        -0.2547
      6 C3          2.8740   -0.1490   12.0980 C.3       1 AM3         0.1137
      7 O3          2.9070   -1.5580   12.1860 O.3       1 AM3        -0.3864
      8 C2          2.9180    0.4130   13.5280 C.3       1 AM3         0.1318
      9 O2          4.2510    0.1860   14.0480 O.3       1 AM3        -0.3843
     10 C1          2.6310    1.9250   13.5880 C.3       1 AM3         0.1770
     11 O1          1.7810    2.1770   14.6900 O.3       1 AM3        -0.3666
     12 N1          1.8160    2.4440   12.4920 N.pl3     1 AM3        -0.2126
     13 C7          0.9160    3.5260   12.5140 C.2       1 AM3         0.2439
     14 N2          0.6120    4.3240   13.5520 N.2       1 AM3        -0.3607
     15 C8         -0.7070    4.7020   14.1310 C.3       1 AM3        -0.0300
     16 C9         -1.0960    6.1100   13.7270 C.3       1 AM3        -0.0515
     17 C10        -1.6840    6.9770   14.8290 C.3       1 AM3        -0.0530
     18 C11        -3.1450    6.6770   15.1400 C.3       1 AM3        -0.0531
     19 C12        -3.8480    7.9790   15.5160 C.3       1 AM3        -0.0531
     20 C13        -5.1960    7.6560   16.1520 C.3       1 AM3        -0.0533
     21 C14        -5.9040    8.9200   16.6040 C.3       1 AM3        -0.0559
     22 C15        -6.7890    9.4530   15.4970 C.3       1 AM3        -0.0653
     23 H1         -0.2743    0.2824   11.1865 H         1 AM3         0.2100
     24 H2          1.7820   -0.0983   10.2385 H         1 AM3         0.0645
     25 H3          2.7721    2.1010   10.6370 H         1 AM3         0.0626
     26 H4         -0.1673    1.9138   10.1910 H         1 AM3         0.0660
     27 H5          1.0305    3.0137    9.4280 H         1 AM3         0.0660
     28 H6          3.7893    0.1826   11.5860 H         1 AM3         0.0647
     29 H7          2.9931   -1.9267   11.3147 H         1 AM3         0.2100
     30 H8          2.1772   -0.1164   14.1452 H         1 AM3         0.0669
     31 H9          4.8845    0.6310   13.4974 H         1 AM3         0.2101
     32 H10         3.5816    2.4735   13.6619 H         1 AM3         0.0908
     33 H11         1.6102    3.1096   14.7500 H         1 AM3         0.2124
     34 H12        -0.6472    4.6465   15.2280 H         1 AM3         0.0282
     35 H13        -1.4727    3.9999   13.7695 H         1 AM3         0.0282
     36 H14        -1.8419    6.0360   12.9219 H         1 AM3         0.0266
     37 H15        -0.1947    6.6130   13.3468 H         1 AM3         0.0266
     38 H16        -1.6052    8.0298   14.5201 H         1 AM3         0.0265
     39 H17        -1.0958    6.8185   15.7449 H         1 AM3         0.0265
     40 H18        -3.2060    5.9688   15.9794 H         1 AM3         0.0265
     41 H19        -3.6286    6.2387   14.2545 H         1 AM3         0.0265
     42 H20        -4.0038    8.5871   14.6127 H         1 AM3         0.0265
     43 H21        -3.2280    8.5383   16.2321 H         1 AM3         0.0265
     44 H22        -5.0352    7.0034   17.0228 H         1 AM3         0.0265
     45 H23        -5.8255    7.1357   15.4151 H         1 AM3         0.0265
     46 H24        -5.1546    9.6810   16.8672 H         1 AM3         0.0263
     47 H25        -6.5222    8.6939   17.4853 H         1 AM3         0.0263
     48 H26        -7.2943   10.3679   15.8400 H         1 AM3         0.0230
     49 H27        -7.5416    8.6957   15.2325 H         1 AM3         0.0230
     50 H28        -6.1740    9.6827   14.6144 H         1 AM3         0.0230
@<TRIPOS>BOND
     1    1    2 1  
     2    2    3 1  
     3    2    6 1  
     4    3    4 1  
     5    3   12 1  
     6    4    5 1  
     7    5   13 1  
     8    6    7 1  
     9    6    8 1  
    10    8    9 1  
    11    8   10 1  
    12   10   11 1  
    13   10   12 1  
    14   12   13 1  
    15   13   14 2  
    16   14   15 1  
    17   15   16 1  
    18   16   17 1  
    19   17   18 1  
    20   18   19 1  
    21   19   20 1  
    22   20   21 1  
    23   21   22 1  
    24    1   23 1  
    25    2   24 1  
    26    3   25 1  
    27    4   26 1  
    28    4   27 1  
    29    6   28 1  
    30    7   29 1  
    31    8   30 1  
    32    9   31 1  
    33   10   32 1  
    34   11   33 1  
    35   15   34 1  
    36   15   35 1  
    37   16   36 1  
    38   16   37 1  
    39   17   38 1  
    40   17   39 1  
    41   18   40 1  
    42   18   41 1  
    43   19   42 1  
    44   19   43 1  
    45   20   44 1  
    46   20   45 1  
    47   21   46 1  
    48   21   47 1  
    49   22   48 1  
    50   22   49 1  
    51   22   50 1  
@<TRIPOS>SUBSTRUCTURE
     1 AM3         1

