### 
### Created by X-TOOL on Mon Sep 10 21:12:59 2018
### 

@<TRIPOS>MOLECULE
2wc4_ligand
   50    51     1     0     0
SMALL
GAST_HUCK


@<TRIPOS>ATOM
      1 O4          0.7280    7.5290   14.3270 O.3       1 AMF        -0.3867
      2 C4          1.6200    6.6390   13.6320 C.3       1 AMF         0.1088
      3 C5          0.9800    6.2960   12.2800 C.3       1 AMF         0.0929
      4 C6          0.5540    7.4960   11.4160 C.3       1 AMF         0.0456
      5 S1          0.6600    6.9870    9.7150 S.3       1 AMF        -0.0288
      6 C3          1.8110    5.3290   14.3850 C.3       1 AMF         0.1137
      7 O3          2.3660    5.5290   15.6720 O.3       1 AMF        -0.3864
      8 C2          2.8660    4.4700   13.6870 C.3       1 AMF         0.1319
      9 O2          2.7650    3.1160   14.1630 O.3       1 AMF        -0.3843
     10 C1          2.7050    4.4200   12.1600 C.3       1 AMF         0.1759
     11 O1          4.0160    4.3950   11.5500 O.3       1 AMF        -0.3665
     12 N1          1.9240    5.4520   11.5040 N.pl3     1 AMF        -0.2304
     13 C7          1.7950    5.7170   10.1190 C.2       1 AMF         0.1616
     14 N2          2.4930    5.0800    9.1530 N.2       1 AMF        -0.3649
     15 C8          2.3840    5.3600    7.7010 C.3       1 AMF        -0.0246
     16 C9          3.6330    6.0350    7.1610 C.3       1 AMF        -0.0500
     17 C10         3.6000    6.0750    5.6300 C.3       1 AMF        -0.0529
     18 C11         4.8600    6.7980    5.1500 C.3       1 AMF        -0.0531
     19 C12         4.9050    6.8160    3.6270 C.3       1 AMF        -0.0531
     20 C13         6.3550    6.9580    3.1520 C.3       1 AMF        -0.0533
     21 C14         6.3940    7.8860    1.9490 C.3       1 AMF        -0.0559
     22 C15         7.8090    8.4080    1.7750 C.3       1 AMF        -0.0653
     23 H1          0.6032    8.3170   13.8112 H         1 AMF         0.2100
     24 H2          2.5935    7.1299   13.4860 H         1 AMF         0.0645
     25 H3          0.0741    5.7079   12.4885 H         1 AMF         0.0610
     26 H4          1.2264    8.3476   11.5967 H         1 AMF         0.0439
     27 H5         -0.4789    7.7865   11.6583 H         1 AMF         0.0439
     28 H6          0.8480    4.8017   14.4519 H         1 AMF         0.0647
     29 H7          2.4680    4.6899   16.1055 H         1 AMF         0.2100
     30 H8          3.8598    4.8758   13.9272 H         1 AMF         0.0669
     31 H9          1.8986    2.7773   13.9696 H         1 AMF         0.2101
     32 H10         2.2035    3.4666   11.9377 H         1 AMF         0.0910
     33 H11         4.5448    3.7244   11.9660 H         1 AMF         0.2124
     34 H12         1.5205    6.0195    7.5294 H         1 AMF         0.0300
     35 H13         2.2326    4.4110    7.1658 H         1 AMF         0.0300
     36 H14         4.5195    5.4728    7.4896 H         1 AMF         0.0267
     37 H15         3.6859    7.0629    7.5491 H         1 AMF         0.0267
     38 H16         2.7056    6.6174    5.2897 H         1 AMF         0.0265
     39 H17         3.5819    5.0505    5.2299 H         1 AMF         0.0265
     40 H18         5.7482    6.2750    5.5341 H         1 AMF         0.0265
     41 H19         4.8519    7.8317    5.5260 H         1 AMF         0.0265
     42 H20         4.3138    7.6654    3.2542 H         1 AMF         0.0265
     43 H21         4.4837    5.8773    3.2381 H         1 AMF         0.0265
     44 H22         6.7485    5.9706    2.8687 H         1 AMF         0.0265
     45 H23         6.9688    7.3787    3.9621 H         1 AMF         0.0265
     46 H24         5.7068    8.7295    2.1111 H         1 AMF         0.0263
     47 H25         6.0908    7.3341    1.0471 H         1 AMF         0.0263
     48 H26         7.8472    9.0812    0.9059 H         1 AMF         0.0230
     49 H27         8.4945    7.5628    1.6145 H         1 AMF         0.0230
     50 H28         8.1106    8.9583    2.6785 H         1 AMF         0.0230
@<TRIPOS>BOND
     1    1    2 1  
     2    2    3 1  
     3    2    6 1  
     4    3    4 1  
     5    3   12 1  
     6    4    5 1  
     7    5   13 1  
     8    6    7 1  
     9    6    8 1  
    10    8    9 1  
    11    8   10 1  
    12   10   11 1  
    13   10   12 1  
    14   12   13 1  
    15   13   14 2  
    16   14   15 1  
    17   15   16 1  
    18   16   17 1  
    19   17   18 1  
    20   18   19 1  
    21   19   20 1  
    22   20   21 1  
    23   21   22 1  
    24    1   23 1  
    25    2   24 1  
    26    3   25 1  
    27    4   26 1  
    28    4   27 1  
    29    6   28 1  
    30    7   29 1  
    31    8   30 1  
    32    9   31 1  
    33   10   32 1  
    34   11   33 1  
    35   15   34 1  
    36   15   35 1  
    37   16   36 1  
    38   16   37 1  
    39   17   38 1  
    40   17   39 1  
    41   18   40 1  
    42   18   41 1  
    43   19   42 1  
    44   19   43 1  
    45   20   44 1  
    46   20   45 1  
    47   21   46 1  
    48   21   47 1  
    49   22   48 1  
    50   22   49 1  
    51   22   50 1  
@<TRIPOS>SUBSTRUCTURE
     1 AMF         1

