### 
### Created by X-TOOL on Mon Sep 10 21:12:59 2018
### 

@<TRIPOS>MOLECULE
2wcg_ligand
   28    29     1     0     0
SMALL
GAST_HUCK


@<TRIPOS>ATOM
      1 N9        -24.5140  -17.0110  -38.3320 N.pl3     1 MT5        -0.2846
      2 C10       -24.3030  -16.5890  -39.5890 C.cat     1 MT5         0.2949
      3 N11       -23.4540  -15.6180  -39.9860 N.pl3     1 MT5        -0.2682
      4 C12       -23.5070  -15.4480  -41.4370 C.3       1 MT5         0.1010
      5 C13       -24.5410  -16.5030  -41.8660 C.3       1 MT5         0.1390
      6 N14       -24.9760  -17.1480  -40.6480 N.pl3     1 MT5        -0.2231
      7 C15       -25.9600  -18.1570  -40.6510 C.3       1 MT5         0.2050
      8 O16       -25.6760  -19.3890  -40.1450 O.3       1 MT5        -0.3562
      9 C17       -26.8270  -18.2540  -41.9000 C.3       1 MT5         0.1444
     10 O18       -26.9570  -19.5750  -42.4770 O.3       1 MT5        -0.3828
     11 C19       -26.4850  -17.2570  -43.0140 C.3       1 MT5         0.1165
     12 O20       -27.7150  -16.8290  -43.5320 O.3       1 MT5        -0.3863
     13 C21       -25.7960  -16.0120  -42.4650 C.3       1 MT5         0.1227
     14 O22       -25.4830  -15.0600  -43.4370 O.3       1 MT5        -0.3852
     15 H1        -23.9998  -16.5796  -37.5508 H         1 MT5         0.2615
     16 H2        -25.1901  -17.7662  -38.1489 H         1 MT5         0.2615
     17 H3        -22.8516  -15.0719  -39.3537 H         1 MT5         0.2643
     18 H4        -22.5265  -15.6450  -41.8951 H         1 MT5         0.0728
     19 H5        -23.8402  -14.4346  -41.7053 H         1 MT5         0.0728
     20 H6        -24.0614  -17.2139  -42.5549 H         1 MT5         0.0791
     21 H7        -26.6632  -17.7631  -39.9025 H         1 MT5         0.1078
     22 H8        -26.4415  -19.9462  -40.2228 H         1 MT5         0.2137
     23 H9        -27.8352  -17.9811  -41.5548 H         1 MT5         0.0684
     24 H10       -26.0981  -19.8973  -42.7242 H         1 MT5         0.2102
     25 H11       -25.8620  -17.7348  -43.7844 H         1 MT5         0.0649
     26 H12       -27.5627  -16.2045  -44.2316 H         1 MT5         0.2100
     27 H13       -26.4344  -15.5441  -41.7011 H         1 MT5         0.0660
     28 H14       -26.2806  -14.7732  -43.8662 H         1 MT5         0.2101
@<TRIPOS>BOND
     1    1    2 ar 
     2    2    3 ar 
     3    2    6 ar 
     4    3    4 1  
     5    4    5 1  
     6    5    6 1  
     7    5   13 1  
     8    6    7 1  
     9    7    8 1  
    10    7    9 1  
    11    9   10 1  
    12    9   11 1  
    13   11   12 1  
    14   11   13 1  
    15   13   14 1  
    16    1   15 1  
    17    1   16 1  
    18    3   17 1  
    19    4   18 1  
    20    4   19 1  
    21    5   20 1  
    22    7   21 1  
    23    8   22 1  
    24    9   23 1  
    25   10   24 1  
    26   11   25 1  
    27   12   26 1  
    28   13   27 1  
    29   14   28 1  
@<TRIPOS>SUBSTRUCTURE
     1 MT5         1

