### 
### Created by X-TOOL on Mon Sep 10 21:12:59 2018
### 

@<TRIPOS>MOLECULE
2wcx_ligand
   44    47     1     0     0
SMALL
GAST_HUCK


@<TRIPOS>ATOM
      1 C15        30.8760   14.9350    7.3790 C.3       1 VGC        -0.0447
      2 C18        31.2790   16.1490    8.1720 C.3       1 VGC        -0.0515
      3 C19        32.2210   15.7110    9.3530 C.3       1 VGC        -0.0528
      4 C17        31.5720   14.6390   10.2300 C.3       1 VGC        -0.0515
      5 C16        31.0080   13.4930    9.3910 C.3       1 VGC        -0.0447
      6 C14        30.0150   14.0120    8.3390 C.3       1 VGC        -0.0207
      7 C5         29.4940   12.8140    7.5280 C.2       1 VGC        -0.0257
      8 C2         30.2940   12.0990    6.6360 C.2       1 VGC         0.0342
      9 S1         31.8620   11.9370    5.9650 S.3       1 VGC        -0.0569
     10 C3         31.4210   10.6180    5.0130 C.2       1 VGC         0.0518
     11 C6         32.3840    9.8970    4.1100 C.2       1 VGC         0.0652
     12 O1         31.9800    8.9130    3.4810 O.co2     1 VGC        -0.5635
     13 O2         33.5430   10.2810    4.0740 O.co2     1 VGC        -0.5635
     14 C4         30.1570   10.2710    5.2030 C.2       1 VGC        -0.0339
     15 C1         29.4990   11.0910    6.1070 C.2       1 VGC         0.0570
     16 N1         28.3060   11.2770    6.6700 N.pl3     1 VGC        -0.2823
     17 C20        27.0970   10.5000    6.4880 C.3       1 VGC         0.0347
     18 C7         28.2320   12.2780    7.5110 C.2       1 VGC         0.0583
     19 C8         27.1190   12.6500    8.2400 C.ar      1 VGC        -0.0099
     20 C9         25.8700   12.8490    7.6540 C.ar      1 VGC        -0.0596
     21 C10        24.7450   13.2140    8.4470 C.ar      1 VGC        -0.0670
     22 C11        24.8410   13.4580    9.8560 C.ar      1 VGC        -0.0671
     23 C12        26.1240   13.2620   10.4180 C.ar      1 VGC        -0.0670
     24 C13        27.2360   12.8390    9.6240 C.ar      1 VGC        -0.0596
     25 H1         31.7707   14.3934    7.0383 H         1 VGC         0.0284
     26 H2         30.2757   15.2362    6.5078 H         1 VGC         0.0284
     27 H3         30.3810   16.6359    8.5799 H         1 VGC         0.0267
     28 H4         31.8134   16.8539    7.5182 H         1 VGC         0.0267
     29 H5         32.4460   16.5907    9.9739 H         1 VGC         0.0265
     30 H6         33.1552   15.3098    8.9332 H         1 VGC         0.0265
     31 H7         30.7540   15.0960   10.8062 H         1 VGC         0.0267
     32 H8         32.3276   14.2373   10.9212 H         1 VGC         0.0267
     33 H9         30.4907   12.7837   10.0537 H         1 VGC         0.0284
     34 H10        31.8365   12.9803    8.8804 H         1 VGC         0.0284
     35 H11        29.1852   14.5670    8.8009 H         1 VGC         0.0403
     36 H12        29.6834    9.4286    4.7010 H         1 VGC         0.0477
     37 H13        27.2847    9.6941    5.7633 H         1 VGC         0.0555
     38 H14        26.2952   11.1522    6.1115 H         1 VGC         0.0555
     39 H15        26.7931   10.0637    7.4509 H         1 VGC         0.0555
     40 H16        25.7539   12.7246    6.5834 H         1 VGC         0.0577
     41 H17        23.7783   13.3111    7.9662 H         1 VGC         0.0603
     42 H18        23.9896   13.7709   10.4496 H         1 VGC         0.0573
     43 H19        26.2684   13.4369   11.4780 H         1 VGC         0.0603
     44 H20        28.1915   12.6604   10.1037 H         1 VGC         0.0577
@<TRIPOS>BOND
     1    1    2 1  
     2    1    6 1  
     3    2    3 1  
     4    3    4 1  
     5    4    5 1  
     6    5    6 1  
     7    6    7 1  
     8    7    8 1  
     9    7   18 2  
    10    8    9 1  
    11    8   15 2  
    12    9   10 1  
    13   10   11 1  
    14   10   14 2  
    15   11   12 ar 
    16   11   13 ar 
    17   14   15 1  
    18   15   16 1  
    19   16   17 1  
    20   16   18 1  
    21   18   19 1  
    22   19   20 ar 
    23   19   24 ar 
    24   20   21 ar 
    25   21   22 ar 
    26   22   23 ar 
    27   23   24 ar 
    28    1   25 1  
    29    1   26 1  
    30    2   27 1  
    31    2   28 1  
    32    3   29 1  
    33    3   30 1  
    34    4   31 1  
    35    4   32 1  
    36    5   33 1  
    37    5   34 1  
    38    6   35 1  
    39   14   36 1  
    40   17   37 1  
    41   17   38 1  
    42   17   39 1  
    43   20   40 1  
    44   21   41 1  
    45   22   42 1  
    46   23   43 1  
    47   24   44 1  
@<TRIPOS>SUBSTRUCTURE
     1 VGC         1

