### 
### Created by X-TOOL on Mon Sep 10 21:13:01 2018
### 

@<TRIPOS>MOLECULE
2wd1_ligand
   34    36     1     0     0
SMALL
GAST_HUCK


@<TRIPOS>ATOM
      1 O11       109.2120   22.4340  138.4440 O.2       1 ZZY        -0.3877
      2 C10       108.0960   22.0440  138.5350 C.2       1 ZZY         0.1995
      3 N12       107.7190   20.8440  138.0740 N.am      1 ZZY        -0.3009
      4 C5        106.9970   22.7670  139.1420 C.ar      1 ZZY         0.0595
      5 C3        105.7740   22.1660  139.1630 C.ar      1 ZZY        -0.0022
      6 C1        104.6940   22.8280  139.7140 C.ar      1 ZZY         0.1304
      7 C6        107.1250   24.0230  139.6800 C.ar      1 ZZY         0.0057
      8 N4        106.0450   24.6580  140.2190 N.ar      1 ZZY        -0.3213
      9 C2        104.8560   24.0690  140.2350 C.ar      1 ZZY         0.0367
     10 C8        103.6920   24.4950  140.7250 C.2       1 ZZY        -0.0497
     11 C7        102.8660   23.4660  140.4380 C.2       1 ZZY         0.0668
     12 N9        103.4600   22.4490  139.8410 N.am      1 ZZY        -0.1104
     13 S13       102.7300   21.0450  139.3980 S.o2      1 ZZY         0.1256
     14 O16       101.5550   21.1610  138.9570 O.2       1 ZZY        -0.1345
     15 O15       103.4040   20.4500  138.4420 O.2       1 ZZY        -0.1345
     16 C14       102.6220   19.8910  140.7150 C.ar      1 ZZY         0.1664
     17 C21       101.6420   19.8220  141.7710 C.ar      1 ZZY         0.2274
     18 N22       100.5270   20.7380  142.0060 N.2       1 ZZY         0.3168
     19 O23       100.6730   21.9680  141.8580 O.2       1 ZZY         0.1782
     20 O24        99.4380   20.4100  142.3330 O.2       1 ZZY         0.1782
     21 C20       103.6150   18.9320  140.7270 C.ar      1 ZZY        -0.0254
     22 C18       103.6750   17.9770  141.7120 C.ar      1 ZZY        -0.0546
     23 C17       102.7430   17.9460  142.7130 C.ar      1 ZZY        -0.0536
     24 C19       101.6920   18.7860  142.6980 C.ar      1 ZZY        -0.0168
     25 H1        106.7684   20.5482  138.1683 H         1 ZZY         0.1806
     26 H2        108.3882   20.2440  137.6356 H         1 ZZY         0.1806
     27 H3        105.6492   21.1721  138.7488 H         1 ZZY         0.0729
     28 H4        108.0915   24.5139  139.6765 H         1 ZZY         0.0766
     29 H5        103.4650   25.4336  141.2284 H         1 ZZY         0.0249
     30 H6        101.8037   23.4742  140.6778 H         1 ZZY         0.1008
     31 H7        104.3630   18.9328  139.9425 H         1 ZZY         0.0652
     32 H8        104.4695   17.2397  141.6962 H         1 ZZY         0.0661
     33 H9        102.8523   17.2377  143.5263 H         1 ZZY         0.0632
     34 H10       100.8839   18.6554  143.4086 H         1 ZZY         0.0693
@<TRIPOS>BOND
     1    1    2 2  
     2    2    3 am 
     3    2    4 1  
     4    4    5 ar 
     5    4    7 ar 
     6    5    6 ar 
     7    6    9 ar 
     8    6   12 1  
     9    7    8 ar 
    10    8    9 ar 
    11    9   10 1  
    12   10   11 2  
    13   11   12 1  
    14   12   13 am 
    15   13   14 2  
    16   13   15 2  
    17   13   16 1  
    18   16   17 ar 
    19   16   21 ar 
    20   17   18 1  
    21   17   24 ar 
    22   18   19 2  
    23   18   20 2  
    24   21   22 ar 
    25   22   23 ar 
    26   23   24 ar 
    27    3   25 1  
    28    3   26 1  
    29    5   27 1  
    30    7   28 1  
    31   10   29 1  
    32   11   30 1  
    33   21   31 1  
    34   22   32 1  
    35   23   33 1  
    36   24   34 1  
@<TRIPOS>SUBSTRUCTURE
     1 ZZY         1

