### 
### Created by X-TOOL on Mon Sep 10 21:13:02 2018
### 

@<TRIPOS>MOLECULE
2wd3_ligand
   38    40     1     0     0
SMALL
GAST_HUCK


@<TRIPOS>ATOM
      1 S2        -15.3570   11.5170  -17.0620 S.o2      1 MS4         0.1795
      2 O1        -14.0280   11.6180  -16.5390 O.2       1 MS4        -0.1227
      3 O2        -15.6130   11.0990  -18.4290 O.2       1 MS4        -0.1227
      4 O3        -16.3900   12.3520  -16.6420 O.3       1 MS4        -0.1507
      5 N1        -15.8020   10.1600  -16.3340 N.am      1 MS4        -0.2379
      6 N3        -16.5230   17.3560   -5.5350 N.2       1 MS4        -0.2869
      7 N4        -17.3280   15.7710   -6.7710 N.2       1 MS4        -0.1879
      8 N5        -16.1870   16.0450   -7.1710 N.pl3     1 MS4        -0.1652
      9 N6        -18.3060   17.5710  -14.2610 N.1       1 MS4        -0.3375
     10 C1        -17.5900   16.5750   -5.7360 C.2       1 MS4         0.0620
     11 C2        -15.6310   17.0140   -6.4520 C.2       1 MS4         0.1302
     12 C3        -16.1220   15.8410   -9.6530 C.ar      1 MS4        -0.0027
     13 C4        -16.7900   17.0660   -9.7480 C.ar      1 MS4        -0.0475
     14 C5        -17.3330   17.4740  -10.9590 C.ar      1 MS4        -0.0350
     15 C6        -17.2220   16.6660  -12.0880 C.ar      1 MS4         0.0915
     16 C7        -16.5290   15.4360  -12.0080 C.ar      1 MS4         0.0026
     17 C8        -15.9880   15.0220  -10.7850 C.ar      1 MS4        -0.0418
     18 C9        -17.8220   17.1550  -13.3060 C.1       1 MS4         0.0896
     19 CL        -14.9300   15.1510  -16.8460 Cl        1 MS4        -0.0777
     20 C12       -15.8080   15.1650  -14.3070 C.ar      1 MS4        -0.0451
     21 C13       -15.7470   14.4300  -15.4860 C.ar      1 MS4         0.0740
     22 C14       -16.3300   13.1520  -15.5240 C.ar      1 MS4         0.1427
     23 C15       -16.9750   12.6760  -14.3950 C.ar      1 MS4        -0.0262
     24 C16       -17.0240   13.4030  -13.2110 C.ar      1 MS4        -0.0589
     25 CAO       -15.5060   15.3970   -8.3090 C.3       1 MS4         0.1130
     26 CAV       -16.4430   14.6610  -13.1660 C.ar      1 MS4        -0.0212
     27 H1        -15.2496    9.3328  -16.4373 H         1 MS4         0.1658
     28 H2        -16.6320   10.1406  -15.7766 H         1 MS4         0.1658
     29 H3        -18.5121   16.5914   -5.1569 H         1 MS4         0.0864
     30 H4        -14.6391   17.4419   -6.5894 H         1 MS4         0.1363
     31 H5        -16.8842   17.6991   -8.8732 H         1 MS4         0.0572
     32 H6        -17.8461   18.4265  -11.0261 H         1 MS4         0.0698
     33 H7        -15.4681   14.0735  -10.7126 H         1 MS4         0.0571
     34 H8        -15.3543   16.1488  -14.2709 H         1 MS4         0.0620
     35 H9        -17.4570   11.7059  -14.4356 H         1 MS4         0.0553
     36 H10       -17.5104   12.9914  -12.3340 H         1 MS4         0.0616
     37 H11       -15.6044   14.3057   -8.2121 H         1 MS4         0.0827
     38 H12       -14.4410   15.6720   -8.2940 H         1 MS4         0.0827
@<TRIPOS>BOND
     1    1    2 2  
     2    1    3 2  
     3    4    1 1  
     4    1    5 am 
     5   22    4 1  
     6    6   10 1  
     7   11    6 2  
     8    8    7 1  
     9    7   10 2  
    10    8   11 1  
    11   25    8 1  
    12   18    9 3  
    13   12   13 ar 
    14   17   12 ar 
    15   12   25 1  
    16   14   13 ar 
    17   15   14 ar 
    18   16   15 ar 
    19   15   18 1  
    20   16   17 ar 
    21   26   16 1  
    22   21   19 1  
    23   21   20 ar 
    24   20   26 ar 
    25   21   22 ar 
    26   22   23 ar 
    27   23   24 ar 
    28   24   26 ar 
    29    5   27 1  
    30    5   28 1  
    31   10   29 1  
    32   11   30 1  
    33   13   31 1  
    34   14   32 1  
    35   17   33 1  
    36   20   34 1  
    37   23   35 1  
    38   24   36 1  
    39   25   37 1  
    40   25   38 1  
@<TRIPOS>SUBSTRUCTURE
     1 MS4         1

