### 
### Created by X-TOOL on Mon Sep 10 21:12:59 2018
### 

@<TRIPOS>MOLECULE
2wd7_ligand
   17    18     1     0     0
SMALL
GAST_HUCK


@<TRIPOS>ATOM
      1 CLA         6.1950  -13.4710   13.6130 Cl        1 VGD        -0.0819
      2 CAH         6.9170  -11.9450   14.2070 C.ar      1 VGD         0.0230
      3 CAC         6.2080  -11.0070   14.9780 C.ar      1 VGD        -0.0670
      4 CAD         6.8570   -9.8340   15.3870 C.ar      1 VGD        -0.0687
      5 CAK         8.1940   -9.6190   15.0220 C.ar      1 VGD         0.0116
      6 CAJ         8.8890  -10.5810   14.2520 C.ar      1 VGD         0.0756
      7 CAE         8.2440  -11.7350   13.8490 C.ar      1 VGD        -0.0310
      8 NAG         9.0670   -8.6120   15.2830 N.2       1 VGD        -0.3135
      9 CAI        10.2180   -8.9940   14.6750 C.2       1 VGD         0.2108
     10 NAF        10.1680  -10.1810   14.0440 N.pl3     1 VGD        -0.2303
     11 NAA        11.3540   -8.2510   14.6940 N.pl3     1 VGD        -0.2886
     12 H           5.1750  -11.1883   15.2520 H         1 VGD         0.0515
     13 H           6.3289   -9.0975   15.9817 H         1 VGD         0.0517
     14 H           8.7708  -12.4738   13.2559 H         1 VGD         0.0539
     15 H          10.9167  -10.6665   13.5296 H         1 VGD         0.2311
     16 H          11.3686   -7.3450   15.1837 H         1 VGD         0.1861
     17 H          12.2013   -8.5933   14.2188 H         1 VGD         0.1861
@<TRIPOS>BOND
     1    1    2 1  
     2    2    3 ar 
     3    2    7 ar 
     4    3    4 ar 
     5    4    5 ar 
     6    5    6 ar 
     7    5    8 1  
     8    6    7 ar 
     9    6   10 1  
    10    8    9 2  
    11    9   10 1  
    12    9   11 1  
    13    3   12 1  
    14    4   13 1  
    15    7   14 1  
    16   10   15 1  
    17   11   16 1  
    18   11   17 1  
@<TRIPOS>SUBSTRUCTURE
     1 VGD         1

