### 
### Created by X-TOOL on Mon Sep 10 21:12:59 2018
### 

@<TRIPOS>MOLECULE
2weh_ligand
   17    17     1     0     0
SMALL
GAST_HUCK


@<TRIPOS>ATOM
      1 C4         16.4040    6.1350   14.2890 C.ar      1 FB1        -0.0612
      2 CL1        14.2720    5.5730   17.4890 Cl        1 FB1        -0.0686
      3 C3         16.8440    4.8510   14.0150 C.ar      1 FB1        -0.0598
      4 C2         16.4800    3.7760   14.8180 C.ar      1 FB1        -0.0346
      5 C1         15.6590    3.9230   15.9510 C.ar      1 FB1         0.1218
      6 C6         15.2350    5.2270   16.1830 C.ar      1 FB1         0.0669
      7 C5         15.5750    6.3030   15.3620 C.ar      1 FB1        -0.0459
      8 S          15.1850    2.6030   16.8580 S.o2      1 FB1         0.0663
      9 N          15.6700    1.2230   16.1740 N.am      1 FB1        -0.2609
     10 O1         15.6260    2.7440   18.1820 O.2       1 FB1        -0.1504
     11 O2         13.7540    2.5670   16.8350 O.2       1 FB1        -0.1504
     12 H1         16.7061    6.9757   13.6750 H         1 FB1         0.0618
     13 H2         17.4849    4.6806   13.1575 H         1 FB1         0.0620
     14 H3         16.8425    2.7871   14.5614 H         1 FB1         0.0637
     15 H4         15.1753    7.2870   15.5788 H         1 FB1         0.0624
     16 H5         15.4563    0.3478   16.6079 H         1 FB1         0.1635
     17 H6         16.1840    1.2436   15.3165 H         1 FB1         0.1635
@<TRIPOS>BOND
     1    3    1 ar 
     2    1    7 ar 
     3    6    2 1  
     4    4    3 ar 
     5    5    4 ar 
     6    5    6 ar 
     7    5    8 1  
     8    6    7 ar 
     9    8    9 am 
    10    8   10 2  
    11    8   11 2  
    12    1   12 1  
    13    3   13 1  
    14    4   14 1  
    15    7   15 1  
    16    9   16 1  
    17    9   17 1  
@<TRIPOS>SUBSTRUCTURE
     1 FB1         1

