### 
### Created by X-TOOL on Mon Sep 10 21:13:00 2018
### 

@<TRIPOS>MOLECULE
2wei_ligand
   43    45     1     0     0
SMALL
GAST_HUCK


@<TRIPOS>ATOM
      1 C20        20.1730  -16.2770  -10.7080 C.3       1 VGG        -0.0319
      2 C19        19.9250  -17.2040   -9.5440 C.3       1 VGG         0.0794
      3 C21        18.5170  -16.9590   -9.0050 C.3       1 VGG        -0.0319
      4 C22        20.9850  -16.9620   -8.4570 C.3       1 VGG        -0.0319
      5 N7         19.9440  -18.6620   -9.9230 N.pl3     1 VGG        -0.1891
      6 N8         20.6290  -19.5190   -9.3130 N.2       1 VGG        -0.2105
      7 C3         19.2200  -19.2070  -10.9090 C.ar      1 VGG         0.1585
      8 N2         18.3490  -18.7150  -11.8430 N.ar      1 VGG        -0.2691
      9 C1         17.7950  -19.5470  -12.7050 C.ar      1 VGG         0.0558
     10 N6         18.0240  -20.8500  -12.7190 N.ar      1 VGG        -0.2661
     11 C5         18.8890  -21.3940  -11.8250 C.ar      1 VGG         0.1272
     12 N10        19.0900  -22.7070  -11.8580 N.pl3     1 VGG        -0.3122
     13 C4         19.5080  -20.5710  -10.9160 C.ar      1 VGG         0.0861
     14 C9         20.4170  -20.7340   -9.8550 C.2       1 VGG         0.0540
     15 C11        21.0920  -21.9890   -9.2910 C.3       1 VGG         0.0219
     16 C12        22.1760  -22.6030  -10.1230 C.ar      1 VGG        -0.0385
     17 C13        22.9900  -23.5580   -9.5050 C.ar      1 VGG        -0.0576
     18 C17        22.3930  -22.2890  -11.4710 C.ar      1 VGG        -0.0654
     19 C16        23.4250  -22.9060  -12.1730 C.ar      1 VGG        -0.0749
     20 C15        24.2310  -23.8550  -11.5270 C.ar      1 VGG        -0.0673
     21 C14        23.9970  -24.1760  -10.1930 C.ar      1 VGG        -0.0526
     22 C18        24.8940  -25.2290   -9.4710 C.3       1 VGG        -0.0327
     23 H          21.1513  -16.4904  -11.1387 H         1 VGG         0.0261
     24 H          19.4013  -16.4290  -11.4627 H         1 VGG         0.0261
     25 H          20.1449  -15.2442  -10.3607 H         1 VGG         0.0261
     26 H          17.7873  -17.1842   -9.7828 H         1 VGG         0.0261
     27 H          18.3420  -17.6032   -8.1433 H         1 VGG         0.0261
     28 H          18.4204  -15.9154   -8.7056 H         1 VGG         0.0261
     29 H          20.7557  -17.5744   -7.5849 H         1 VGG         0.0261
     30 H          21.9679  -17.2314   -8.8434 H         1 VGG         0.0261
     31 H          20.9803  -15.9092   -8.1747 H         1 VGG         0.0261
     32 H          17.1100  -19.1374  -13.4474 H         1 VGG         0.1029
     33 H          19.7260  -23.1425  -11.1900 H         1 VGG         0.1845
     34 H          18.6083  -23.2794  -12.5513 H         1 VGG         0.1845
     35 H          20.3083  -22.7429   -9.2159 H         1 VGG         0.0582
     36 H          21.5671  -21.6810   -8.3596 H         1 VGG         0.0582
     37 H          22.8189  -23.8133   -8.4592 H         1 VGG         0.0497
     38 H          21.7535  -21.5612  -11.9705 H         1 VGG         0.0503
     39 H          23.6054  -22.6532  -13.2178 H         1 VGG         0.0582
     40 H          25.0412  -24.3415  -12.0701 H         1 VGG         0.0501
     41 H          24.8177  -26.1853   -9.9884 H         1 VGG         0.0390
     42 H          25.9300  -24.8903   -9.4817 H         1 VGG         0.0390
     43 H          24.5587  -25.3444   -8.4403 H         1 VGG         0.0390
@<TRIPOS>BOND
     1    1    2 1  
     2    2    3 1  
     3    2    4 1  
     4    2    5 1  
     5    5    6 1  
     6    5    7 1  
     7    6   14 2  
     8    7    8 ar 
     9    7   13 ar 
    10    8    9 ar 
    11    9   10 ar 
    12   10   11 ar 
    13   11   12 1  
    14   11   13 ar 
    15   13   14 1  
    16   14   15 1  
    17   15   16 1  
    18   16   17 ar 
    19   16   18 ar 
    20   17   21 ar 
    21   18   19 ar 
    22   19   20 ar 
    23   20   21 ar 
    24   21   22 1  
    25    1   23 1  
    26    1   24 1  
    27    1   25 1  
    28    3   26 1  
    29    3   27 1  
    30    3   28 1  
    31    4   29 1  
    32    4   30 1  
    33    4   31 1  
    34    9   32 1  
    35   12   33 1  
    36   12   34 1  
    37   15   35 1  
    38   15   36 1  
    39   17   37 1  
    40   18   38 1  
    41   19   39 1  
    42   20   40 1  
    43   22   41 1  
    44   22   42 1  
    45   22   43 1  
@<TRIPOS>SUBSTRUCTURE
     1 VGG         1

