### 
### Created by X-TOOL on Mon Sep 10 21:13:00 2018
### 

@<TRIPOS>MOLECULE
2wej_ligand
   17    17     1     0     0
SMALL
GAST_HUCK


@<TRIPOS>ATOM
      1 C01        16.9660    6.1980   14.5640 C.ar      1 FB2        -0.0616
      2 C02        15.6260    6.1370   14.9650 C.ar      1 FB2        -0.0599
      3 C03        15.1200    5.0450   15.7050 C.ar      1 FB2        -0.0351
      4 C04        15.9460    3.9510   16.0720 C.ar      1 FB2         0.1079
      5 C05        17.2910    4.0420   15.6500 C.ar      1 FB2        -0.0351
      6 C06        17.8090    5.1360   14.9090 C.ar      1 FB2        -0.0599
      7 S07        15.3720    2.6770   16.9350 S.o2      1 FB2         0.0659
      8 O09        13.9220    2.7460   16.8880 O.2       1 FB2        -0.1505
      9 O08        15.9570    2.8350   18.2300 O.2       1 FB2        -0.1505
     10 NP0        15.8610    1.2980   16.3110 N.am      1 FB2        -0.2609
     11 H1         17.3404    7.0455   14.0012 H         1 FB2         0.0618
     12 H2         14.9588    6.9494   14.7006 H         1 FB2         0.0618
     13 H3         14.0767    5.0428   15.9992 H         1 FB2         0.0637
     14 H4         17.9643    3.2320   15.9061 H         1 FB2         0.0637
     15 H5         18.8515    5.1487   14.6121 H         1 FB2         0.0618
     16 H6         15.5880    0.4335   16.7331 H         1 FB2         0.1635
     17 H7         16.4414    1.2956   15.4967 H         1 FB2         0.1635
@<TRIPOS>BOND
     1    1    2 ar 
     2    1    6 ar 
     3    2    3 ar 
     4    3    4 ar 
     5    4    5 ar 
     6    4    7 1  
     7    5    6 ar 
     8    7    8 2  
     9    7    9 2  
    10    7   10 am 
    11    1   11 1  
    12    2   12 1  
    13    3   13 1  
    14    5   14 1  
    15    6   15 1  
    16   10   16 1  
    17   10   17 1  
@<TRIPOS>SUBSTRUCTURE
     1 FB2         1

