### 
### Created by X-TOOL on Mon Sep 10 21:12:59 2018
### 

@<TRIPOS>MOLECULE
2weo_ligand
   17    17     1     0     0
SMALL
GAST_HUCK


@<TRIPOS>ATOM
      1 C1          4.0980   -6.1420   14.4400 C.ar      1 FBW        -0.0281
      2 C2          5.4490   -6.1390   14.7740 C.ar      1 FBW         0.1343
      3 C3          6.0130   -5.0620   15.4780 C.ar      1 FBW        -0.0016
      4 C4          5.2440   -3.9490   15.8650 C.ar      1 FBW         0.1061
      5 C5          3.8750   -3.9820   15.5050 C.ar      1 FBW        -0.0392
      6 C6          3.3170   -5.0570   14.7970 C.ar      1 FBW        -0.0618
      7 S           5.9150   -2.6880   16.7200 S.o2      1 FBW         0.0650
      8 N2          5.3850   -1.3090   16.0960 N.am      1 FBW        -0.2610
      9 O1          5.3890   -2.8420   18.0400 O.2       1 FBW        -0.1505
     10 O2          7.3490   -2.8070   16.5850 O.2       1 FBW        -0.1505
     11 F           6.2380   -7.1950   14.4320 F         1 FBW        -0.1833
     12 H1          3.6643   -6.9813   13.9084 H         1 FBW         0.0604
     13 H2          7.0671   -5.0891   15.7294 H         1 FBW         0.0623
     14 H3          3.2382   -3.1507   15.7852 H         1 FBW         0.0602
     15 H4          2.2671   -5.0375   14.5279 H         1 FBW         0.0608
     16 H5          5.6841   -0.4371   16.4838 H         1 FBW         0.1635
     17 H6          4.7554   -1.3210   15.3191 H         1 FBW         0.1635
@<TRIPOS>BOND
     1    1    2 ar 
     2    1    6 ar 
     3    2    3 ar 
     4    2   11 1  
     5    3    4 ar 
     6    4    5 ar 
     7    4    7 1  
     8    5    6 ar 
     9    7    8 am 
    10    7    9 2  
    11    7   10 2  
    12    1   12 1  
    13    3   13 1  
    14    5   14 1  
    15    6   15 1  
    16    8   16 1  
    17    8   17 1  
@<TRIPOS>SUBSTRUCTURE
     1 FBW         1

