### 
### Created by X-TOOL on Mon Sep 10 21:13:00 2018
### 

@<TRIPOS>MOLECULE
2weq_ligand
   90    91     1     0     0
SMALL
GAST_HUCK


@<TRIPOS>ATOM
      1 C1        -25.8340   34.5000   -5.5650 C.ar      1 GDM        -0.0035
      2 C2        -26.0650   34.2580   -4.0860 C.ar      1 GDM         0.0874
      3 C3        -25.6400   32.9550   -3.4050 C.ar      1 GDM         0.0436
      4 C4        -24.9030   31.8520   -4.1530 C.ar      1 GDM        -0.0384
      5 C5        -24.6800   32.0520   -5.6610 C.ar      1 GDM         0.0879
      6 C6        -25.1390   33.3510   -6.3450 C.ar      1 GDM         0.0989
      7 C7        -26.2860   35.8370   -6.1960 C.3       1 GDM        -0.0257
      8 C8        -25.1800   36.9050   -6.2770 C.3       1 GDM        -0.0354
      9 C9        -24.0350   36.4720   -7.2140 C.3       1 GDM        -0.0203
     10 C10       -22.6690   37.2000   -7.0930 C.3       1 GDM         0.0847
     11 C11       -21.6520   36.6550   -8.1480 C.3       1 GDM         0.0839
     12 C12       -21.1010   35.2510   -7.8350 C.3       1 GDM        -0.0150
     13 C13       -20.5560   35.2240   -6.4030 C.3       1 GDM        -0.0427
     14 C14       -20.9350   34.0690   -5.4780 C.3       1 GDM        -0.0105
     15 C15       -19.8930   34.0850   -4.3550 C.3       1 GDM         0.1166
     16 C16       -20.3740   34.1350   -2.8890 C.3       1 GDM         0.0889
     17 C17       -21.3060   35.2950   -2.6690 C.3       1 GDM        -0.0238
     18 C18       -22.6980   35.5370   -2.1790 C.3       1 GDM        -0.0502
     19 C19       -23.8280   34.6630   -1.7640 C.3       1 GDM        -0.0462
     20 C20       -25.0340   35.2510   -1.0240 C.3       1 GDM         0.0024
     21 C21       -25.8040   33.9030   -0.9230 C.3       1 GDM         0.1326
     22 N22       -25.8990   32.9510   -1.9920 N.pl3     1 GDM        -0.3105
     23 O23       -26.6840   35.2420   -3.3220 O.3       1 GDM        -0.3528
     24 O24       -24.0490   31.0360   -6.3880 O.3       1 GDM        -0.3488
     25 O25       -24.9200   33.5050   -7.6950 O.3       1 GDM        -0.3401
     26 C26       -26.0860   33.6000   -8.5040 C.3       1 GDM         0.0521
     27 C27       -24.6330   37.2290   -4.8760 C.3       1 GDM        -0.0610
     28 O28       -22.8710   38.5380   -7.5100 O.3       1 GDM        -0.3772
     29 C29       -21.9810   39.5910   -7.1520 C.3       1 GDM         0.0369
     30 O30       -22.3070   36.5100   -9.3870 O.3       1 GDM        -0.3890
     31 C31       -19.9320   34.9970   -8.8380 C.3       1 GDM        -0.0600
     32 C32       -21.2230   32.7060   -6.1530 C.3       1 GDM        -0.0597
     33 O33       -19.0150   33.0210   -4.4150 O.3       1 GDM        -0.2579
     34 C34       -17.6990   33.1070   -4.8150 C.2       1 GDM         0.3172
     35 O35       -17.3920   33.9760   -5.5700 O.2       1 GDM        -0.3777
     36 N36       -16.9780   31.8530   -4.7460 N.am      1 GDM        -0.2763
     37 O37       -19.2120   34.4760   -2.1630 O.3       1 GDM        -0.3769
     38 C38       -19.2400   34.6780   -0.7860 C.3       1 GDM         0.0369
     39 C39       -24.6260   35.9390    0.2960 C.3       1 GDM        -0.0582
     40 O40       -25.5060   33.2390    0.0270 O.3       1 GDM        -0.3711
     41 H1        -24.5502   30.9627   -3.6433 H         1 GDM         0.0332
     42 H2        -27.1117   36.2413   -5.5921 H         1 GDM         0.0377
     43 H3        -26.6434   35.6331   -7.2161 H         1 GDM         0.0377
     44 H4        -25.6264   37.8216   -6.6900 H         1 GDM         0.0316
     45 H5        -24.3883   36.6123   -8.2462 H         1 GDM         0.0295
     46 H6        -23.8514   35.4029   -7.0313 H         1 GDM         0.0295
     47 H7        -22.2738   37.1305   -6.0688 H         1 GDM         0.0622
     48 H8        -20.8175   37.3667   -8.2321 H         1 GDM         0.0622
     49 H9        -21.8869   34.4907   -7.9545 H         1 GDM         0.0324
     50 H10       -20.8934   36.1499   -5.9142 H         1 GDM         0.0272
     51 H11       -19.4586   35.2277   -6.4777 H         1 GDM         0.0272
     52 H12       -21.8927   34.3461   -5.0132 H         1 GDM         0.0327
     53 H13       -19.3121   35.0041   -4.5217 H         1 GDM         0.0676
     54 H14       -20.8229   33.1826   -2.5704 H         1 GDM         0.0625
     55 H15       -21.3375   35.7510   -3.6695 H         1 GDM         0.0291
     56 H16       -20.7161   35.9324   -1.9939 H         1 GDM         0.0291
     57 H17       -23.1395   36.1412   -2.9852 H         1 GDM         0.0266
     58 H18       -22.5389   36.1685   -1.2925 H         1 GDM         0.0266
     59 H19       -23.4032   33.8882   -1.1088 H         1 GDM         0.0269
     60 H20       -24.2177   34.1952   -2.6801 H         1 GDM         0.0269
     61 H21       -25.5862   35.9815   -1.6334 H         1 GDM         0.0343
     62 H22       -26.8404   34.2328   -0.7585 H         1 GDM         0.0852
     63 H23       -26.2378   32.0352   -1.6643 H         1 GDM         0.1712
     64 H24       -26.8893   35.9875   -3.8739 H         1 GDM         0.2372
     65 H25       -23.8382   30.3156   -5.8057 H         1 GDM         0.2403
     66 H26       -25.7926   33.7199   -9.5574 H         1 GDM         0.0565
     67 H27       -26.6817   34.4691   -8.1881 H         1 GDM         0.0565
     68 H28       -26.6854   32.6845   -8.3923 H         1 GDM         0.0565
     69 H29       -25.4616   37.5358   -4.2208 H         1 GDM         0.0234
     70 H30       -23.9008   38.0467   -4.9483 H         1 GDM         0.0234
     71 H31       -24.1456   36.3363   -4.4571 H         1 GDM         0.0234
     72 H32       -22.3378   40.5364   -7.5867 H         1 GDM         0.0524
     73 H33       -20.9749   39.3674   -7.5364 H         1 GDM         0.0524
     74 H34       -21.9430   39.6825   -6.0565 H         1 GDM         0.0524
     75 H35       -22.6767   37.3452   -9.6481 H         1 GDM         0.2099
     76 H36       -20.3209   35.0159   -9.8668 H         1 GDM         0.0233
     77 H37       -19.4812   34.0145   -8.6345 H         1 GDM         0.0233
     78 H38       -19.1702   35.7816   -8.7196 H         1 GDM         0.0233
     79 H39       -21.9848   32.8381   -6.9354 H         1 GDM         0.0233
     80 H40       -21.5910   31.9941   -5.3995 H         1 GDM         0.0233
     81 H41       -20.2980   32.3173   -6.6038 H         1 GDM         0.0233
     82 H42       -16.0159   31.8139   -5.0159 H         1 GDM         0.1831
     83 H43       -17.4422   31.0261   -4.4285 H         1 GDM         0.1831
     84 H44       -18.2301   34.9326   -0.4322 H         1 GDM         0.0524
     85 H45       -19.5823   33.7592   -0.2875 H         1 GDM         0.0524
     86 H46       -19.9296   35.5019   -0.5502 H         1 GDM         0.0524
     87 H47       -24.0931   36.8749    0.0722 H         1 GDM         0.0234
     88 H48       -23.9675   35.2703    0.8697 H         1 GDM         0.0234
     89 H49       -25.5266   36.1622    0.8868 H         1 GDM         0.0234
     90 H50       -25.4214   33.7992    0.7896 H         1 GDM         0.2121
@<TRIPOS>BOND
     1    1    2 ar 
     2    1    6 ar 
     3    1    7 1  
     4    2    3 ar 
     5    2   23 1  
     6    3    4 ar 
     7    3   22 1  
     8    4    5 ar 
     9    5    6 ar 
    10    5   24 1  
    11    6   25 1  
    12    7    8 1  
    13    8    9 1  
    14    8   27 1  
    15    9   10 1  
    16   10   11 1  
    17   10   28 1  
    18   11   12 1  
    19   11   30 1  
    20   12   13 1  
    21   12   31 1  
    22   13   14 1  
    23   14   15 1  
    24   14   32 1  
    25   15   16 1  
    26   15   33 1  
    27   16   17 1  
    28   16   37 1  
    29   17   18 1  
    30   18   19 1  
    31   19   20 1  
    32   20   21 1  
    33   20   39 1  
    34   21   22 1  
    35   21   40 1  
    36   25   26 1  
    37   28   29 1  
    38   33   34 1  
    39   34   35 2  
    40   34   36 am 
    41   37   38 1  
    42    4   41 1  
    43    7   42 1  
    44    7   43 1  
    45    8   44 1  
    46    9   45 1  
    47    9   46 1  
    48   10   47 1  
    49   11   48 1  
    50   12   49 1  
    51   13   50 1  
    52   13   51 1  
    53   14   52 1  
    54   15   53 1  
    55   16   54 1  
    56   17   55 1  
    57   17   56 1  
    58   18   57 1  
    59   18   58 1  
    60   19   59 1  
    61   19   60 1  
    62   20   61 1  
    63   21   62 1  
    64   22   63 1  
    65   23   64 1  
    66   24   65 1  
    67   26   66 1  
    68   26   67 1  
    69   26   68 1  
    70   27   69 1  
    71   27   70 1  
    72   27   71 1  
    73   29   72 1  
    74   29   73 1  
    75   29   74 1  
    76   30   75 1  
    77   31   76 1  
    78   31   77 1  
    79   31   78 1  
    80   32   79 1  
    81   32   80 1  
    82   32   81 1  
    83   36   82 1  
    84   36   83 1  
    85   38   84 1  
    86   38   85 1  
    87   38   86 1  
    88   39   87 1  
    89   39   88 1  
    90   39   89 1  
    91   40   90 1  
@<TRIPOS>SUBSTRUCTURE
     1 GDM         1

