### 
### Created by X-TOOL on Mon Sep 10 21:13:02 2018
### 

@<TRIPOS>MOLECULE
2wer_ligand
   42    44     1     0     0
SMALL
GAST_HUCK


@<TRIPOS>ATOM
      1 C1          2.4670   55.6290   -5.8180 C.2       1 RDC         0.2451
      2 C2          3.3400   55.7540   -4.6350 C.ar      1 RDC         0.0834
      3 C3          4.4930   56.7030   -4.7240 C.ar      1 RDC         0.0971
      4 C4          5.3540   56.7790   -3.6090 C.ar      1 RDC        -0.0045
      5 C5          5.2010   55.9860   -2.4510 C.ar      1 RDC         0.0931
      6 C6          4.0870   55.0300   -2.3550 C.ar      1 RDC         0.0654
      7 C7          3.1550   54.8830   -3.4730 C.ar      1 RDC        -0.0069
      8 C8          1.9820   53.9180   -3.3330 C.3       1 RDC         0.0497
      9 C9          2.2760   52.5170   -2.8750 C.2       1 RDC         0.1176
     10 C10         3.3010   51.6600   -3.5130 C.2       1 RDC        -0.0220
     11 C11         3.7450   51.9540   -4.7360 C.2       1 RDC        -0.0641
     12 C12         4.7190   51.0940   -5.4250 C.2       1 RDC        -0.0558
     13 C13         5.0800   51.3330   -6.6980 C.2       1 RDC        -0.0298
     14 C14         4.6000   52.5250   -7.4910 C.3       1 RDC         0.1255
     15 C15         3.2050   52.3500   -8.1070 C.3       1 RDC         0.1057
     16 C16         2.4720   53.6300   -8.5250 C.3       1 RDC         0.0093
     17 C17         1.5290   54.1460   -7.4170 C.3       1 RDC         0.0858
     18 C18         0.4480   53.1520   -7.0600 C.3       1 RDC        -0.0343
     19 O1          2.3150   54.2610   -6.2360 O.3       1 RDC        -0.2787
     20 O2          2.0100   56.5370   -6.4310 O.2       1 RDC        -0.3725
     21 O3          4.5850   57.4710   -5.8400 O.3       1 RDC        -0.3313
     22 O4          6.0380   56.0470   -1.3980 O.3       1 RDC        -0.3330
     23 CL1         3.8020   54.1210   -0.9030 Cl        1 RDC        -0.0932
     24 O5          1.5720   52.0720   -1.9900 O.2       1 RDC        -0.3923
     25 O6          4.4290   52.2310   -8.8790 O.3       1 RDC        -0.3469
     26 H1          6.1769   57.4838   -3.6432 H         1 RDC         0.0425
     27 H2          1.4975   53.8459   -4.3179 H         1 RDC         0.0645
     28 H3          1.2796   54.3585   -2.6101 H         1 RDC         0.0645
     29 H4          3.6916   50.7914   -2.9849 H         1 RDC         0.0499
     30 H5          3.3785   52.8499   -5.2349 H         1 RDC         0.0706
     31 H6          5.1555   50.2488   -4.8949 H         1 RDC         0.0474
     32 H7          5.7547   50.6292   -7.1831 H         1 RDC         0.0885
     33 H8          4.9762   53.4862   -7.1109 H         1 RDC         0.0863
     34 H9          2.5354   51.5189   -7.8408 H         1 RDC         0.0661
     35 H10         1.8784   53.4206   -9.4271 H         1 RDC         0.0322
     36 H11         3.2164   54.4084   -8.7484 H         1 RDC         0.0322
     37 H12         1.0874   55.1095   -7.7114 H         1 RDC         0.0645
     38 H13        -0.1902   53.5727   -6.2690 H         1 RDC         0.0258
     39 H14         0.9103   52.2205   -6.7014 H         1 RDC         0.0258
     40 H15        -0.1630   52.9394   -7.9497 H         1 RDC         0.0258
     41 H16         3.8934   57.2316   -6.4457 H         1 RDC         0.2508
     42 H17         6.7136   56.6926   -1.5689 H         1 RDC         0.2502
@<TRIPOS>BOND
     1    1    2 1  
     2    1   19 1  
     3    1   20 2  
     4    2    3 ar 
     5    2    7 ar 
     6    3    4 ar 
     7    3   21 1  
     8    4    5 ar 
     9    5    6 ar 
    10    5   22 1  
    11    6    7 ar 
    12    6   23 1  
    13    7    8 1  
    14    8    9 1  
    15    9   10 1  
    16    9   24 2  
    17   10   11 2  
    18   11   12 1  
    19   12   13 2  
    20   13   14 1  
    21   14   15 1  
    22   14   25 1  
    23   15   16 1  
    24   15   25 1  
    25   16   17 1  
    26   17   18 1  
    27   17   19 1  
    28    4   26 1  
    29    8   27 1  
    30    8   28 1  
    31   10   29 1  
    32   11   30 1  
    33   12   31 1  
    34   13   32 1  
    35   14   33 1  
    36   15   34 1  
    37   16   35 1  
    38   16   36 1  
    39   17   37 1  
    40   18   38 1  
    41   18   39 1  
    42   18   40 1  
    43   21   41 1  
    44   22   42 1  
@<TRIPOS>SUBSTRUCTURE
     1 RDC         1

