### 
### Created by X-TOOL on Mon Sep 10 21:13:00 2018
### 

@<TRIPOS>MOLECULE
2wev_ligand
   35    37     1     0     0
SMALL
GAST_HUCK


@<TRIPOS>ATOM
      1 N7A         4.5480   45.1430   -0.4970 N.pl3     1 CK7        -0.2316
      2 C3A         4.8380   46.2240    0.2450 C.2       1 CK7         0.3287
      3 N2A         6.0790   46.6000    0.4240 N.2       1 CK7        -0.1081
      4 C1A         6.1500   47.6750    1.1760 C.2       1 CK7         0.2171
      5 C6A         7.4940   48.2390    1.4810 C.3       1 CK7         0.0532
      6 S4A         3.7260   47.1640    0.9720 S.3       1 CK7         0.2138
      7 C5A         4.9340   48.1030    1.5320 C.2       1 CK7         0.2776
      8 C4          4.5800   49.4350    2.1340 C.ar      1 CK7         0.2082
      9 N3          3.2960   49.5890    2.4880 N.ar      1 CK7        -0.1846
     10 C5          5.4620   50.5140    2.2580 C.ar      1 CK7         0.0641
     11 C6          4.9520   51.7350    2.7040 C.ar      1 CK7         0.0878
     12 N1          3.6490   51.8420    3.0460 N.ar      1 CK7        -0.1767
     13 C2          2.8340   50.7740    2.9170 C.ar      1 CK7         0.2687
     14 N7          1.5710   50.8850    3.4000 N.pl3     1 CK7        -0.2268
     15 C1B         0.5030   50.1390    3.0500 C.ar      1 CK7         0.0783
     16 C6B        -0.7400   50.6330    3.3530 C.ar      1 CK7        -0.0306
     17 C2B         0.6060   48.8900    2.4270 C.ar      1 CK7        -0.0026
     18 C3B        -0.5360   48.1520    2.1180 C.ar      1 CK7         0.0764
     19 N7B        -0.3920   46.8270    1.7920 N.2       1 CK7        -0.2189
     20 O8B        -1.4020   46.1710    1.5860 O.2       1 CK7        -0.4886
     21 O9B         0.6200   46.2060    2.1280 O.2       1 CK7        -0.4886
     22 C4B        -1.8020   48.6590    2.4180 C.ar      1 CK7        -0.0383
     23 C5B        -1.8860   49.8970    3.0350 C.ar      1 CK7        -0.0620
     24 H1          5.3066   44.5951   -0.9274 H         1 CK7         0.2376
     25 H2          3.5669   44.8617   -0.6358 H         1 CK7         0.2376
     26 H3          7.3821   49.1301    2.1161 H         1 CK7         0.0701
     27 H4          7.9961   48.5180    0.5429 H         1 CK7         0.0701
     28 H5          8.0966   47.4855    2.0094 H         1 CK7         0.0701
     29 H6          6.5127   50.4051    2.0145 H         1 CK7         0.1237
     30 H7          5.6027   52.5990    2.7761 H         1 CK7         0.1090
     31 H8          1.4109   51.6155    4.1082 H         1 CK7         0.2232
     32 H9         -0.8345   51.5966    3.8404 H         1 CK7         0.0591
     33 H10         1.5841   48.4920    2.1820 H         1 CK7         0.0617
     34 H11        -2.6970   48.0980    2.1743 H         1 CK7         0.0603
     35 H12        -2.8613   50.3039    3.2765 H         1 CK7         0.0606
@<TRIPOS>BOND
     1    1    2 1  
     2    2    3 2  
     3    2    6 1  
     4    3    4 1  
     5    4    5 1  
     6    4    7 2  
     7    6    7 1  
     8    7    8 1  
     9    8    9 ar 
    10    8   10 ar 
    11    9   13 ar 
    12   10   11 ar 
    13   11   12 ar 
    14   12   13 ar 
    15   13   14 1  
    16   14   15 1  
    17   15   16 ar 
    18   15   17 ar 
    19   16   23 ar 
    20   17   18 ar 
    21   18   19 1  
    22   18   22 ar 
    23   19   20 2  
    24   19   21 2  
    25   22   23 ar 
    26    1   24 1  
    27    1   25 1  
    28    5   26 1  
    29    5   27 1  
    30    5   28 1  
    31   10   29 1  
    32   11   30 1  
    33   14   31 1  
    34   16   32 1  
    35   17   33 1  
    36   22   34 1  
    37   23   35 1  
@<TRIPOS>SUBSTRUCTURE
     1 CK7         1

