### 
### Created by X-TOOL on Mon Sep 10 21:13:02 2018
### 

@<TRIPOS>MOLECULE
2wey_ligand
   46    48     1     0     0
SMALL
GAST_HUCK


@<TRIPOS>ATOM
      1 C25       -10.8550  -28.8440   35.4010 C.3       1 EV1         0.0568
      2 O24        -9.4850  -28.4850   35.2120 O.3       1 EV1        -0.3264
      3 C16        -8.4470  -29.3780   35.0680 C.ar      1 EV1         0.1138
      4 C15        -8.3790  -30.6490   35.8540 C.ar      1 EV1         0.1128
      5 O22        -9.3750  -30.9920   36.7430 O.3       1 EV1        -0.3291
      6 C23        -9.1380  -31.8070   37.8950 C.3       1 EV1         0.0555
      7 C14        -7.2830  -31.4880   35.6520 C.ar      1 EV1        -0.0472
      8 C13        -6.2830  -31.1370   34.7440 C.ar      1 EV1        -0.0774
      9 C17        -7.4120  -29.0700   34.1770 C.ar      1 EV1        -0.0372
     10 C12        -6.3330  -29.9430   34.0200 C.ar      1 EV1        -0.0479
     11 C11        -5.2030  -29.6460   33.0510 C.3       1 EV1         0.0228
     12 C10        -4.3500  -28.4280   33.3700 C.ar      1 EV1         0.0357
     13 N9         -4.0100  -27.6120   32.3380 N.ar      1 EV1        -0.3098
     14 C8         -3.2490  -26.5100   32.4930 C.ar      1 EV1        -0.0129
     15 C7         -2.7390  -26.1070   33.7300 C.ar      1 EV1        -0.0515
     16 C2         -3.0040  -26.8550   34.8720 C.ar      1 EV1        -0.0270
     17 C3         -3.8380  -28.0840   34.7390 C.ar      1 EV1        -0.0029
     18 C4         -4.1120  -28.8400   35.8720 C.ar      1 EV1        -0.0232
     19 C5         -3.6140  -28.4630   37.1170 C.ar      1 EV1         0.1301
     20 O20        -3.9060  -29.2310   38.2190 O.3       1 EV1        -0.3196
     21 C21        -3.7490  -30.6510   38.2070 C.3       1 EV1         0.0585
     22 C6         -2.7840  -27.2240   37.2500 C.ar      1 EV1         0.1302
     23 C1         -2.5060  -26.4630   36.1120 C.ar      1 EV1        -0.0262
     24 O18        -2.2870  -26.8590   38.4860 O.3       1 EV1        -0.3178
     25 C19        -2.1940  -25.4990   38.9180 C.3       1 EV1         0.0594
     26 H1        -11.4646  -27.9323   35.4858 H         1 EV1         0.0573
     27 H2        -10.9547  -29.4386   36.3210 H         1 EV1         0.0573
     28 H3        -11.2005  -29.4374   34.5416 H         1 EV1         0.0573
     29 H4        -10.0791  -31.9425   38.4482 H         1 EV1         0.0570
     30 H5         -8.3980  -31.3170   38.5449 H         1 EV1         0.0570
     31 H6         -8.7548  -32.7880   37.5776 H         1 EV1         0.0570
     32 H7         -7.2076  -32.4181   36.2036 H         1 EV1         0.0494
     33 H8         -5.4450  -31.8087   34.5965 H         1 EV1         0.0443
     34 H9         -7.4482  -28.1493   33.6060 H         1 EV1         0.0456
     35 H10        -5.6453  -29.4949   32.0552 H         1 EV1         0.0605
     36 H11        -4.5403  -30.5237   33.0285 H         1 EV1         0.0605
     37 H12        -3.0227  -25.9098   31.6191 H         1 EV1         0.0702
     38 H13        -2.1354  -25.2093   33.7996 H         1 EV1         0.0593
     39 H14        -4.7201  -29.7332   35.7861 H         1 EV1         0.0522
     40 H15        -4.0379  -31.0601   39.1864 H         1 EV1         0.0576
     41 H16        -2.6982  -30.9020   38.0004 H         1 EV1         0.0576
     42 H17        -4.3901  -31.0842   37.4251 H         1 EV1         0.0576
     43 H18        -1.9021  -25.5666   36.1942 H         1 EV1         0.0495
     44 H19        -1.7689  -25.4646   39.9320 H         1 EV1         0.0578
     45 H20        -3.1969  -25.0472   38.9254 H         1 EV1         0.0578
     46 H21        -1.5446  -24.9390   38.2291 H         1 EV1         0.0578
@<TRIPOS>BOND
     1    1    2 1  
     2    2    3 1  
     3    3    4 ar 
     4    3    9 ar 
     5    4    5 1  
     6    4    7 ar 
     7    5    6 1  
     8    7    8 ar 
     9    8   10 ar 
    10    9   10 ar 
    11   10   11 1  
    12   11   12 1  
    13   12   13 ar 
    14   12   17 ar 
    15   13   14 ar 
    16   14   15 ar 
    17   15   16 ar 
    18   16   17 ar 
    19   16   23 ar 
    20   17   18 ar 
    21   18   19 ar 
    22   19   20 1  
    23   19   22 ar 
    24   20   21 1  
    25   22   23 ar 
    26   22   24 1  
    27   24   25 1  
    28    1   26 1  
    29    1   27 1  
    30    1   28 1  
    31    6   29 1  
    32    6   30 1  
    33    6   31 1  
    34    7   32 1  
    35    8   33 1  
    36    9   34 1  
    37   11   35 1  
    38   11   36 1  
    39   14   37 1  
    40   15   38 1  
    41   18   39 1  
    42   21   40 1  
    43   21   41 1  
    44   21   42 1  
    45   23   43 1  
    46   25   44 1  
    47   25   45 1  
    48   25   46 1  
@<TRIPOS>SUBSTRUCTURE
     1 EV1         1

