### 
### Created by X-TOOL on Mon Sep 10 21:13:00 2018
### 

@<TRIPOS>MOLECULE
2wez_ligand
   80    84     1     0     0
SMALL
GAST_HUCK


@<TRIPOS>ATOM
      1 C1         30.1980   -2.3490   35.3960 C.ar      1 ZYE         0.0594
      2 C2         30.0150   -1.1550   34.6390 C.ar      1 ZYE        -0.0398
      3 C3         30.4940    0.1280   35.1710 C.ar      1 ZYE         0.0191
      4 C4         31.1310    0.1510   36.4470 C.ar      1 ZYE        -0.0401
      5 C5         31.3180   -1.0590   37.2180 C.ar      1 ZYE         0.0652
      6 C6         30.8280   -2.3720   36.6710 C.ar      1 ZYE         0.0023
      7 C7         30.3130    1.3550   34.3740 C.2       1 ZYE         0.1938
      8 N8         29.1330    1.4490   33.6960 N.am      1 ZYE        -0.2799
      9 O9         31.2950    2.1260   34.2290 O.2       1 ZYE        -0.3883
     10 C10        28.8460    2.4470   32.6370 C.3       1 ZYE         0.0816
     11 C11        28.1310    1.6760   31.5020 C.3       1 ZYE         0.0065
     12 C12        27.9930    3.6920   33.0700 C.3       1 ZYE         0.1192
     13 O13        27.7430    4.6030   32.0050 O.3       1 ZYE        -0.3841
     14 C14        28.9450    0.4240   31.1420 C.ar      1 ZYE        -0.0408
     15 C15        28.6940    4.4700   34.1970 C.3       1 ZYE        -0.0033
     16 N16        27.9740    5.6700   34.6730 N.4       1 ZYE         0.2408
     17 C17        28.6600    6.8710   35.3010 C.3       1 ZYE        -0.0023
     18 C18        28.1310   -0.7990   31.0000 C.ar      1 ZYE        -0.0603
     19 C19        28.7610   -2.0990   30.6790 C.ar      1 ZYE        -0.0686
     20 C20        30.2260   -2.1920   30.5000 C.ar      1 ZYE        -0.0687
     21 C21        31.0730   -0.9710   30.6370 C.ar      1 ZYE        -0.0686
     22 C22        30.4520    0.3320   30.9540 C.ar      1 ZYE        -0.0603
     23 N23        29.8280   -3.6580   35.0920 N.pl3     1 ZYE        -0.2706
     24 C24        33.6710   -0.6600   40.0750 C.3       1 ZYE        -0.0098
     25 C25        32.3520   -1.0340   40.7850 C.3       1 ZYE         0.0459
     26 C26        31.3260   -1.2140   39.6780 C.2       1 ZYE         0.2068
     27 N27        31.9730   -0.9770   38.5010 N.am      1 ZYE        -0.2216
     28 C28        33.3810   -0.6360   38.5910 C.3       1 ZYE         0.0579
     29 O29        30.1130   -1.5240   39.7940 O.2       1 ZYE        -0.3842
     30 C30        30.2330   -4.4400   36.1540 C.2       1 ZYE         0.0201
     31 C31        30.8630   -3.6870   37.1670 C.2       1 ZYE        -0.0655
     32 C32        27.6150   -3.8760   33.9080 C.3       1 ZYE        -0.0386
     33 C33        29.1340   -4.0950   33.8530 C.3       1 ZYE         0.0479
     34 C34        30.6680    8.4080   32.2950 C.ar      1 ZYE         0.0842
     35 C35        32.0230    8.2580   32.8080 C.ar      1 ZYE        -0.0401
     36 C36        32.2670    7.6750   34.0920 C.ar      1 ZYE        -0.0770
     37 C37        31.1710    7.2260   34.9010 C.ar      1 ZYE        -0.0664
     38 C38        29.8110    7.3560   34.4280 C.ar      1 ZYE        -0.0075
     39 C39        29.5670    7.9450   33.1340 C.ar      1 ZYE        -0.0272
     40 O40        30.3390    8.9780   31.0320 O.3       1 ZYE        -0.3230
     41 C41        28.9900    9.1080   30.5700 C.3       1 ZYE         0.0592
     42 H1         29.5238   -1.1936   33.6735 H         1 ZYE         0.0460
     43 H2         31.4824    1.0950   36.8476 H         1 ZYE         0.0411
     44 H3         28.4101    0.7988   33.9296 H         1 ZYE         0.1848
     45 H4         29.8075    2.8283   32.2628 H         1 ZYE         0.0606
     46 H5         28.0438    2.3236   30.6171 H         1 ZYE         0.0449
     47 H6         27.1272    1.3767   31.8378 H         1 ZYE         0.0449
     48 H7         27.0263    3.3221   33.4423 H         1 ZYE         0.0672
     49 H8         27.2681    4.1573   31.3134 H         1 ZYE         0.2101
     50 H9         29.6804    4.7883   33.8288 H         1 ZYE         0.0840
     51 H10        28.8237    3.7893   35.0513 H         1 ZYE         0.0840
     52 H11        27.3148    5.3400   35.3604 H         1 ZYE         0.2029
     53 H12        27.4751    6.0262   33.8728 H         1 ZYE         0.2029
     54 H13        29.0519    6.5866   36.2887 H         1 ZYE         0.0978
     55 H14        27.9283    7.6841   35.4171 H         1 ZYE         0.0978
     56 H15        27.0565   -0.7442   31.1327 H         1 ZYE         0.0557
     57 H16        28.1466   -2.9860   30.5747 H         1 ZYE         0.0599
     58 H17        30.6845   -3.1468   30.2693 H         1 ZYE         0.0559
     59 H18        32.1466   -1.0400   30.5036 H         1 ZYE         0.0599
     60 H19        31.0677    1.2187   31.0522 H         1 ZYE         0.0557
     61 H20        34.4453   -1.4091   40.2968 H         1 ZYE         0.0314
     62 H21        34.0127    0.3306   40.4095 H         1 ZYE         0.0314
     63 H22        32.0423   -0.2291   41.4678 H         1 ZYE         0.0509
     64 H23        32.4731   -1.9691   41.3515 H         1 ZYE         0.0509
     65 H24        33.9971   -1.3769   38.0605 H         1 ZYE         0.0590
     66 H25        33.5683    0.3638   38.1724 H         1 ZYE         0.0590
     67 H26        30.0832   -5.5175   36.2046 H         1 ZYE         0.0892
     68 H27        31.2780   -4.0405   38.1097 H         1 ZYE         0.0286
     69 H28        27.1610   -4.2177   32.9661 H         1 ZYE         0.0255
     70 H29        27.4037   -2.8059   34.0498 H         1 ZYE         0.0255
     71 H30        27.1922   -4.4476   34.7473 H         1 ZYE         0.0255
     72 H31        29.3284   -5.1670   33.7016 H         1 ZYE         0.0597
     73 H32        29.5399   -3.5252   33.0041 H         1 ZYE         0.0597
     74 H33        32.8605    8.5936   32.2072 H         1 ZYE         0.0486
     75 H34        33.2835    7.5724   34.4544 H         1 ZYE         0.0572
     76 H35        31.3636    6.7865   35.8730 H         1 ZYE         0.0466
     77 H36        28.5479    8.0455   32.7784 H         1 ZYE         0.0480
     78 H37        28.9870    9.5741   29.5736 H         1 ZYE         0.0577
     79 H38        28.4214    9.7371   31.2707 H         1 ZYE         0.0577
     80 H39        28.5252    8.1128   30.5106 H         1 ZYE         0.0577
@<TRIPOS>BOND
     1    2    1 ar 
     2    1    6 ar 
     3    1   23 1  
     4    3    2 ar 
     5    3    4 ar 
     6    7    3 1  
     7    4    5 ar 
     8    5    6 ar 
     9    5   27 1  
    10    6   31 1  
    11    8    7 am 
    12    7    9 2  
    13   10    8 1  
    14   10   11 1  
    15   12   10 1  
    16   11   14 1  
    17   12   13 1  
    18   15   12 1  
    19   14   18 ar 
    20   14   22 ar 
    21   16   15 1  
    22   17   16 1  
    23   38   17 1  
    24   18   19 ar 
    25   19   20 ar 
    26   21   20 ar 
    27   22   21 ar 
    28   23   30 1  
    29   23   33 1  
    30   24   25 1  
    31   28   24 1  
    32   26   25 1  
    33   27   26 am 
    34   26   29 2  
    35   27   28 1  
    36   31   30 2  
    37   33   32 1  
    38   35   34 ar 
    39   34   39 ar 
    40   34   40 1  
    41   36   35 ar 
    42   37   36 ar 
    43   37   38 ar 
    44   38   39 ar 
    45   40   41 1  
    46    2   42 1  
    47    4   43 1  
    48    8   44 1  
    49   10   45 1  
    50   11   46 1  
    51   11   47 1  
    52   12   48 1  
    53   13   49 1  
    54   15   50 1  
    55   15   51 1  
    56   16   52 1  
    57   16   53 1  
    58   17   54 1  
    59   17   55 1  
    60   18   56 1  
    61   19   57 1  
    62   20   58 1  
    63   21   59 1  
    64   22   60 1  
    65   24   61 1  
    66   24   62 1  
    67   25   63 1  
    68   25   64 1  
    69   28   65 1  
    70   28   66 1  
    71   30   67 1  
    72   31   68 1  
    73   32   69 1  
    74   32   70 1  
    75   32   71 1  
    76   33   72 1  
    77   33   73 1  
    78   35   74 1  
    79   36   75 1  
    80   37   76 1  
    81   39   77 1  
    82   41   78 1  
    83   41   79 1  
    84   41   80 1  
@<TRIPOS>SUBSTRUCTURE
     1 ZYE         1

