### 
### Created by X-TOOL on Mon Sep 10 21:13:00 2018
### 

@<TRIPOS>MOLECULE
2wf0_ligand
   80    84     1     0     0
SMALL
GAST_HUCK


@<TRIPOS>ATOM
      1 C1         30.1720   -2.3020   35.2710 C.ar      1 ZY0         0.0055
      2 C2         29.9920   -1.0900   34.5150 C.ar      1 ZY0        -0.0460
      3 C3         30.4400    0.1660   35.0330 C.ar      1 ZY0         0.0343
      4 C4         31.0700    0.2280   36.3080 C.ar      1 ZY0        -0.0216
      5 C5         31.2600   -0.9510   37.0720 C.ar      1 ZY0         0.0983
      6 C6         30.8240   -2.2210   36.5710 C.ar      1 ZY0         0.0712
      7 C7         30.2780    1.4090   34.2740 C.2       1 ZY0         0.2011
      8 N8         29.0530    1.5770   33.6940 N.am      1 ZY0        -0.2787
      9 O9         31.1760    2.2470   34.1250 O.2       1 ZY0        -0.3849
     10 C10        28.8410    2.4820   32.5490 C.3       1 ZY0         0.0818
     11 C11        28.1350    1.6880   31.4250 C.3       1 ZY0         0.0065
     12 C12        28.0300    3.7220   32.9920 C.3       1 ZY0         0.1192
     13 O13        27.8120    4.5820   31.9050 O.3       1 ZY0        -0.3841
     14 C14        28.8790    0.4280   30.9970 C.ar      1 ZY0        -0.0408
     15 C15        28.7280    4.5260   34.0890 C.3       1 ZY0        -0.0033
     16 N16        27.9440    5.7060   34.4820 N.4       1 ZY0         0.2413
     17 C17        28.7060    6.8530   35.0270 C.3       1 ZY0         0.0066
     18 C18        28.1380   -0.7430   30.6980 C.ar      1 ZY0        -0.0603
     19 C19        28.7920   -1.9380   30.3080 C.ar      1 ZY0        -0.0686
     20 C20        30.2040   -1.9810   30.2210 C.ar      1 ZY0        -0.0687
     21 C21        30.9610   -0.8170   30.5160 C.ar      1 ZY0        -0.0686
     22 C22        30.3050    0.3740   30.9010 C.ar      1 ZY0        -0.0603
     23 C9         29.7360   -3.6010   34.7830 C.ar      1 ZY0        -0.0175
     24 C24        33.5660   -0.6280   39.9310 C.3       1 ZY0        -0.0093
     25 C25        32.2300   -0.9430   40.6150 C.3       1 ZY0         0.0465
     26 C26        31.2260   -1.0820   39.4830 C.2       1 ZY0         0.2096
     27 N27        31.8740   -0.8910   38.2970 N.am      1 ZY0        -0.2134
     28 C28        33.2980   -0.6110   38.4300 C.3       1 ZY0         0.0600
     29 O1         30.0350   -1.3360   39.6720 O.2       1 ZY0        -0.3828
     30 C30        30.6020   -4.5980   36.8410 C.ar      1 ZY0        -0.0025
     31 N1         31.0080   -3.3920   37.3060 N.ar      1 ZY0        -0.3068
     32 C32        27.5200   -3.8140   33.5570 C.3       1 ZY0        -0.0526
     33 C33        29.0470   -3.8060   33.4480 C.3       1 ZY0        -0.0126
     34 C34        30.3620    8.4640   31.9240 C.ar      1 ZY0         0.0411
     35 C35        31.7360    8.4260   32.3130 C.ar      1 ZY0        -0.0377
     36 C36        32.1140    7.8830   33.5630 C.ar      1 ZY0        -0.0376
     37 C37        31.1310    7.3750   34.4420 C.ar      1 ZY0        -0.0265
     38 C38        29.7560    7.4020   34.0800 C.ar      1 ZY0         0.0303
     39 C39        29.3850    7.9470   32.8270 C.ar      1 ZY0        -0.0257
     40 C8         29.9070    9.0390   30.5870 C.3       1 ZY0         0.3750
     41 F3         29.0560   10.0150   30.8270 F         1 ZY0        -0.2204
     42 F1         29.3120    8.0770   29.9110 F         1 ZY0        -0.2204
     43 F2         30.9340    9.4850   29.8850 F         1 ZY0        -0.2204
     44 C13        29.9640   -4.7430   35.5920 C.ar      1 ZY0        -0.0344
     45 H1         29.5123   -1.1296   33.5437 H         1 ZY0         0.0545
     46 H2         31.4064    1.1822   36.6970 H         1 ZY0         0.0506
     47 H3         28.2727    1.0687   34.0584 H         1 ZY0         0.1851
     48 H4         29.8177    2.8245   32.1765 H         1 ZY0         0.0606
     49 H5         28.0335    2.3447   30.5484 H         1 ZY0         0.0449
     50 H6         27.1364    1.3960   31.7821 H         1 ZY0         0.0449
     51 H7         27.0592    3.3749   33.3755 H         1 ZY0         0.0672
     52 H8         27.3275    4.1211   31.2302 H         1 ZY0         0.2101
     53 H9         29.7092    4.8575   33.7183 H         1 ZY0         0.0840
     54 H10        28.8672    3.8814   34.9694 H         1 ZY0         0.0840
     55 H11        27.2837    5.4147   35.1857 H         1 ZY0         0.2029
     56 H12        27.4461    6.0284   33.6670 H         1 ZY0         0.2029
     57 H13        29.2088    6.5273   35.9495 H         1 ZY0         0.0985
     58 H14        27.9961    7.6598   35.2615 H         1 ZY0         0.0985
     59 H15        27.0565   -0.7240   30.7687 H         1 ZY0         0.0557
     60 H16        28.2091   -2.8219   30.0756 H         1 ZY0         0.0599
     61 H17        30.7045   -2.8977   29.9307 H         1 ZY0         0.0559
     62 H18        32.0425   -0.8417   30.4459 H         1 ZY0         0.0599
     63 H19        30.8902    1.2582   31.1265 H         1 ZY0         0.0557
     64 H20        34.3082   -1.4024   40.1745 H         1 ZY0         0.0315
     65 H21        33.9383    0.3532   40.2605 H         1 ZY0         0.0315
     66 H22        31.9396   -0.1243   41.2898 H         1 ZY0         0.0509
     67 H23        32.3004   -1.8809   41.1855 H         1 ZY0         0.0509
     68 H24        33.8930   -1.3845   37.9224 H         1 ZY0         0.0595
     69 H25        33.5393    0.3747   38.0055 H         1 ZY0         0.0595
     70 H26        30.7731   -5.4794   37.4484 H         1 ZY0         0.0805
     71 H27        27.0820   -3.9660   32.5595 H         1 ZY0         0.0257
     72 H28        27.1765   -2.8522   33.9656 H         1 ZY0         0.0257
     73 H29        27.2043   -4.6296   34.2242 H         1 ZY0         0.0257
     74 H30        29.3734   -4.7695   33.0295 H         1 ZY0         0.0465
     75 H31        29.3456   -2.9921   32.7709 H         1 ZY0         0.0465
     76 H32        32.4950    8.8165   31.6448 H         1 ZY0         0.0802
     77 H33        33.1597    7.8564   33.8473 H         1 ZY0         0.0683
     78 H34        31.4273    6.9617   35.3993 H         1 ZY0         0.0805
     79 H35        28.3379    7.9721   32.5479 H         1 ZY0         0.0782
     80 H36        29.6493   -5.7229   35.2518 H         1 ZY0         0.0604
@<TRIPOS>BOND
     1    2    1 ar 
     2    1    6 ar 
     3    1   23 ar 
     4    3    2 ar 
     5    3    4 ar 
     6    7    3 1  
     7    4    5 ar 
     8    5    6 ar 
     9    5   27 1  
    10    6   31 ar 
    11    8    7 am 
    12    7    9 2  
    13   10    8 1  
    14   10   11 1  
    15   12   10 1  
    16   11   14 1  
    17   12   13 1  
    18   15   12 1  
    19   14   18 ar 
    20   14   22 ar 
    21   16   15 1  
    22   17   16 1  
    23   38   17 1  
    24   18   19 ar 
    25   19   20 ar 
    26   21   20 ar 
    27   22   21 ar 
    28   23   33 1  
    29   23   44 ar 
    30   24   25 1  
    31   28   24 1  
    32   26   25 1  
    33   27   26 am 
    34   26   29 2  
    35   27   28 1  
    36   31   30 ar 
    37   44   30 ar 
    38   33   32 1  
    39   35   34 ar 
    40   34   39 ar 
    41   34   40 1  
    42   36   35 ar 
    43   37   36 ar 
    44   37   38 ar 
    45   38   39 ar 
    46   40   41 1  
    47   40   42 1  
    48   40   43 1  
    49    2   45 1  
    50    4   46 1  
    51    8   47 1  
    52   10   48 1  
    53   11   49 1  
    54   11   50 1  
    55   12   51 1  
    56   13   52 1  
    57   15   53 1  
    58   15   54 1  
    59   16   55 1  
    60   16   56 1  
    61   17   57 1  
    62   17   58 1  
    63   18   59 1  
    64   19   60 1  
    65   20   61 1  
    66   21   62 1  
    67   22   63 1  
    68   24   64 1  
    69   24   65 1  
    70   25   66 1  
    71   25   67 1  
    72   28   68 1  
    73   28   69 1  
    74   30   70 1  
    75   32   71 1  
    76   32   72 1  
    77   32   73 1  
    78   33   74 1  
    79   33   75 1  
    80   35   76 1  
    81   36   77 1  
    82   37   78 1  
    83   39   79 1  
    84   44   80 1  
@<TRIPOS>SUBSTRUCTURE
     1 ZY0         1

