### 
### Created by X-TOOL on Mon Sep 10 21:13:00 2018
### 

@<TRIPOS>MOLECULE
2wf1_ligand
   81    85     1     0     0
SMALL
GAST_HUCK


@<TRIPOS>ATOM
      1 C69        27.6180   -3.8540   34.2880 C.3       1 ZY1        -0.0609
      2 C68        29.1370   -4.0020   34.1320 C.3       1 ZY1        -0.0397
      3 C58        29.8660   -3.4100   35.3340 C.2       1 ZY1        -0.0497
      4 C57        30.3580   -4.1260   36.4280 C.2       1 ZY1         0.0178
      5 N56        30.9610   -3.2910   37.3200 N.pl3     1 ZY1        -0.2756
      6 C62        31.6240   -3.6850   38.6040 C.3       1 ZY1         0.0692
      7 C61        31.2920   -2.9890   39.9430 C.3       1 ZY1         0.1158
      8 S60        31.1010   -1.2210   39.8640 S.o2      1 ZY1         0.0638
      9 O80        29.7190   -0.9570   39.6070 O.2       1 ZY1        -0.1497
     10 O79        31.6780   -0.6380   41.0490 O.2       1 ZY1        -0.1497
     11 N59        32.0030   -0.6830   38.5670 N.am      1 ZY1        -0.1825
     12 C75        32.7410    0.5820   38.8210 C.3       1 ZY1         0.0433
     13 C10        31.3320   -0.7360   37.3450 C.ar      1 ZY1         0.0901
     14 C9         31.1050    0.4690   36.5710 C.ar      1 ZY1        -0.0429
     15 C8         30.4290    0.4070   35.3070 C.ar      1 ZY1         0.0136
     16 C13        29.9820   -0.8620   34.8320 C.ar      1 ZY1        -0.0731
     17 C12        30.1960   -2.0230   35.5710 C.ar      1 ZY1        -0.0296
     18 C11        30.8840   -1.9690   36.8330 C.ar      1 ZY1         0.0889
     19 C1         30.2000    1.5800   34.4310 C.2       1 ZY1         0.1919
     20 O7         31.0350    2.4780   34.3070 O.2       1 ZY1        -0.3894
     21 N2         29.0470    1.5970   33.7040 N.am      1 ZY1        -0.2802
     22 C3         28.7430    2.6630   32.7250 C.3       1 ZY1         0.0816
     23 C5         28.1980    1.9210   31.4600 C.3       1 ZY1         0.0065
     24 C14        28.8270    0.5630   31.1840 C.ar      1 ZY1        -0.0408
     25 C15        28.0200   -0.6100   31.1280 C.ar      1 ZY1        -0.0603
     26 C16        28.6060   -1.8780   30.8780 C.ar      1 ZY1        -0.0686
     27 C17        30.0030   -1.9880   30.6840 C.ar      1 ZY1        -0.0687
     28 C18        30.8180   -0.8290   30.7380 C.ar      1 ZY1        -0.0686
     29 C19        30.2350    0.4360   30.9840 C.ar      1 ZY1        -0.0603
     30 O47        30.0710    8.9410   30.8830 O.3       1 ZY1        -0.3230
     31 C4         27.8100    3.7460   33.3100 C.3       1 ZY1         0.1192
     32 C48        28.7920    9.4100   30.4820 C.3       1 ZY1         0.0592
     33 O21        27.4460    4.6150   32.2510 O.3       1 ZY1        -0.3841
     34 C6         28.4060    4.6020   34.4350 C.3       1 ZY1        -0.0033
     35 N20        27.6660    5.8680   34.5720 N.4       1 ZY1         0.2408
     36 C37        28.4110    6.9520   35.2380 C.3       1 ZY1        -0.0023
     37 C39        29.5090    7.5170   34.3630 C.ar      1 ZY1        -0.0075
     38 C42        29.2170    7.9510   33.0450 C.ar      1 ZY1        -0.0272
     39 C43        30.2410    8.4860   32.2010 C.ar      1 ZY1         0.0842
     40 C44        31.5600    8.5730   32.7100 C.ar      1 ZY1        -0.0401
     41 C45        31.8590    8.1430   34.0220 C.ar      1 ZY1        -0.0770
     42 C46        30.8380    7.6170   34.8460 C.ar      1 ZY1        -0.0664
     43 H1         27.1154   -4.2874   33.4107 H         1 ZY1         0.0244
     44 H2         27.3598   -2.7878   34.3689 H         1 ZY1         0.0244
     45 H3         27.2896   -4.3808   35.1961 H         1 ZY1         0.0244
     46 H4         29.4587   -3.4766   33.2207 H         1 ZY1         0.0346
     47 H5         29.3884   -5.0696   34.0479 H         1 ZY1         0.0346
     48 H6         30.2714   -5.2046   36.5511 H         1 ZY1         0.0792
     49 H7         32.7044   -3.5509   38.4467 H         1 ZY1         0.0612
     50 H8         31.4043   -4.7530   38.7492 H         1 ZY1         0.0612
     51 H9         32.1050   -3.2103   40.6502 H         1 ZY1         0.0550
     52 H10        30.3508   -3.4145   40.3214 H         1 ZY1         0.0550
     53 H11        33.3062    0.8639   37.9204 H         1 ZY1         0.0516
     54 H12        33.4370    0.4382   39.6606 H         1 ZY1         0.0516
     55 H13        32.0260    1.3800   39.0699 H         1 ZY1         0.0516
     56 H14        31.4488    1.4244   36.9505 H         1 ZY1         0.0397
     57 H15        29.4672   -0.9235   33.8800 H         1 ZY1         0.0441
     58 H16        28.3824    0.8618   33.8375 H         1 ZY1         0.1848
     59 H17        29.6807    3.1671   32.4484 H         1 ZY1         0.0606
     60 H18        28.3774    2.5632   30.5851 H         1 ZY1         0.0449
     61 H19        27.1158    1.7743   31.5914 H         1 ZY1         0.0449
     62 H20        26.9491   -0.5331   31.2777 H         1 ZY1         0.0557
     63 H21        27.9823   -2.7636   30.8356 H         1 ZY1         0.0599
     64 H22        30.4498   -2.9572   30.4943 H         1 ZY1         0.0559
     65 H23        31.8887   -0.9125   30.5906 H         1 ZY1         0.0599
     66 H24        30.8637    1.3183   31.0211 H         1 ZY1         0.0557
     67 H25        26.9125    3.2460   33.7029 H         1 ZY1         0.0672
     68 H26        28.8310    9.7264   29.4292 H         1 ZY1         0.0577
     69 H27        28.5009   10.2642   31.1110 H         1 ZY1         0.0577
     70 H28        28.0534    8.6028   30.5951 H         1 ZY1         0.0577
     71 H29        26.9970    4.1194   31.5763 H         1 ZY1         0.2101
     72 H30        29.4584    4.8220   34.2028 H         1 ZY1         0.0840
     73 H31        28.3481    4.0454   35.3820 H         1 ZY1         0.0840
     74 H32        26.8313    5.6867   35.1072 H         1 ZY1         0.2029
     75 H33        27.4116    6.1837   33.6492 H         1 ZY1         0.2029
     76 H34        28.8620    6.5565   36.1601 H         1 ZY1         0.0978
     77 H35        27.7090    7.7603   35.4905 H         1 ZY1         0.0978
     78 H36        28.2023    7.8763   32.6711 H         1 ZY1         0.0480
     79 H37        32.3496    8.9744   32.0851 H         1 ZY1         0.0486
     80 H38        32.8732    8.2165   34.3975 H         1 ZY1         0.0572
     81 H39        31.0724    7.2885   35.8521 H         1 ZY1         0.0466
@<TRIPOS>BOND
     1    2    1 1  
     2    3    2 1  
     3    3    4 2  
     4   17    3 1  
     5    5    4 1  
     6    5    6 1  
     7   18    5 1  
     8    6    7 1  
     9    8    7 1  
    10    8    9 2  
    11    8   10 2  
    12   11    8 am 
    13   11   12 1  
    14   13   11 1  
    15   14   13 ar 
    16   13   18 ar 
    17   15   14 ar 
    18   15   16 ar 
    19   19   15 1  
    20   16   17 ar 
    21   17   18 ar 
    22   19   20 2  
    23   21   19 am 
    24   22   21 1  
    25   22   23 1  
    26   31   22 1  
    27   23   24 1  
    28   24   25 ar 
    29   24   29 ar 
    30   25   26 ar 
    31   26   27 ar 
    32   28   27 ar 
    33   29   28 ar 
    34   30   32 1  
    35   39   30 1  
    36   31   33 1  
    37   34   31 1  
    38   35   34 1  
    39   36   35 1  
    40   37   36 1  
    41   38   37 ar 
    42   37   42 ar 
    43   38   39 ar 
    44   39   40 ar 
    45   40   41 ar 
    46   41   42 ar 
    47    1   43 1  
    48    1   44 1  
    49    1   45 1  
    50    2   46 1  
    51    2   47 1  
    52    4   48 1  
    53    6   49 1  
    54    6   50 1  
    55    7   51 1  
    56    7   52 1  
    57   12   53 1  
    58   12   54 1  
    59   12   55 1  
    60   14   56 1  
    61   16   57 1  
    62   21   58 1  
    63   22   59 1  
    64   23   60 1  
    65   23   61 1  
    66   25   62 1  
    67   26   63 1  
    68   27   64 1  
    69   28   65 1  
    70   29   66 1  
    71   31   67 1  
    72   32   68 1  
    73   32   69 1  
    74   32   70 1  
    75   33   71 1  
    76   34   72 1  
    77   34   73 1  
    78   35   74 1  
    79   35   75 1  
    80   36   76 1  
    81   36   77 1  
    82   38   78 1  
    83   40   79 1  
    84   41   80 1  
    85   42   81 1  
@<TRIPOS>SUBSTRUCTURE
     1 ZY1         1

