### 
### Created by X-TOOL on Mon Sep 10 21:13:01 2018
### 

@<TRIPOS>MOLECULE
2wf2_ligand
   85    89     1     0     0
SMALL
GAST_HUCK


@<TRIPOS>ATOM
      1 C1         30.5630    1.3650   34.7320 C.2       1 ZY2         0.1891
      2 N2         29.3620    1.3030   34.0910 N.am      1 ZY2        -0.2807
      3 C3         29.0290    2.2730   33.0400 C.3       1 ZY2         0.0815
      4 C4         28.1710    3.4650   33.5180 C.3       1 ZY2         0.1192
      5 C5         28.3780    1.4980   31.8540 C.3       1 ZY2         0.0065
      6 C6         28.9830    4.4320   34.3660 C.3       1 ZY2        -0.0033
      7 O7         31.3780    2.2620   34.5060 O.2       1 ZY2        -0.3909
      8 C8         30.8990    0.2050   35.5510 C.ar      1 ZY2         0.0099
      9 C9         31.5450    0.3730   36.7840 C.ar      1 ZY2        -0.0489
     10 C10        31.9170   -0.7490   37.5690 C.ar      1 ZY2         0.0789
     11 C11        31.6390   -2.1050   37.1020 C.ar      1 ZY2         0.0829
     12 C12        30.9480   -2.2770   35.8440 C.ar      1 ZY2         0.0505
     13 C13        30.5940   -1.0970   35.0800 C.ar      1 ZY2        -0.0520
     14 C14        29.1840    0.2640   31.4150 C.ar      1 ZY2        -0.0408
     15 C15        28.4390   -0.9400   31.1480 C.ar      1 ZY2        -0.0603
     16 C16        29.1260   -2.1360   30.7520 C.ar      1 ZY2        -0.0686
     17 C17        30.5530   -2.1170   30.6310 C.ar      1 ZY2        -0.0687
     18 C18        31.3100   -0.9230   30.8950 C.ar      1 ZY2        -0.0686
     19 C19        30.6270    0.2720   31.2880 C.ar      1 ZY2        -0.0603
     20 N20        28.1070    5.5620   34.7890 N.4       1 ZY2         0.2408
     21 O21        27.7070    4.2370   32.4050 O.3       1 ZY2        -0.3841
     22 C37        28.8850    6.5690   35.5530 C.3       1 ZY2        -0.0023
     23 C39        29.9720    7.1960   34.6780 C.ar      1 ZY2        -0.0075
     24 C42        29.6470    7.6780   33.3630 C.ar      1 ZY2        -0.0272
     25 C43        30.6850    8.2480   32.5360 C.ar      1 ZY2         0.0842
     26 C44        32.0190    8.3210   33.0460 C.ar      1 ZY2        -0.0401
     27 C45        32.3460    7.8490   34.3520 C.ar      1 ZY2        -0.0770
     28 C46        31.3130    7.2850   35.1630 C.ar      1 ZY2        -0.0664
     29 O47        30.4950    8.7470   31.2400 O.3       1 ZY2        -0.3230
     30 C48        29.1850    8.7110   30.6530 C.3       1 ZY2         0.0592
     31 N56        32.0810   -3.2740   37.7790 N.pl3     1 ZY2        -0.3145
     32 C57        30.9220   -4.8100   36.1070 C.3       1 ZY2         0.0425
     33 N1         30.6190   -3.5620   35.3500 N.pl3     1 ZY2        -0.3151
     34 N59        32.3170   -0.4430   38.9020 N.am      1 ZY2        -0.1882
     35 S60        31.6130   -1.3220   40.2220 S.o2      1 ZY2         0.0613
     36 C61        32.4220   -2.8910   40.2980 C.3       1 ZY2         0.1083
     37 C62        33.0030   -3.2640   38.9370 C.3       1 ZY2         0.0438
     38 C68        29.9190   -3.7890   34.0730 C.3       1 ZY2         0.0209
     39 C69        28.4050   -3.9410   34.3250 C.3       1 ZY2        -0.0459
     40 C75        33.5990    0.3120   39.0400 C.3       1 ZY2         0.0410
     41 O79        30.2330   -1.5320   39.8820 O.2       1 ZY2        -0.1502
     42 O80        31.9330   -0.5510   41.3970 O.2       1 ZY2        -0.1502
     43 C2         31.8280   -4.6500   37.3220 C.3       1 ZY2         0.0413
     44 H1         28.7032    0.5924   34.3379 H         1 ZY2         0.1847
     45 H2         29.9762    2.6993   32.6780 H         1 ZY2         0.0605
     46 H3         27.3174    3.0817   34.0962 H         1 ZY2         0.0672
     47 H4         28.2919    2.1813   30.9963 H         1 ZY2         0.0449
     48 H5         27.3750    1.1678   32.1619 H         1 ZY2         0.0449
     49 H6         29.8266    4.8204   33.7765 H         1 ZY2         0.0840
     50 H7         29.3664    3.9101   35.2552 H         1 ZY2         0.0840
     51 H8         31.7630    1.3726   37.1421 H         1 ZY2         0.0392
     52 H9         30.0859   -1.2124   34.1295 H         1 ZY2         0.0397
     53 H10        27.3595   -0.9424   31.2463 H         1 ZY2         0.0557
     54 H11        28.5709   -3.0441   30.5466 H         1 ZY2         0.0599
     55 H12        31.0729   -3.0208   30.3345 H         1 ZY2         0.0559
     56 H13        32.3896   -0.9280   30.7971 H         1 ZY2         0.0599
     57 H14        31.1867    1.1782   31.4895 H         1 ZY2         0.0557
     58 H15        27.3648    5.2059   35.3708 H         1 ZY2         0.2029
     59 H16        27.7124    5.9993   33.9710 H         1 ZY2         0.2029
     60 H17        27.1882    3.6846   31.8322 H         1 ZY2         0.2101
     61 H18        29.3565    6.0796   36.4180 H         1 ZY2         0.0978
     62 H19        28.2050    7.3590   35.9043 H         1 ZY2         0.0978
     63 H20        28.6295    7.6140   32.9946 H         1 ZY2         0.0480
     64 H21        32.8003    8.7450   32.4256 H         1 ZY2         0.0486
     65 H22        33.3621    7.9171   34.7235 H         1 ZY2         0.0572
     66 H23        31.5494    6.9210   36.1563 H         1 ZY2         0.0466
     67 H24        29.2247    9.1408   29.6412 H         1 ZY2         0.0577
     68 H25        28.4893    9.2957   31.2727 H         1 ZY2         0.0577
     69 H26        28.8375    7.6689   30.5953 H         1 ZY2         0.0577
     70 H27        31.4077   -5.5139   35.4152 H         1 ZY2         0.0526
     71 H28        29.9678   -5.2346   36.4522 H         1 ZY2         0.0526
     72 H29        31.6948   -3.6580   40.6028 H         1 ZY2         0.0543
     73 H30        33.2354   -2.8426   41.0370 H         1 ZY2         0.0543
     74 H31        33.8051   -2.5453   38.7132 H         1 ZY2         0.0522
     75 H32        33.4300   -4.2738   39.0268 H         1 ZY2         0.0522
     76 H33        30.3046   -4.7060   33.6035 H         1 ZY2         0.0505
     77 H34        30.0934   -2.9333   33.4041 H         1 ZY2         0.0505
     78 H35        27.8892   -4.1100   33.3682 H         1 ZY2         0.0248
     79 H36        28.0174   -3.0244   34.7935 H         1 ZY2         0.0248
     80 H37        28.2285   -4.7970   34.9929 H         1 ZY2         0.0248
     81 H38        33.8494    0.7878   38.0803 H         1 ZY2         0.0510
     82 H39        34.4037   -0.3810   39.3267 H         1 ZY2         0.0510
     83 H40        33.4877    1.0852   39.8145 H         1 ZY2         0.0510
     84 H41        31.3674   -5.1993   38.1563 H         1 ZY2         0.0524
     85 H42        32.7993   -5.1038   37.0760 H         1 ZY2         0.0524
@<TRIPOS>BOND
     1    1    2 am 
     2    1    7 2  
     3    1    8 1  
     4    2    3 1  
     5    3    4 1  
     6    3    5 1  
     7    4    6 1  
     8    4   21 1  
     9    5   14 1  
    10    6   20 1  
    11    8    9 ar 
    12    8   13 ar 
    13    9   10 ar 
    14   10   11 ar 
    15   10   34 1  
    16   11   12 ar 
    17   11   31 1  
    18   12   13 ar 
    19   12   33 1  
    20   14   15 ar 
    21   14   19 ar 
    22   15   16 ar 
    23   16   17 ar 
    24   17   18 ar 
    25   18   19 ar 
    26   20   22 1  
    27   22   23 1  
    28   23   24 ar 
    29   23   28 ar 
    30   24   25 ar 
    31   25   26 ar 
    32   25   29 1  
    33   26   27 ar 
    34   27   28 ar 
    35   29   30 1  
    36   31   37 1  
    37   31   43 1  
    38   33   32 1  
    39   32   43 1  
    40   33   38 1  
    41   34   35 am 
    42   34   40 1  
    43   35   36 1  
    44   35   41 2  
    45   35   42 2  
    46   36   37 1  
    47   38   39 1  
    48    2   44 1  
    49    3   45 1  
    50    4   46 1  
    51    5   47 1  
    52    5   48 1  
    53    6   49 1  
    54    6   50 1  
    55    9   51 1  
    56   13   52 1  
    57   15   53 1  
    58   16   54 1  
    59   17   55 1  
    60   18   56 1  
    61   19   57 1  
    62   20   58 1  
    63   20   59 1  
    64   21   60 1  
    65   22   61 1  
    66   22   62 1  
    67   24   63 1  
    68   26   64 1  
    69   27   65 1  
    70   28   66 1  
    71   30   67 1  
    72   30   68 1  
    73   30   69 1  
    74   32   70 1  
    75   32   71 1  
    76   36   72 1  
    77   36   73 1  
    78   37   74 1  
    79   37   75 1  
    80   38   76 1  
    81   38   77 1  
    82   39   78 1  
    83   39   79 1  
    84   39   80 1  
    85   40   81 1  
    86   40   82 1  
    87   40   83 1  
    88   43   84 1  
    89   43   85 1  
@<TRIPOS>SUBSTRUCTURE
     1 ZY2         1

