### 
### Created by X-TOOL on Mon Sep 10 21:12:59 2018
### 

@<TRIPOS>MOLECULE
2wf3_ligand
   82    85     1     0     0
SMALL
GAST_HUCK


@<TRIPOS>ATOM
      1 O3         31.2660    2.2580   34.3830 O.2       1 ZY3        -0.3878
      2 C13        30.3400    1.4400   34.5040 C.2       1 ZY3         0.1939
      3 C5         30.5460    0.2600   35.3830 C.ar      1 ZY3         0.0165
      4 C6         31.1570    0.3760   36.6080 C.ar      1 ZY3        -0.0444
      5 C7         31.3880   -0.7080   37.4360 C.ar      1 ZY3         0.0614
      6 C12        31.0100   -1.9770   37.0340 C.ar      1 ZY3        -0.0038
      7 C11        31.2450   -3.2520   37.8510 C.3       1 ZY3        -0.0247
      8 C10        32.5520   -3.1880   38.6940 C.3       1 ZY3        -0.0253
      9 C9         32.2450   -2.6070   40.0960 C.3       1 ZY3         0.0911
     10 S          31.4150   -1.1370   39.9940 S.o2      1 ZY3         0.0607
     11 O1         30.0240   -1.4260   39.8130 O.2       1 ZY3        -0.1500
     12 O2         31.7510   -0.3320   41.1610 O.2       1 ZY3        -0.1500
     13 N2         32.0220   -0.5140   38.7020 N.am      1 ZY3        -0.1867
     14 C8         33.2710    0.2200   38.8090 C.3       1 ZY3         0.0424
     15 C4         30.1270   -0.9900   34.9840 C.ar      1 ZY3        -0.0478
     16 C3         30.3660   -2.1060   35.8250 C.ar      1 ZY3         0.0299
     17 N1         29.9770   -3.3370   35.4210 N.pl3     1 ZY3        -0.3290
     18 C2         29.0700   -3.3960   34.2750 C.3       1 ZY3         0.0191
     19 C1         28.4930   -4.7260   34.0770 C.3       1 ZY3        -0.0459
     20 N3         29.2110    1.5080   33.7950 N.am      1 ZY3        -0.2797
     21 C14        29.0010    2.4690   32.7440 C.3       1 ZY3         0.0817
     22 C15        28.4020    1.7140   31.5500 C.3       1 ZY3         0.0065
     23 C16        29.0320    0.3740   31.2740 C.ar      1 ZY3        -0.0408
     24 C21        28.2270   -0.7800   31.1630 C.ar      1 ZY3        -0.0603
     25 C20        28.7870   -2.0100   30.8810 C.ar      1 ZY3        -0.0686
     26 C19        30.1730   -2.0970   30.7060 C.ar      1 ZY3        -0.0687
     27 C18        30.9740   -0.9330   30.7870 C.ar      1 ZY3        -0.0686
     28 C17        30.4190    0.2830   31.0780 C.ar      1 ZY3        -0.0603
     29 C22        28.1350    3.6020   33.2610 C.3       1 ZY3         0.1192
     30 O4         27.7040    4.4940   32.2150 O.3       1 ZY3        -0.3841
     31 C23        28.8890    4.4570   34.2930 C.3       1 ZY3        -0.0033
     32 N4         28.0250    5.6020   34.6590 N.4       1 ZY3         0.2408
     33 C24        28.5300    6.8940   35.1750 C.3       1 ZY3        -0.0023
     34 C25        29.6820    7.4430   34.3370 C.ar      1 ZY3        -0.0075
     35 C31        29.4600    7.9070   33.0470 C.ar      1 ZY3        -0.0272
     36 C29        30.5330    8.3670   32.2860 C.ar      1 ZY3         0.0842
     37 O5         30.3110    8.8190   31.0170 O.3       1 ZY3        -0.3230
     38 C30        28.9780    8.9470   30.5920 C.3       1 ZY3         0.0592
     39 C28        31.8110    8.3940   32.8070 C.ar      1 ZY3        -0.0401
     40 C27        32.0400    7.9450   34.0890 C.ar      1 ZY3        -0.0770
     41 C26        30.9850    7.4400   34.8540 C.ar      1 ZY3        -0.0664
     42 H1         31.4715    1.3588   36.9400 H         1 ZY3         0.0410
     43 H2         31.3121   -4.1058   37.1608 H         1 ZY3         0.0374
     44 H3         30.3931   -3.3967   38.5317 H         1 ZY3         0.0374
     45 H4         33.2839   -2.5441   38.1844 H         1 ZY3         0.0298
     46 H5         32.9670   -4.2010   38.8016 H         1 ZY3         0.0298
     47 H6         33.1927   -2.4452   40.6305 H         1 ZY3         0.0525
     48 H7         31.6279   -3.3271   40.6533 H         1 ZY3         0.0525
     49 H8         33.5631    0.5933   37.8164 H         1 ZY3         0.0514
     50 H9         34.0560   -0.4465   39.1956 H         1 ZY3         0.0514
     51 H10        33.1397    1.0690   39.4959 H         1 ZY3         0.0514
     52 H11        29.6189   -1.1193   34.0352 H         1 ZY3         0.0412
     53 H12        30.3033   -4.1903   35.8967 H         1 ZY3         0.1727
     54 H13        29.6289   -3.1170   33.3696 H         1 ZY3         0.0505
     55 H14        28.2520   -2.6785   34.4367 H         1 ZY3         0.0505
     56 H15        27.8227   -4.7087   33.2050 H         1 ZY3         0.0248
     57 H16        27.9228   -5.0153   34.9721 H         1 ZY3         0.0248
     58 H17        29.2997   -5.4538   33.9050 H         1 ZY3         0.0248
     59 H18        28.4772    0.8615   34.0036 H         1 ZY3         0.1849
     60 H19        29.9687    2.8930   32.4377 H         1 ZY3         0.0606
     61 H20        28.5214    2.3401   30.6535 H         1 ZY3         0.0449
     62 H21        27.3314    1.5555   31.7467 H         1 ZY3         0.0449
     63 H22        27.1548   -0.6995   31.3010 H         1 ZY3         0.0557
     64 H23        28.1641   -2.8931   30.7966 H         1 ZY3         0.0599
     65 H24        30.6339   -3.0580   30.5080 H         1 ZY3         0.0559
     66 H25        32.0420   -1.0060   30.6161 H         1 ZY3         0.0599
     67 H26        31.0430    1.1659   31.1563 H         1 ZY3         0.0557
     68 H27        27.2481    3.1601   33.7387 H         1 ZY3         0.0672
     69 H28        27.1972    4.0082   31.5750 H         1 ZY3         0.2101
     70 H29        29.8300    4.8240   33.8573 H         1 ZY3         0.0840
     71 H30        29.1090    3.8550   35.1869 H         1 ZY3         0.0840
     72 H31        27.3962    5.2537   35.3657 H         1 ZY3         0.2029
     73 H32        27.5034    5.8266   33.8262 H         1 ZY3         0.2029
     74 H33        28.8813    6.7495   36.2073 H         1 ZY3         0.0978
     75 H34        27.7073    7.6241   35.1664 H         1 ZY3         0.0978
     76 H35        28.4576    7.9113   32.6343 H         1 ZY3         0.0480
     77 H36        28.9573    9.3187   29.5569 H         1 ZY3         0.0577
     78 H37        28.4508    9.6564   31.2469 H         1 ZY3         0.0577
     79 H38        28.4822    7.9662   30.6394 H         1 ZY3         0.0577
     80 H39        32.6334    8.7681   32.2080 H         1 ZY3         0.0486
     81 H40        33.0402    7.9834   34.5052 H         1 ZY3         0.0572
     82 H41        31.1741    7.0464   35.8462 H         1 ZY3         0.0466
@<TRIPOS>BOND
     1    1    2 2  
     2    2    3 1  
     3    2   20 am 
     4    3    4 ar 
     5    3   15 ar 
     6    4    5 ar 
     7    5    6 ar 
     8    5   13 1  
     9    6    7 1  
    10    6   16 ar 
    11    7    8 1  
    12    8    9 1  
    13    9   10 1  
    14   10   11 2  
    15   10   12 2  
    16   10   13 am 
    17   13   14 1  
    18   15   16 ar 
    19   16   17 1  
    20   17   18 1  
    21   18   19 1  
    22   20   21 1  
    23   21   22 1  
    24   21   29 1  
    25   22   23 1  
    26   23   24 ar 
    27   23   28 ar 
    28   24   25 ar 
    29   25   26 ar 
    30   26   27 ar 
    31   27   28 ar 
    32   29   30 1  
    33   29   31 1  
    34   31   32 1  
    35   32   33 1  
    36   33   34 1  
    37   34   35 ar 
    38   34   41 ar 
    39   35   36 ar 
    40   36   37 1  
    41   36   39 ar 
    42   37   38 1  
    43   39   40 ar 
    44   40   41 ar 
    45    4   42 1  
    46    7   43 1  
    47    7   44 1  
    48    8   45 1  
    49    8   46 1  
    50    9   47 1  
    51    9   48 1  
    52   14   49 1  
    53   14   50 1  
    54   14   51 1  
    55   15   52 1  
    56   17   53 1  
    57   18   54 1  
    58   18   55 1  
    59   19   56 1  
    60   19   57 1  
    61   19   58 1  
    62   20   59 1  
    63   21   60 1  
    64   22   61 1  
    65   22   62 1  
    66   24   63 1  
    67   25   64 1  
    68   26   65 1  
    69   27   66 1  
    70   28   67 1  
    71   29   68 1  
    72   30   69 1  
    73   31   70 1  
    74   31   71 1  
    75   32   72 1  
    76   32   73 1  
    77   33   74 1  
    78   33   75 1  
    79   35   76 1  
    80   38   77 1  
    81   38   78 1  
    82   38   79 1  
    83   39   80 1  
    84   40   81 1  
    85   41   82 1  
@<TRIPOS>SUBSTRUCTURE
     1 ZY3         1

