### 
### Created by X-TOOL on Mon Sep 10 21:13:00 2018
### 

@<TRIPOS>MOLECULE
2wf4_ligand
   79    83     1     0     0
SMALL
GAST_HUCK


@<TRIPOS>ATOM
      1 C1         30.5640    1.4880   34.2700 C.2       1 ZY4         0.1934
      2 N2         29.3310    1.5830   33.7160 N.am      1 ZY4        -0.2772
      3 C3         29.0620    2.4570   32.5590 C.3       1 ZY4         0.1095
      4 C4         28.1930    3.6470   33.0360 C.3       1 ZY4         0.2314
      5 C5         28.3380    1.6470   31.4470 C.3       1 ZY4         0.0091
      6 C6         29.0240    4.6100   33.8730 C.3       1 ZY4         0.0242
      7 O7         31.4500    2.3370   34.0700 O.2       1 ZY4        -0.3882
      8 C8         30.7720    0.3180   35.1120 C.ar      1 ZY4         0.0161
      9 C9         31.3800    0.4790   36.3770 C.ar      1 ZY4        -0.0448
     10 C10        31.6190   -0.6390   37.2430 C.ar      1 ZY4         0.0622
     11 C11        31.2260   -1.9380   36.8000 C.ar      1 ZY4         0.0049
     12 C12        30.5970   -2.1000   35.4950 C.ar      1 ZY4         0.0538
     13 C13        30.3850   -0.9780   34.6800 C.ar      1 ZY4        -0.0430
     14 C14        29.0440    0.3350   31.1180 C.ar      1 ZY4        -0.0407
     15 C15        28.3090   -0.8790   31.1000 C.ar      1 ZY4        -0.0603
     16 C16        28.9500   -2.1120   30.7960 C.ar      1 ZY4        -0.0686
     17 C17        30.3370   -2.1440   30.5080 C.ar      1 ZY4        -0.0687
     18 C18        31.0870   -0.9430   30.5210 C.ar      1 ZY4        -0.0686
     19 C19        30.4490    0.2900   30.8230 C.ar      1 ZY4        -0.0603
     20 N20        28.3200    5.7790   34.3790 N.4       1 ZY4         0.2331
     21 O21        27.7530    4.3990   31.9350 O.3       1 ZY4        -0.3589
     22 C39        29.1070    6.7680   35.1280 C.3       1 ZY4        -0.0182
     23 C42        29.7680    6.1630   36.3840 C.3       1 ZY4         0.0138
     24 C43        30.5490    7.2260   37.1890 C.3       1 ZY4         0.0528
     25 O1         29.6780    8.3260   37.4940 O.3       1 ZY4        -0.3794
     26 C45        29.0730    8.9830   36.3680 C.3       1 ZY4         0.0528
     27 C46        28.2320    7.9630   35.5740 C.3       1 ZY4         0.0138
     28 C7         31.2990   -3.2950   37.3800 C.2       1 ZY4        -0.0474
     29 C57        30.7340   -4.1410   36.4260 C.2       1 ZY4         0.0145
     30 N1         30.3240   -3.4630   35.3290 N.pl3     1 ZY4        -0.2805
     31 N59        32.2340   -0.3880   38.4670 N.am      1 ZY4        -0.1821
     32 S60        31.7670   -1.2190   39.8040 S.o2      1 ZY4         0.0639
     33 C61        32.5100   -2.8290   39.6940 C.3       1 ZY4         0.0948
     34 C68        29.6800   -4.0710   34.1380 C.3       1 ZY4         0.0446
     35 C69        28.1460   -3.9230   34.0980 C.3       1 ZY4        -0.0391
     36 O79        30.3330   -1.3540   39.7620 O.2       1 ZY4        -0.1493
     37 O80        32.3320   -0.5510   40.9320 O.2       1 ZY4        -0.1493
     38 C20        31.8410   -3.8040   38.7220 C.3       1 ZY4        -0.0153
     39 O2         27.0700    3.1550   33.7220 O.3       1 ZY4        -0.3589
     40 C2         33.3380    0.5830   38.5600 C.3       1 ZY4         0.0452
     41 H1         28.5820    1.0450   34.1028 H         1 ZY4         0.1849
     42 H2         30.0127    2.8403   32.1600 H         1 ZY4         0.0634
     43 H3         28.2952    2.2614   30.5356 H         1 ZY4         0.0450
     44 H4         27.3160    1.4211   31.7853 H         1 ZY4         0.0450
     45 H5         29.8602    4.9625   33.2513 H         1 ZY4         0.0868
     46 H6         29.4180    4.0535   34.7362 H         1 ZY4         0.0868
     47 H7         31.6729    1.4712   36.7008 H         1 ZY4         0.0381
     48 H8         29.9201   -1.1020   33.7086 H         1 ZY4         0.0439
     49 H9         27.2477   -0.8665   31.3203 H         1 ZY4         0.0557
     50 H10        28.3750   -3.0309   30.7846 H         1 ZY4         0.0599
     51 H11        30.8227   -3.0855   30.2783 H         1 ZY4         0.0559
     52 H12        32.1481   -0.9643   30.3005 H         1 ZY4         0.0599
     53 H13        31.0285    1.2061   30.8309 H         1 ZY4         0.0557
     54 H14        27.5873    5.4508   34.9885 H         1 ZY4         0.2018
     55 H15        27.9123    6.2527   33.5882 H         1 ZY4         0.2018
     56 H16        27.2394    3.8447   31.3593 H         1 ZY4         0.2130
     57 H17        29.8996    7.1411   34.4628 H         1 ZY4         0.0852
     58 H18        30.4636    5.3695   36.0733 H         1 ZY4         0.0342
     59 H19        28.9853    5.7336   37.0267 H         1 ZY4         0.0342
     60 H20        31.4003    7.5861   36.5927 H         1 ZY4         0.0562
     61 H21        30.9188    6.7801   38.1241 H         1 ZY4         0.0562
     62 H22        29.8584    9.3966   35.7183 H         1 ZY4         0.0562
     63 H23        28.4241    9.7973   36.7228 H         1 ZY4         0.0562
     64 H24        27.4141    7.5948   36.2107 H         1 ZY4         0.0342
     65 H25        27.8113    8.4552   34.6848 H         1 ZY4         0.0342
     66 H26        30.6346   -5.2184   36.5492 H         1 ZY4         0.0750
     67 H27        32.4861   -3.2814   40.6964 H         1 ZY4         0.0539
     68 H28        33.5547   -2.6980   39.3756 H         1 ZY4         0.0539
     69 H29        29.9225   -5.1439   34.1259 H         1 ZY4         0.0591
     70 H30        30.0954   -3.5910   33.2396 H         1 ZY4         0.0591
     71 H31        27.7553   -4.3995   33.1868 H         1 ZY4         0.0255
     72 H32        27.8805   -2.8555   34.0962 H         1 ZY4         0.0255
     73 H33        27.7076   -4.4084   34.9824 H         1 ZY4         0.0255
     74 H34        32.5834   -4.5820   38.4907 H         1 ZY4         0.0368
     75 H35        30.9923   -4.2546   39.2574 H         1 ZY4         0.0368
     76 H36        26.5379    3.8836   34.0197 H         1 ZY4         0.2130
     77 H37        33.5092    1.0391   37.5738 H         1 ZY4         0.0522
     78 H38        34.2525    0.0681   38.8895 H         1 ZY4         0.0522
     79 H39        33.0767    1.3669   39.2861 H         1 ZY4         0.0522
@<TRIPOS>BOND
     1    1    2 am 
     2    1    7 2  
     3    1    8 1  
     4    2    3 1  
     5    3    4 1  
     6    3    5 1  
     7    4    6 1  
     8    4   21 1  
     9    4   39 1  
    10    5   14 1  
    11    6   20 1  
    12    8    9 ar 
    13    8   13 ar 
    14    9   10 ar 
    15   10   11 ar 
    16   10   31 1  
    17   11   12 ar 
    18   11   28 1  
    19   12   13 ar 
    20   12   30 1  
    21   14   15 ar 
    22   14   19 ar 
    23   15   16 ar 
    24   16   17 ar 
    25   17   18 ar 
    26   18   19 ar 
    27   20   22 1  
    28   22   23 1  
    29   22   27 1  
    30   23   24 1  
    31   24   25 1  
    32   25   26 1  
    33   26   27 1  
    34   28   29 2  
    35   28   38 1  
    36   29   30 1  
    37   30   34 1  
    38   31   32 am 
    39   31   40 1  
    40   32   33 1  
    41   32   36 2  
    42   32   37 2  
    43   33   38 1  
    44   34   35 1  
    45    2   41 1  
    46    3   42 1  
    47    5   43 1  
    48    5   44 1  
    49    6   45 1  
    50    6   46 1  
    51    9   47 1  
    52   13   48 1  
    53   15   49 1  
    54   16   50 1  
    55   17   51 1  
    56   18   52 1  
    57   19   53 1  
    58   20   54 1  
    59   20   55 1  
    60   21   56 1  
    61   22   57 1  
    62   23   58 1  
    63   23   59 1  
    64   24   60 1  
    65   24   61 1  
    66   26   62 1  
    67   26   63 1  
    68   27   64 1  
    69   27   65 1  
    70   29   66 1  
    71   33   67 1  
    72   33   68 1  
    73   34   69 1  
    74   34   70 1  
    75   35   71 1  
    76   35   72 1  
    77   35   73 1  
    78   38   74 1  
    79   38   75 1  
    80   39   76 1  
    81   40   77 1  
    82   40   78 1  
    83   40   79 1  
@<TRIPOS>SUBSTRUCTURE
     1 ZY4         1

