### 
### Created by X-TOOL on Mon Sep 10 21:13:00 2018
### 

@<TRIPOS>MOLECULE
2wgi_ligand
   45    46     1     0     0
SMALL
GAST_HUCK


@<TRIPOS>ATOM
      1 O8         -0.5780  -12.4150   61.6870 O.3       1 PNM        -0.3925
      2 C7          0.0270  -12.6080   60.5790 C.3       1 PNM         0.0733
      3 N4         -1.0130  -10.8380   58.9040 N.4       1 PNM         0.2532
      4 C3         -2.1510  -10.0590   59.3270 C.3       1 PNM         0.0458
      5 C11        -1.8360   -8.5900   59.4130 C.2       1 PNM         0.0859
      6 O13        -2.6710   -7.8400   59.9680 O.co2     1 PNM        -0.5642
      7 O12        -0.7450   -8.1840   58.9480 O.co2     1 PNM        -0.5642
      8 C2         -3.2830  -10.4560   58.3720 C.3       1 PNM         0.0706
      9 C10        -4.6540  -10.2490   59.0280 C.3       1 PNM        -0.0437
     10 C9         -3.1930   -9.7000   57.0430 C.3       1 PNM        -0.0437
     11 S1         -3.0390  -12.1990   58.0590 S.3       1 PNM        -0.0924
     12 C5         -1.3230  -12.1980   58.5340 C.3       1 PNM         0.0526
     13 C6         -0.9990  -13.1590   59.7080 C.3       1 PNM         0.1173
     14 N14        -2.2400  -13.4990   60.4350 N.am      1 PNM        -0.2737
     15 C15        -2.8580  -14.6800   60.3250 C.2       1 PNM         0.1880
     16 O16        -2.5880  -15.5050   59.4570 O.2       1 PNM        -0.3941
     17 C17        -3.9610  -14.9700   61.3220 C.3       1 PNM         0.0703
     18 C18        -5.2640  -14.4050   60.7880 C.ar      1 PNM        -0.0243
     19 C19        -5.6680  -14.6660   59.4720 C.ar      1 PNM        -0.0580
     20 C20        -6.8640  -14.1300   58.9820 C.ar      1 PNM        -0.0681
     21 C21        -7.6640  -13.3360   59.8100 C.ar      1 PNM        -0.0684
     22 C22        -7.2650  -13.0710   61.1230 C.ar      1 PNM        -0.0681
     23 C23        -6.0670  -13.6060   61.6090 C.ar      1 PNM        -0.0580
     24 H1         -1.2969  -11.8088   61.5525 H         1 PNM         0.2095
     25 H2          0.8560  -13.3199   60.7052 H         1 PNM         0.0582
     26 H3          0.4150  -11.6611   60.1754 H         1 PNM         0.0582
     27 H4         -0.3484  -10.8615   59.6615 H         1 PNM         0.2043
     28 H5         -0.5979  -10.3817   58.1068 H         1 PNM         0.2043
     29 H6         -2.4381  -10.3763   60.3403 H         1 PNM         0.1039
     30 H7         -5.4458  -10.5409   58.3225 H         1 PNM         0.0246
     31 H8         -4.7754   -9.1894   59.2974 H         1 PNM         0.0246
     32 H9         -4.7240  -10.8682   59.9344 H         1 PNM         0.0246
     33 H10        -2.2024   -9.8645   56.5940 H         1 PNM         0.0246
     34 H11        -3.3404   -8.6247   57.2221 H         1 PNM         0.0246
     35 H12        -3.9715  -10.0678   56.3584 H         1 PNM         0.0246
     36 H13        -0.7123  -12.4954   57.6688 H         1 PNM         0.0999
     37 H14        -0.5988  -14.0900   59.2803 H         1 PNM         0.0645
     38 H15        -2.6384  -12.8102   61.0407 H         1 PNM         0.1859
     39 H16        -3.7212  -14.4982   62.2863 H         1 PNM         0.0659
     40 H17        -4.0584  -16.0570   61.4598 H         1 PNM         0.0659
     41 H18        -5.0515  -15.2857   58.8309 H         1 PNM         0.0561
     42 H19        -7.1702  -14.3300   57.9616 H         1 PNM         0.0600
     43 H20        -8.5940  -12.9259   59.4332 H         1 PNM         0.0561
     44 H21        -7.8826  -12.4520   61.7637 H         1 PNM         0.0600
     45 H22        -5.7592  -13.4002   62.6278 H         1 PNM         0.0561
@<TRIPOS>BOND
     1    2    1 1  
     2   13    2 1  
     3    3    4 1  
     4   12    3 1  
     5    4    5 1  
     6    8    4 1  
     7    5    6 ar 
     8    5    7 ar 
     9    8    9 1  
    10    8   10 1  
    11   11    8 1  
    12   12   11 1  
    13   12   13 1  
    14   13   14 1  
    15   14   15 am 
    16   15   16 2  
    17   15   17 1  
    18   17   18 1  
    19   18   19 ar 
    20   18   23 ar 
    21   19   20 ar 
    22   20   21 ar 
    23   21   22 ar 
    24   22   23 ar 
    25    1   24 1  
    26    2   25 1  
    27    2   26 1  
    28    3   27 1  
    29    3   28 1  
    30    4   29 1  
    31    9   30 1  
    32    9   31 1  
    33    9   32 1  
    34   10   33 1  
    35   10   34 1  
    36   10   35 1  
    37   12   36 1  
    38   13   37 1  
    39   14   38 1  
    40   17   39 1  
    41   17   40 1  
    42   19   41 1  
    43   20   42 1  
    44   21   43 1  
    45   22   44 1  
    46   23   45 1  
@<TRIPOS>SUBSTRUCTURE
     1 PNM         1

