### 
### Created by X-TOOL on Mon Sep 10 21:13:01 2018
### 

@<TRIPOS>MOLECULE
2wgj_ligand
   53    56     1     0     0
SMALL
GAST_HUCK


@<TRIPOS>ATOM
      1 CL         18.3190   84.5690    3.5460 Cl        1 VGH        -0.0808
      2 C13        18.1880   83.5860    4.9680 C.ar      1 VGH         0.0403
      3 C3         17.7190   82.2880    4.7140 C.ar      1 VGH        -0.0561
      4 C2         17.5350   81.3810    5.7410 C.ar      1 VGH        -0.0339
      5 C12        17.8350   81.7940    7.0210 C.ar      1 VGH         0.1404
      6 F          17.6610   80.9190    8.0020 F         1 VGH        -0.1842
      7 C17        18.5060   84.0320    6.2790 C.ar      1 VGH         0.0160
      8 C18        18.3160   83.0790    7.3080 C.ar      1 VGH         0.0774
      9 CL2        18.6180   83.3970    8.9860 Cl        1 VGH        -0.0787
     10 C21        19.0330   85.4490    6.5390 C.3       1 VGH         0.1115
     11 C1         18.1170   86.2490    7.4610 C.3       1 VGH        -0.0242
     12 O27        20.3420   85.4420    7.1510 O.3       1 VGH        -0.3010
     13 C15        21.5270   85.1380    6.5080 C.ar      1 VGH         0.1362
     14 C4         21.7440   84.7620    5.1640 C.ar      1 VGH        -0.0252
     15 C19        22.6660   85.2200    7.3240 C.ar      1 VGH         0.1368
     16 N22        22.5410   85.5760    8.6720 N.pl3     1 VGH        -0.3267
     17 N23        23.9230   84.9750    6.8780 N.ar      1 VGH        -0.3009
     18 C5         24.0840   84.6250    5.5840 C.ar      1 VGH        -0.0161
     19 C14        23.0440   84.5010    4.6710 C.ar      1 VGH        -0.0311
     20 C16        23.3350   84.0870    3.3020 C.2       1 VGH        -0.0030
     21 C6         22.5200   83.6280    2.2370 C.2       1 VGH         0.0048
     22 C7         24.6060   84.0070    2.7650 C.2       1 VGH         0.0622
     23 N26        24.4970   83.5610    1.4840 N.pl3     1 VGH        -0.2005
     24 N24        23.2130   83.3190    1.1370 N.2       1 VGH        -0.2139
     25 C20        25.5950   83.3510    0.5360 C.3       1 VGH         0.0923
     26 C8         26.0300   81.8930    0.2920 C.3       1 VGH         0.0204
     27 C10        25.5280   81.2150   -0.9840 C.3       1 VGH        -0.0306
     28 N25        25.5020   82.1510   -2.1590 N.4       1 VGH         0.2271
     29 C11        24.8400   83.4750   -1.9280 C.3       1 VGH        -0.0306
     30 C9         25.5000   84.1910   -0.7510 C.3       1 VGH         0.0204
     31 H1         17.4972   81.9915    3.6952 H         1 VGH         0.0597
     32 H2         17.1676   80.3799    5.5462 H         1 VGH         0.0547
     33 H3         19.0978   85.9651    5.5698 H         1 VGH         0.0813
     34 H4         18.5382   87.2534    7.6148 H         1 VGH         0.0281
     35 H5         18.0320   85.7348    8.4297 H         1 VGH         0.0281
     36 H6         17.1206   86.3355    7.0030 H         1 VGH         0.0281
     37 H7         20.8956   84.6714    4.4954 H         1 VGH         0.0567
     38 H8         23.3784   85.6355    9.2687 H         1 VGH         0.1727
     39 H9         21.6116   85.7785    9.0671 H         1 VGH         0.1727
     40 H10        25.0909   84.4277    5.2343 H         1 VGH         0.0640
     41 H11        21.4372   83.5363    2.3081 H         1 VGH         0.0670
     42 H12        25.5335   84.2574    3.2779 H         1 VGH         0.1021
     43 H13        26.4591   83.7838    1.0614 H         1 VGH         0.0683
     44 H14        25.6758   81.2954    1.1449 H         1 VGH         0.0349
     45 H15        27.1295   81.8765    0.2642 H         1 VGH         0.0349
     46 H16        24.5085   80.8414   -0.8077 H         1 VGH         0.0815
     47 H17        26.1923   80.3706   -1.2200 H         1 VGH         0.0815
     48 H18        25.0144   81.6892   -2.9107 H         1 VGH         0.2013
     49 H19        26.4555   82.3267   -2.4348 H         1 VGH         0.2013
     50 H20        23.7744   83.3157   -1.7063 H         1 VGH         0.0815
     51 H21        24.9379   84.0939   -2.8321 H         1 VGH         0.0815
     52 H22        26.5191   84.4769   -1.0506 H         1 VGH         0.0349
     53 H23        24.9158   85.0960   -0.5282 H         1 VGH         0.0349
@<TRIPOS>BOND
     1    1    2 1  
     2    2    3 ar 
     3    2    7 ar 
     4    3    4 ar 
     5    4    5 ar 
     6    5    6 1  
     7    5    8 ar 
     8    7    8 ar 
     9    7   10 1  
    10    8    9 1  
    11   10   11 1  
    12   10   12 1  
    13   12   13 1  
    14   13   14 ar 
    15   13   15 ar 
    16   14   19 ar 
    17   15   16 1  
    18   15   17 ar 
    19   17   18 ar 
    20   18   19 ar 
    21   19   20 1  
    22   20   21 1  
    23   20   22 2  
    24   21   24 2  
    25   22   23 1  
    26   23   24 1  
    27   23   25 1  
    28   25   26 1  
    29   25   30 1  
    30   26   27 1  
    31   27   28 1  
    32   28   29 1  
    33   29   30 1  
    34    3   31 1  
    35    4   32 1  
    36   10   33 1  
    37   11   34 1  
    38   11   35 1  
    39   11   36 1  
    40   14   37 1  
    41   16   38 1  
    42   16   39 1  
    43   18   40 1  
    44   21   41 1  
    45   22   42 1  
    46   25   43 1  
    47   26   44 1  
    48   26   45 1  
    49   27   46 1  
    50   27   47 1  
    51   28   48 1  
    52   28   49 1  
    53   29   50 1  
    54   29   51 1  
    55   30   52 1  
    56   30   53 1  
@<TRIPOS>SUBSTRUCTURE
     1 VGH         1

