### 
### Created by X-TOOL on Mon Sep 10 21:13:01 2018
### 

@<TRIPOS>MOLECULE
2wgs_ligand
   47    50     1     0     0
SMALL
GAST_HUCK


@<TRIPOS>ATOM
      1 O1        -35.0140  -39.2490  -25.3770 O.2       1 1AZ        -0.4075
      2 C5        -35.5790  -38.5740  -24.4770 C.2       1 1AZ         0.2205
      3 N1        -36.8990  -38.7310  -24.2350 N.am      1 1AZ        -0.1613
      4 C4        -37.6990  -39.6800  -25.0310 C.3       1 1AZ         0.0922
      5 C3        -37.7850  -41.0490  -24.4040 C.ar      1 1AZ        -0.0155
      6 C2        -36.9830  -42.0680  -24.9020 C.ar      1 1AZ        -0.0436
      7 C1        -37.0760  -43.3320  -24.3240 C.ar      1 1AZ         0.0478
      8 CL1       -36.0650  -44.7010  -24.9190 Cl        1 1AZ        -0.0718
      9 C16       -38.6780  -41.2880  -23.3570 C.ar      1 1AZ        -0.0573
     10 C17       -38.7720  -42.5540  -22.7770 C.ar      1 1AZ        -0.0540
     11 C18       -37.9570  -43.5620  -23.2790 C.ar      1 1AZ         0.0469
     12 CL2       -38.0120  -45.2100  -22.6010 Cl        1 1AZ        -0.0764
     13 C6        -34.8500  -37.6450  -23.7120 C.2       1 1AZ         0.1462
     14 N2        -33.5480  -37.2640  -23.6970 N.pl3     1 1AZ        -0.2373
     15 C7        -32.4570  -37.7870  -24.5730 C.3       1 1AZ         0.0406
     16 C8        -33.3990  -36.3240  -22.7510 C.2       1 1AZ         0.2110
     17 N4        -34.5940  -36.1100  -22.1610 N.2       1 1AZ        -0.2877
     18 C13       -35.5180  -36.9090  -22.7260 C.2       1 1AZ         0.1164
     19 N5        -36.8370  -37.0760  -22.4950 N.am      1 1AZ        -0.2063
     20 C14       -37.5390  -36.3140  -21.4590 C.3       1 1AZ         0.0445
     21 C15       -37.5350  -37.9560  -23.2250 C.2       1 1AZ         0.3196
     22 O3        -38.7560  -38.0950  -22.9990 O.2       1 1AZ        -0.3872
     23 N3        -32.1400  -35.6370  -22.3770 N.pl3     1 1AZ        -0.2613
     24 C9        -31.7050  -34.6850  -23.3950 C.3       1 1AZ         0.0583
     25 C10       -30.2640  -34.3800  -22.9790 C.3       1 1AZ         0.0683
     26 O2        -30.2340  -33.8070  -21.6540 O.3       1 1AZ        -0.3757
     27 C11       -30.8260  -34.6260  -20.6420 C.3       1 1AZ         0.0683
     28 C12       -32.2480  -35.0000  -21.0630 C.3       1 1AZ         0.0583
     29 H1        -37.2392  -39.7782  -26.0254 H         1 1AZ         0.0740
     30 H2        -38.7175  -39.2780  -25.1360 H         1 1AZ         0.0740
     31 H3        -36.2994  -41.8835  -25.7228 H         1 1AZ         0.0563
     32 H4        -39.3042  -40.4823  -22.9913 H         1 1AZ         0.0560
     33 H5        -39.4590  -42.7452  -21.9606 H         1 1AZ         0.0606
     34 H6        -32.8663  -38.5484  -25.2533 H         1 1AZ         0.0559
     35 H7        -31.6703  -38.2371  -23.9497 H         1 1AZ         0.0559
     36 H8        -32.0311  -36.9608  -25.1611 H         1 1AZ         0.0559
     37 H9        -36.8298  -35.6410  -20.9549 H         1 1AZ         0.0549
     38 H10       -37.9720  -37.0079  -20.7234 H         1 1AZ         0.0549
     39 H11       -38.3422  -35.7210  -21.9208 H         1 1AZ         0.0549
     40 H12       -32.3235  -33.7756  -23.3774 H         1 1AZ         0.0548
     41 H13       -31.7412  -35.1337  -24.3986 H         1 1AZ         0.0548
     42 H14       -29.8238  -33.6675  -23.6921 H         1 1AZ         0.0580
     43 H15       -29.6801  -35.3122  -22.9842 H         1 1AZ         0.0580
     44 H16       -30.8577  -34.0717  -19.6924 H         1 1AZ         0.0580
     45 H17       -30.2284  -35.5405  -20.5130 H         1 1AZ         0.0580
     46 H18       -32.6874  -35.6996  -20.3367 H         1 1AZ         0.0548
     47 H19       -32.8742  -34.0981  -21.1285 H         1 1AZ         0.0548
@<TRIPOS>BOND
     1    1    2 2  
     2    2    3 am 
     3    2   13 1  
     4    3    4 1  
     5    3   21 am 
     6    4    5 1  
     7    5    6 ar 
     8    5    9 ar 
     9    6    7 ar 
    10    7    8 1  
    11    7   11 ar 
    12    9   10 ar 
    13   10   11 ar 
    14   11   12 1  
    15   13   14 1  
    16   13   18 2  
    17   14   15 1  
    18   14   16 1  
    19   16   17 2  
    20   16   23 1  
    21   17   18 1  
    22   18   19 1  
    23   19   20 1  
    24   19   21 am 
    25   21   22 2  
    26   23   24 1  
    27   23   28 1  
    28   24   25 1  
    29   25   26 1  
    30   26   27 1  
    31   27   28 1  
    32    4   29 1  
    33    4   30 1  
    34    6   31 1  
    35    9   32 1  
    36   10   33 1  
    37   15   34 1  
    38   15   35 1  
    39   15   36 1  
    40   20   37 1  
    41   20   38 1  
    42   20   39 1  
    43   24   40 1  
    44   24   41 1  
    45   25   42 1  
    46   25   43 1  
    47   27   44 1  
    48   27   45 1  
    49   28   46 1  
    50   28   47 1  
@<TRIPOS>SUBSTRUCTURE
     1 1AZ         1

