### 
### Created by X-TOOL on Mon Sep 10 21:13:01 2018
### 

@<TRIPOS>MOLECULE
2who_ligand
   41    44     1     0     0
SMALL
GAST_HUCK


@<TRIPOS>ATOM
      1 C14        23.4770   40.5870   79.4350 C.ar      1 VGI        -0.0260
      2 C15        24.2470   39.5840   78.8800 C.ar      1 VGI         0.0016
      3 BR1        23.7660   37.7450   79.1320 Br        1 VGI        -0.0535
      4 C16        25.3650   39.9500   78.1400 C.ar      1 VGI        -0.0659
      5 C17        25.6950   41.2900   77.9730 C.ar      1 VGI        -0.0707
      6 C18        24.9090   42.2940   78.5340 C.ar      1 VGI        -0.0329
      7 C13        23.7870   41.9320   79.2630 C.ar      1 VGI         0.0968
      8 N2         22.9260   42.8700   79.8680 N.am      1 VGI        -0.1358
      9 C9         21.8590   43.4690   79.1360 C.2       1 VGI         0.2441
     10 O1         21.6770   43.2340   77.9420 O.2       1 VGI        -0.3759
     11 C12        23.1050   43.1730   81.2220 C.2       1 VGI         0.2546
     12 O2         24.0320   42.6270   81.8120 O.2       1 VGI        -0.3688
     13 C8         22.2450   44.0870   81.8520 C.ar      1 VGI         0.0632
     14 C10        22.4040   44.4130   83.1940 C.ar      1 VGI        -0.0419
     15 C11        21.5360   45.3050   83.8130 C.ar      1 VGI        -0.0549
     16 C7         20.5040   45.9030   83.0860 C.ar      1 VGI        -0.0465
     17 C1         20.3300   45.5900   81.7340 C.ar      1 VGI         0.0197
     18 C2         21.1990   44.6800   81.1210 C.ar      1 VGI         0.0080
     19 C3         21.0150   44.3600   79.7710 C.ar      1 VGI         0.0511
     20 C4         19.9950   44.9420   79.0430 C.ar      1 VGI        -0.0548
     21 C5         19.1350   45.8430   79.6520 C.ar      1 VGI        -0.0357
     22 C6         19.2950   46.1660   80.9920 C.ar      1 VGI         0.0615
     23 N1         18.4540   47.0320   81.5230 N.pl3     1 VGI        -0.3111
     24 C19        17.0480   46.6750   81.7120 C.3       1 VGI         0.0508
     25 C20        16.1490   47.8320   81.2960 C.3       1 VGI         0.0644
     26 O3         14.8240   47.3310   81.1190 O.3       1 VGI        -0.3930
     27 H1         22.6059   40.3184   80.0216 H         1 VGI         0.0548
     28 H2         25.9852   39.1838   77.6891 H         1 VGI         0.0527
     29 H3         26.5750   41.5570   77.3990 H         1 VGI         0.0588
     30 H4         25.1697   43.3380   78.4030 H         1 VGI         0.0544
     31 H5         23.2121   43.9676   83.7629 H         1 VGI         0.0696
     32 H6         21.6605   45.5375   84.8644 H         1 VGI         0.0604
     33 H7         19.8385   46.6091   83.5693 H         1 VGI         0.0693
     34 H8         19.8671   44.6941   77.9955 H         1 VGI         0.0659
     35 H9         18.3345   46.2969   79.0791 H         1 VGI         0.0489
     36 H10        18.7887   47.9641   81.8060 H         1 VGI         0.1827
     37 H11        16.8721   46.4418   82.7725 H         1 VGI         0.0544
     38 H12        16.8118   45.7931   81.0985 H         1 VGI         0.0544
     39 H13        16.5122   48.2640   80.3518 H         1 VGI         0.0577
     40 H14        16.1525   48.6053   82.0783 H         1 VGI         0.0577
     41 H15        14.2500   48.0418   80.8589 H         1 VGI         0.2095
@<TRIPOS>BOND
     1    1    2 ar 
     2    1    7 ar 
     3    2    3 1  
     4    2    4 ar 
     5    4    5 ar 
     6    5    6 ar 
     7    6    7 ar 
     8    7    8 1  
     9    8    9 am 
    10    8   11 am 
    11    9   10 2  
    12    9   19 1  
    13   11   12 2  
    14   11   13 1  
    15   13   14 ar 
    16   13   18 ar 
    17   14   15 ar 
    18   15   16 ar 
    19   16   17 ar 
    20   17   18 ar 
    21   17   22 ar 
    22   18   19 ar 
    23   19   20 ar 
    24   20   21 ar 
    25   21   22 ar 
    26   22   23 1  
    27   23   24 1  
    28   24   25 1  
    29   25   26 1  
    30    1   27 1  
    31    4   28 1  
    32    5   29 1  
    33    6   30 1  
    34   14   31 1  
    35   15   32 1  
    36   16   33 1  
    37   20   34 1  
    38   21   35 1  
    39   23   36 1  
    40   24   37 1  
    41   24   38 1  
    42   25   39 1  
    43   25   40 1  
    44   26   41 1  
@<TRIPOS>SUBSTRUCTURE
     1 VGI         1

