### 
### Created by X-TOOL on Mon Sep 10 21:13:00 2018
### 

@<TRIPOS>MOLECULE
2whp_ligand
   33    34     1     0     0
SMALL
GAST_HUCK


@<TRIPOS>ATOM
      1 O3         38.2140   18.7180    9.4850 O.2       1 HI6        -0.2094
      2 C14        38.2310   19.7890   10.0720 C.2       1 HI6         0.4031
      3 N4         39.1910   20.0700   10.9530 N.am      1 HI6        -0.1963
      4 C11        37.1420   20.8180    9.8650 C.ar      1 HI6         0.1356
      5 C10        37.1480   21.9650   10.6540 C.ar      1 HI6         0.0036
      6 C9         36.1520   22.9160   10.4970 C.ar      1 HI6         0.0142
      7 N3         35.1770   22.7430    9.6000 N.ar      1 HI6        -0.3316
      8 C13        35.1360   21.6390    8.8260 C.ar      1 HI6         0.0142
      9 C12        36.1180   20.6480    8.9290 C.ar      1 HI6         0.0036
     10 C8         34.1400   23.7670    9.4620 C.3       1 HI6         0.1167
     11 O2         32.9780   23.0280    9.1060 O.3       1 HI6        -0.3444
     12 C7         31.7830   23.7950    9.0810 C.3       1 HI6         0.1313
     13 N2         30.9410   23.2940   10.1610 N.ar      1 HI6        -0.2458
     14 C2         30.2010   22.2040    9.9540 C.ar      1 HI6         0.1075
     15 C3         29.4050   21.7240   10.9850 C.ar      1 HI6         0.0730
     16 C4         29.3700   22.3750   12.2190 C.ar      1 HI6         0.0565
     17 C5         30.1420   23.5080   12.3970 C.ar      1 HI6         0.0730
     18 C6         30.9260   23.9400   11.3340 C.ar      1 HI6         0.1075
     19 H1         39.1929   20.9508   11.4265 H         1 HI6         0.3630
     20 H2         39.9093   19.4000   11.1404 H         1 HI6         0.3630
     21 H3         37.9301   22.1140   11.3897 H         1 HI6         0.0837
     22 H4         36.1642   23.8106   11.1091 H         1 HI6         0.0862
     23 H5         34.3289   21.5177    8.1125 H         1 HI6         0.0862
     24 H6         36.0855   19.7679    8.2970 H         1 HI6         0.0837
     25 H7         34.4031   24.4872    8.6733 H         1 HI6         0.0761
     26 H8         33.9886   24.3017   10.4113 H         1 HI6         0.0761
     27 H9         31.2731   23.6711    8.1142 H         1 HI6         0.0756
     28 H10        32.0119   24.8589    9.2412 H         1 HI6         0.0756
     29 H11        30.2208   21.7001    8.9944 H         1 HI6         0.1632
     30 H12        28.8047   20.8348   10.8301 H         1 HI6         0.1470
     31 H13        28.7485   21.9989   13.0236 H         1 HI6         0.0980
     32 H14        30.1359   24.0442   13.3391 H         1 HI6         0.1470
     33 H15        31.5419   24.8235   11.4576 H         1 HI6         0.1632
@<TRIPOS>BOND
     1    1    2 2  
     2    2    3 am 
     3    2    4 1  
     4    4    5 ar 
     5    4    9 ar 
     6    5    6 ar 
     7    6    7 ar 
     8    7    8 ar 
     9    7   10 1  
    10    8    9 ar 
    11   10   11 1  
    12   11   12 1  
    13   12   13 1  
    14   13   14 ar 
    15   13   18 ar 
    16   14   15 ar 
    17   15   16 ar 
    18   16   17 ar 
    19   17   18 ar 
    20    3   19 1  
    21    3   20 1  
    22    5   21 1  
    23    6   22 1  
    24    8   23 1  
    25    9   24 1  
    26   10   25 1  
    27   10   26 1  
    28   12   27 1  
    29   12   28 1  
    30   14   29 1  
    31   15   30 1  
    32   16   31 1  
    33   17   32 1  
    34   18   33 1  
@<TRIPOS>SUBSTRUCTURE
     1 HI6         1

