### 
### Created by X-TOOL on Mon Sep 10 21:13:02 2018
### 

@<TRIPOS>MOLECULE
2wi1_ligand
   26    26     1     0     0
SMALL
GAST_HUCK


@<TRIPOS>ATOM
      1 N2         28.8590   11.2400   23.5270 N.pl3     1 ZZ2        -0.3073
      2 C3         29.9340   10.8100   24.2300 C.ar      1 ZZ2         0.1654
      3 N3         29.7570   10.2490   25.4470 N.ar      1 ZZ2        -0.2395
      4 C4         30.8160    9.8140   26.1630 C.ar      1 ZZ2         0.1587
      5 C5         32.0970    9.9450   25.6420 C.ar      1 ZZ2         0.0043
      6 C2         32.2570   10.5230   24.3910 C.ar      1 ZZ2         0.0161
      7 C1         33.6340   10.6780   23.7990 C.3       1 ZZ2        -0.0160
      8 N1         31.1730   10.9460   23.7060 N.ar      1 ZZ2        -0.2719
      9 O1         30.6280    9.2470   27.3950 O.3       1 ZZ2        -0.2939
     10 C6         31.4410    8.1500   27.8070 C.3       1 ZZ2         0.0996
     11 C7         32.1620    7.5690   26.5960 C.3       1 ZZ2         0.0759
     12 O2         31.3850    6.5080   26.0440 O.3       1 ZZ2        -0.3802
     13 C8         31.2920    6.6040   24.6240 C.3       1 ZZ2         0.0366
     14 H1         27.9125   11.1393   23.9205 H         1 ZZ2         0.1824
     15 H2         28.9881   11.6677   22.5989 H         1 ZZ2         0.1824
     16 H3         32.9579    9.6011   26.2039 H         1 ZZ2         0.0522
     17 H4         33.5565   11.1535   22.8101 H         1 ZZ2         0.0438
     18 H5         34.1016    9.6879   23.6941 H         1 ZZ2         0.0438
     19 H6         34.2490   11.3058   24.4605 H         1 ZZ2         0.0438
     20 H7         30.8075    7.3750   28.2631 H         1 ZZ2         0.0648
     21 H8         32.1814    8.4981   28.5423 H         1 ZZ2         0.0648
     22 H9         33.1442    7.1818   26.9049 H         1 ZZ2         0.0587
     23 H10        32.2993    8.3551   25.8390 H         1 ZZ2         0.0587
     24 H11        30.6867    5.7701   24.2390 H         1 ZZ2         0.0524
     25 H12        32.3002    6.5578   24.1865 H         1 ZZ2         0.0524
     26 H13        30.8173    7.5581   24.3513 H         1 ZZ2         0.0524
@<TRIPOS>BOND
     1    1    2 1  
     2    2    3 ar 
     3    2    8 ar 
     4    3    4 ar 
     5    4    5 ar 
     6    4    9 1  
     7    5    6 ar 
     8    6    7 1  
     9    6    8 ar 
    10    9   10 1  
    11   10   11 1  
    12   11   12 1  
    13   12   13 1  
    14    1   14 1  
    15    1   15 1  
    16    5   16 1  
    17    7   17 1  
    18    7   18 1  
    19    7   19 1  
    20   10   20 1  
    21   10   21 1  
    22   11   22 1  
    23   11   23 1  
    24   13   24 1  
    25   13   25 1  
    26   13   26 1  
@<TRIPOS>SUBSTRUCTURE
     1 ZZ2         1

