### 
### Created by X-TOOL on Mon Sep 10 21:13:02 2018
### 

@<TRIPOS>MOLECULE
2wi2_ligand
   18    18     1     0     0
SMALL
GAST_HUCK


@<TRIPOS>ATOM
      1 N5         61.4660   11.3450   48.3580 N.pl3     1 ZZ3        -0.2999
      2 C2         62.4980   10.8030   49.0480 C.ar      1 ZZ3         0.1849
      3 N4         62.2610   10.1050   50.1800 N.ar      1 ZZ3        -0.2256
      4 N1         63.7640   10.9600   48.6050 N.ar      1 ZZ3        -0.2376
      5 C3         64.7920   10.4200   49.2930 C.ar      1 ZZ3         0.0901
      6 C8         66.2040   10.5950   48.7980 C.3       1 ZZ3         0.0039
      7 N3         64.5550    9.7220   50.4240 N.ar      1 ZZ3        -0.2463
      8 C4         63.2900    9.5650   50.8680 C.ar      1 ZZ3         0.1527
      9 S1         62.9920    8.6900   52.2880 S.3       1 ZZ3        -0.0562
     10 C6         64.4120    7.7290   52.6940 C.3       1 ZZ3         0.0035
     11 H1         60.5006   11.2249   48.6965 H         1 ZZ3         0.1863
     12 H2         61.6466   11.8773   47.4949 H         1 ZZ3         0.1863
     13 H3         66.1968   11.1872   47.8710 H         1 ZZ3         0.0484
     14 H4         66.6479    9.6083   48.5993 H         1 ZZ3         0.0484
     15 H5         66.7984   11.1173   49.5621 H         1 ZZ3         0.0484
     16 H6         64.2188    7.1608   53.6159 H         1 ZZ3         0.0376
     17 H7         65.2738    8.3950   52.8476 H         1 ZZ3         0.0376
     18 H8         64.6298    7.0312   51.8721 H         1 ZZ3         0.0376
@<TRIPOS>BOND
     1    1    2 1  
     2    2    3 ar 
     3    2    4 ar 
     4    3    8 ar 
     5    4    5 ar 
     6    5    6 1  
     7    5    7 ar 
     8    7    8 ar 
     9    8    9 1  
    10    9   10 1  
    11    1   11 1  
    12    1   12 1  
    13    6   13 1  
    14    6   14 1  
    15    6   15 1  
    16   10   16 1  
    17   10   17 1  
    18   10   18 1  
@<TRIPOS>SUBSTRUCTURE
     1 ZZ3         1

