### 
### Created by X-TOOL on Mon Sep 10 21:13:00 2018
### 

@<TRIPOS>MOLECULE
2wi3_ligand
   18    18     1     0     0
SMALL
GAST_HUCK


@<TRIPOS>ATOM
      1 N5         29.0380   10.7580   24.5430 N.pl3     1 ZZ3        -0.2999
      2 C2         30.2050   11.1050   23.9490 C.ar      1 ZZ3         0.1849
      3 N1         30.1940   11.8090   22.7970 N.ar      1 ZZ3        -0.2376
      4 C3         31.3570   12.1550   22.2050 C.ar      1 ZZ3         0.0901
      5 C8         31.3440   12.9400   20.9210 C.3       1 ZZ3         0.0039
      6 N4         31.3800   10.7470   24.5090 N.ar      1 ZZ3        -0.2256
      7 C4         32.5430   11.0920   23.9170 C.ar      1 ZZ3         0.1527
      8 N3         32.5320   11.7970   22.7660 N.ar      1 ZZ3        -0.2463
      9 S1         34.0180   10.6420   24.6210 S.3       1 ZZ3        -0.0562
     10 C6         35.2070   10.3470   23.3540 C.3       1 ZZ3         0.0035
     11 H1         28.1415   11.0311   24.1157 H         1 ZZ3         0.1863
     12 H2         29.0472   10.2210   25.4219 H         1 ZZ3         0.1863
     13 H3         30.3038   13.1363   20.6218 H         1 ZZ3         0.0484
     14 H4         31.8494   12.3625   20.1330 H         1 ZZ3         0.0484
     15 H5         31.8691   13.8950   21.0698 H         1 ZZ3         0.0484
     16 H6         36.1643   10.0550   23.8104 H         1 ZZ3         0.0376
     17 H7         35.3474   11.2636   22.7623 H         1 ZZ3         0.0376
     18 H8         34.8515    9.5383   22.6986 H         1 ZZ3         0.0376
@<TRIPOS>BOND
     1    1    2 1  
     2    2    3 ar 
     3    2    6 ar 
     4    3    4 ar 
     5    4    5 1  
     6    4    8 ar 
     7    6    7 ar 
     8    7    8 ar 
     9    7    9 1  
    10    9   10 1  
    11    1   11 1  
    12    1   12 1  
    13    5   13 1  
    14    5   14 1  
    15    5   15 1  
    16   10   16 1  
    17   10   17 1  
    18   10   18 1  
@<TRIPOS>SUBSTRUCTURE
     1 ZZ3         1

