### 
### Created by X-TOOL on Mon Sep 10 21:13:02 2018
### 

@<TRIPOS>MOLECULE
2wi4_ligand
   34    36     1     0     0
SMALL
GAST_HUCK


@<TRIPOS>ATOM
      1 CL1         6.3250   11.0900   22.6650 Cl        1 ZZ4        -0.0665
      2 C2          4.6490   11.0350   23.3060 C.ar      1 ZZ4         0.0454
      3 C1          4.0200    9.8040   23.4780 C.ar      1 ZZ4        -0.0426
      4 C5          2.7220    9.7200   23.9730 C.ar      1 ZZ4        -0.0461
      5 C3          3.9970   12.2220   23.6250 C.ar      1 ZZ4        -0.0287
      6 C4          2.7010   12.1900   24.1220 C.ar      1 ZZ4         0.0562
      7 CL2         1.8470   13.7130   24.5380 Cl        1 ZZ4        -0.0650
      8 C6          2.0320   10.8780   24.3050 C.ar      1 ZZ4         0.0226
      9 C7          0.6450   10.8050   24.8340 C.ar      1 ZZ4         0.0842
     10 N1         -0.3910   11.3010   24.1270 N.ar      1 ZZ4        -0.2438
     11 C9          0.3680   10.1870   26.1520 C.ar      1 ZZ4         0.1227
     12 C10        -0.9470   10.1490   26.5920 C.ar      1 ZZ4         0.0439
     13 N3         -1.9140   10.6660   25.8230 N.ar      1 ZZ4        -0.2474
     14 C8         -1.6500   11.2290   24.6190 C.ar      1 ZZ4         0.1924
     15 N2         -2.6740   11.7350   23.8880 N.pl3     1 ZZ4        -0.3005
     16 N4          1.4030    9.6560   26.9300 N.2       1 ZZ4        -0.1710
     17 N5          1.2450    8.5780   27.5220 N.2       1 ZZ4        -0.1783
     18 C13         2.2810    8.0480   28.3000 C.ar      1 ZZ4         0.0761
     19 C14         3.5650    8.5690   28.1940 C.ar      1 ZZ4        -0.0332
     20 C15         4.5940    8.0430   28.9670 C.ar      1 ZZ4        -0.0560
     21 C16         4.3390    6.9950   29.8440 C.ar      1 ZZ4        -0.0581
     22 C11         3.0550    6.4740   29.9490 C.ar      1 ZZ4        -0.0560
     23 C12         2.0260    7.0000   29.1770 C.ar      1 ZZ4        -0.0332
     24 H1          4.5514    8.8947   23.2215 H         1 ZZ4         0.0635
     25 H2          2.2506    8.7520   24.0991 H         1 ZZ4         0.0662
     26 H3          4.5008   13.1716   23.4855 H         1 ZZ4         0.0640
     27 H4         -1.1899    9.7045   27.5504 H         1 ZZ4         0.0953
     28 H5         -2.4885   12.1659   22.9711 H         1 ZZ4         0.1849
     29 H6         -3.6373   11.6884   24.2497 H         1 ZZ4         0.1849
     30 H7          3.7642    9.3851   27.5089 H         1 ZZ4         0.0668
     31 H8          5.5953    8.4502   28.8858 H         1 ZZ4         0.0628
     32 H9          5.1416    6.5843   30.4458 H         1 ZZ4         0.0648
     33 H10         2.8560    5.6571   30.6332 H         1 ZZ4         0.0628
     34 H11         1.0246    6.5931   29.2587 H         1 ZZ4         0.0668
@<TRIPOS>BOND
     1    1    2 1  
     2    2    3 ar 
     3    2    5 ar 
     4    3    4 ar 
     5    4    8 ar 
     6    5    6 ar 
     7    6    7 1  
     8    6    8 ar 
     9    8    9 1  
    10    9   10 ar 
    11    9   11 ar 
    12   10   14 ar 
    13   11   12 ar 
    14   11   16 1  
    15   12   13 ar 
    16   13   14 ar 
    17   14   15 1  
    18   16   17 2  
    19   17   18 1  
    20   18   19 ar 
    21   18   23 ar 
    22   19   20 ar 
    23   20   21 ar 
    24   21   22 ar 
    25   22   23 ar 
    26    3   24 1  
    27    4   25 1  
    28    5   26 1  
    29   12   27 1  
    30   15   28 1  
    31   15   29 1  
    32   19   30 1  
    33   20   31 1  
    34   21   32 1  
    35   22   33 1  
    36   23   34 1  
@<TRIPOS>SUBSTRUCTURE
     1 ZZ4         1

