### 
### Created by X-TOOL on Mon Sep 10 21:13:01 2018
### 

@<TRIPOS>MOLECULE
2wi5_ligand
   40    42     1     0     0
SMALL
GAST_HUCK


@<TRIPOS>ATOM
      1 N19        31.9090   11.8660   21.6460 N.1       1 ZZ5        -0.3443
      2 C14        31.6460   11.3750   22.6610 C.1       1 ZZ5         0.0879
      3 C6         31.3540   10.8300   23.7880 C.ar      1 ZZ5         0.1370
      4 C13        29.9940   10.9960   24.3770 C.ar      1 ZZ5         0.1356
      5 N18        29.0690   11.7290   23.7110 N.pl3     1 ZZ5        -0.3158
      6 N8         29.6630   10.4300   25.5650 N.ar      1 ZZ5        -0.2657
      7 C3         30.5440    9.6850   26.2810 C.ar      1 ZZ5         0.0981
      8 S7         30.1580    8.9680   27.7650 S.3       1 ZZ5        -0.0328
      9 C9         31.7160    8.2410   28.0130 C.2       1 ZZ5         0.1033
     10 C15        32.0050    7.4280   29.2280 C.2       1 ZZ5         0.1832
     11 N20        30.9910    7.0510   30.0050 N.am      1 ZZ5        -0.3067
     12 O21        33.1590    7.1260   29.4850 O.2       1 ZZ5        -0.4074
     13 C4         32.5890    8.5860   26.8570 C.2       1 ZZ5         0.0608
     14 N10        33.8720    8.1630   26.7600 N.pl3     1 ZZ5        -0.3389
     15 C1         31.9390    9.4370   25.8110 C.ar      1 ZZ5         0.0436
     16 C2         32.3650   10.0280   24.5190 C.ar      1 ZZ5         0.0225
     17 C5         33.7370    9.8250   23.9830 C.ar      1 ZZ5        -0.0134
     18 C12        34.6250   10.8930   23.9250 C.ar      1 ZZ5        -0.0556
     19 C17        35.9080   10.7040   23.4250 C.ar      1 ZZ5        -0.0269
     20 C11        34.1320    8.5680   23.5410 C.ar      1 ZZ5        -0.0556
     21 C16        35.4150    8.3790   23.0400 C.ar      1 ZZ5        -0.0269
     22 C22        36.3030    9.4470   22.9820 C.ar      1 ZZ5         0.0972
     23 O23        37.5670    9.2610   22.4890 O.3       1 ZZ5        -0.3143
     24 C24        38.2400   10.3310   21.8290 C.3       1 ZZ5         0.0691
     25 C25        39.6780   10.3870   22.2980 C.3       1 ZZ5        -0.0369
     26 H1         28.1261   11.8512   24.1071 H         1 ZZ5         0.1817
     27 H2         29.3088   12.1639   22.8087 H         1 ZZ5         0.1817
     28 H3         31.1652    6.5051   30.8245 H         1 ZZ5         0.1788
     29 H4         30.0555    7.3139   29.7688 H         1 ZZ5         0.1788
     30 H5         34.2792    7.5784   27.5039 H         1 ZZ5         0.1720
     31 H6         34.4405    8.4259   25.9424 H         1 ZZ5         0.1720
     32 H7         34.3167   11.8734   24.2698 H         1 ZZ5         0.0634
     33 H8         36.6005   11.5367   23.3805 H         1 ZZ5         0.0559
     34 H9         33.4398    7.7350   23.5869 H         1 ZZ5         0.0634
     35 H10        35.7230    7.3987   22.6946 H         1 ZZ5         0.0559
     36 H11        37.7395   11.2813   22.0666 H         1 ZZ5         0.0614
     37 H12        38.2150   10.1651   20.7419 H         1 ZZ5         0.0614
     38 H13        40.1977   11.2122   21.7892 H         1 ZZ5         0.0256
     39 H14        40.1785    9.4367   22.0605 H         1 ZZ5         0.0256
     40 H15        39.7029   10.5529   23.3851 H         1 ZZ5         0.0256
@<TRIPOS>BOND
     1    1    2 3  
     2    2    3 1  
     3    3    4 ar 
     4    3   16 ar 
     5    4    5 1  
     6    4    6 ar 
     7    6    7 ar 
     8    7    8 1  
     9    7   15 ar 
    10    8    9 1  
    11    9   10 1  
    12    9   13 2  
    13   10   11 am 
    14   10   12 2  
    15   13   14 1  
    16   13   15 1  
    17   15   16 ar 
    18   16   17 1  
    19   17   18 ar 
    20   17   20 ar 
    21   18   19 ar 
    22   19   22 ar 
    23   20   21 ar 
    24   21   22 ar 
    25   22   23 1  
    26   23   24 1  
    27   24   25 1  
    28    5   26 1  
    29    5   27 1  
    30   11   28 1  
    31   11   29 1  
    32   14   30 1  
    33   14   31 1  
    34   18   32 1  
    35   19   33 1  
    36   20   34 1  
    37   21   35 1  
    38   24   36 1  
    39   24   37 1  
    40   25   38 1  
    41   25   39 1  
    42   25   40 1  
@<TRIPOS>SUBSTRUCTURE
     1 ZZ5         1

