### 
### Created by X-TOOL on Mon Sep 10 21:13:02 2018
### 

@<TRIPOS>MOLECULE
2wi6_ligand
   35    37     1     0     0
SMALL
GAST_HUCK


@<TRIPOS>ATOM
      1 CL2        32.8790   13.3650   24.5910 Cl        1 ZZ6        -0.0656
      2 C21        33.9130   11.9440   24.2230 C.ar      1 ZZ6         0.0551
      3 C20        35.2100   12.1180   23.7590 C.ar      1 ZZ6        -0.0293
      4 C19        36.0030   11.0090   23.4770 C.ar      1 ZZ6         0.0448
      5 CL1        37.6780   11.2480   22.8790 Cl        1 ZZ6        -0.0670
      6 C18        35.5130    9.7170   23.6530 C.ar      1 ZZ6        -0.0432
      7 C17        34.2200    9.4910   24.1150 C.ar      1 ZZ6        -0.0471
      8 C11        33.3930   10.5670   24.4090 C.ar      1 ZZ6         0.0176
      9 C2         32.0090   10.3420   24.9040 C.ar      1 ZZ6         0.0560
     10 N1         30.9500   10.8790   24.2530 N.ar      1 ZZ6        -0.2573
     11 C4         29.6670   10.7020   24.6670 C.ar      1 ZZ6         0.1779
     12 N10        28.6650   11.2740   23.9580 N.pl3     1 ZZ6        -0.3053
     13 N3         29.3560    9.9710   25.7670 N.ar      1 ZZ6        -0.2466
     14 C5         30.3460    9.3940   26.4840 C.ar      1 ZZ6         0.1115
     15 S9         30.1900    8.4560   27.8650 S.3       1 ZZ6        -0.0024
     16 C6         31.7650    9.5260   26.1190 C.ar      1 ZZ6         0.0293
     17 C7         32.6570    8.8270   27.0260 C.2       1 ZZ6        -0.0314
     18 C8         31.9080    8.1950   28.0340 C.2       1 ZZ6         0.1070
     19 C12        32.2960    7.3580   29.2040 C.2       1 ZZ6         0.2129
     20 O13        33.4550    6.9970   29.3230 O.2       1 ZZ6        -0.3873
     21 N14        31.3630    7.0240   30.0910 N.am      1 ZZ6        -0.2869
     22 C15        31.6350    6.0830   31.1600 C.3       1 ZZ6         0.0272
     23 C16        31.6120    6.7470   32.5190 C.3       1 ZZ6        -0.0450
     24 H1         35.6051   13.1173   23.6163 H         1 ZZ6         0.0639
     25 H2         36.1515    8.8710   23.4256 H         1 ZZ6         0.0634
     26 H3         33.8591    8.4771   24.2451 H         1 ZZ6         0.0657
     27 H4         28.8808   11.8326   23.1200 H         1 ZZ6         0.1826
     28 H5         27.6870   11.1504   24.2567 H         1 ZZ6         0.1826
     29 H6         33.7421    8.7967   26.9389 H         1 ZZ6         0.0552
     30 H7         30.4526    7.4314   30.0190 H         1 ZZ6         0.1838
     31 H8         32.6285    5.6393   30.9984 H         1 ZZ6         0.0516
     32 H9         30.8719    5.2911   31.1388 H         1 ZZ6         0.0516
     33 H10        31.8226    5.9980   33.2966 H         1 ZZ6         0.0249
     34 H11        30.6200    7.1887   32.6946 H         1 ZZ6         0.0249
     35 H12        32.3766    7.5370   32.5541 H         1 ZZ6         0.0249
@<TRIPOS>BOND
     1    1    2 1  
     2    2    3 ar 
     3    2    8 ar 
     4    3    4 ar 
     5    4    5 1  
     6    4    6 ar 
     7    6    7 ar 
     8    7    8 ar 
     9    8    9 1  
    10    9   10 ar 
    11    9   16 ar 
    12   10   11 ar 
    13   11   12 1  
    14   11   13 ar 
    15   13   14 ar 
    16   14   15 1  
    17   14   16 ar 
    18   15   18 1  
    19   16   17 1  
    20   17   18 2  
    21   18   19 1  
    22   19   20 2  
    23   19   21 am 
    24   21   22 1  
    25   22   23 1  
    26    3   24 1  
    27    6   25 1  
    28    7   26 1  
    29   12   27 1  
    30   12   28 1  
    31   17   29 1  
    32   21   30 1  
    33   22   31 1  
    34   22   32 1  
    35   23   33 1  
    36   23   34 1  
    37   23   35 1  
@<TRIPOS>SUBSTRUCTURE
     1 ZZ6         1

