### 
### Created by X-TOOL on Mon Sep 10 21:13:01 2018
### 

@<TRIPOS>MOLECULE
2wi7_ligand
   55    58     1     0     0
SMALL
GAST_HUCK


@<TRIPOS>ATOM
      1 O13         2.0590    7.2400   28.9490 O.2       1 2KL        -0.3872
      2 C12         1.0510    7.8850   29.2430 C.2       1 2KL         0.2129
      3 N14         0.4890    7.8520   30.4580 N.am      1 2KL        -0.2869
      4 C15         1.1850    7.3050   31.6140 C.3       1 2KL         0.0272
      5 C16         0.7380    5.8830   31.9100 C.3       1 2KL        -0.0450
      6 C8          0.5000    8.7030   28.1290 C.2       1 2KL         0.1070
      7 S7         -1.2130    9.1500   28.0880 S.3       1 2KL        -0.0023
      8 C9          1.2360    9.1630   27.0410 C.2       1 2KL        -0.0314
      9 C5          0.3500    9.8830   26.1570 C.ar      1 2KL         0.0291
     10 C6         -1.0460    9.9550   26.6150 C.ar      1 2KL         0.1116
     11 N3         -1.9840   10.5990   25.8930 N.ar      1 2KL        -0.2465
     12 C2         -1.6120   11.1800   24.7230 C.ar      1 2KL         0.1780
     13 N11        -2.5630   11.8080   23.9950 N.pl3     1 2KL        -0.3053
     14 N1         -0.3390   11.1480   24.2480 N.ar      1 2KL        -0.2574
     15 C4          0.6450   10.5320   24.8900 C.ar      1 2KL         0.0534
     16 C10         2.0470   10.4780   24.3850 C.ar      1 2KL         0.0087
     17 C17         2.6530    9.2510   24.0890 C.ar      1 2KL        -0.0186
     18 C21         2.8310   11.7270   24.2480 C.ar      1 2KL         0.0436
     19 CL1         2.1430   13.3140   24.6450 Cl        1 2KL        -0.0755
     20 C20         4.1180   11.7140   23.8160 C.ar      1 2KL        -0.0376
     21 C19         4.6690   10.5210   23.5120 C.ar      1 2KL         0.0728
     22 CL2         6.3200   10.5950   22.9300 Cl        1 2KL        -0.0747
     23 C18         3.9650    9.2440   23.6360 C.ar      1 2KL         0.1102
     24 O24         4.6230    8.0960   23.2690 O.3       1 2KL        -0.3109
     25 C25         3.9300    6.9030   22.8830 C.3       1 2KL         0.1104
     26 C26         4.9160    5.7480   22.7220 C.3       1 2KL        -0.0034
     27 N27         5.1070    5.1180   24.0350 N.4       1 2KL         0.2371
     28 C28         5.0340    3.6520   24.1870 C.3       1 2KL        -0.0316
     29 C31         5.3820    5.8810   25.2640 C.3       1 2KL        -0.0316
     30 C30         5.1010    4.8430   26.3650 C.3       1 2KL        -0.0077
     31 C29         4.9900    3.4550   25.7190 C.3       1 2KL        -0.0077
     32 H1         -0.4360    8.2137   30.5748 H         1 2KL         0.1838
     33 H2          0.9741    7.9359   32.4901 H         1 2KL         0.0516
     34 H3          2.2666    7.3055   31.4136 H         1 2KL         0.0516
     35 H4          1.2826    5.5025   32.7867 H         1 2KL         0.0249
     36 H5          0.9502    5.2434   31.0406 H         1 2KL         0.0249
     37 H6         -0.3423    5.8738   32.1170 H         1 2KL         0.0249
     38 H7          2.3020    9.0061   26.8828 H         1 2KL         0.0552
     39 H8         -3.5338   11.8436   24.3372 H         1 2KL         0.1826
     40 H9         -2.3165   12.2508   23.0983 H         1 2KL         0.1826
     41 H10         2.1070    8.3226   24.2115 H         1 2KL         0.0577
     42 H11         4.6846   12.6330   23.7185 H         1 2KL         0.0612
     43 H12         3.4140    7.0759   21.9271 H         1 2KL         0.0668
     44 H13         3.1919    6.6452   23.6568 H         1 2KL         0.0668
     45 H14         5.8780    6.1294   22.3491 H         1 2KL         0.0841
     46 H15         4.5132    5.0115   22.0112 H         1 2KL         0.0841
     47 H16         4.1163    5.1976   24.2027 H         1 2KL         0.2034
     48 H17         5.9202    3.1662   23.7526 H         1 2KL         0.0814
     49 H18         4.1263    3.2513   23.7120 H         1 2KL         0.0814
     50 H19         4.7107    6.7478   25.3533 H         1 2KL         0.0814
     51 H20         6.4273    6.2220   25.2956 H         1 2KL         0.0814
     52 H21         4.1579    5.0902   26.8743 H         1 2KL         0.0319
     53 H22         5.9238    4.8463   27.0950 H         1 2KL         0.0319
     54 H23         5.8305    2.8225   26.0408 H         1 2KL         0.0319
     55 H24         4.0414    2.9801   26.0097 H         1 2KL         0.0319
@<TRIPOS>BOND
     1    1    2 2  
     2    2    3 am 
     3    2    6 1  
     4    3    4 1  
     5    4    5 1  
     6    6    7 1  
     7    6    8 2  
     8    7   10 1  
     9    8    9 1  
    10    9   10 ar 
    11    9   15 ar 
    12   10   11 ar 
    13   11   12 ar 
    14   12   13 1  
    15   12   14 ar 
    16   14   15 ar 
    17   15   16 1  
    18   16   17 ar 
    19   16   18 ar 
    20   17   23 ar 
    21   18   19 1  
    22   18   20 ar 
    23   20   21 ar 
    24   21   22 1  
    25   21   23 ar 
    26   23   24 1  
    27   24   25 1  
    28   25   26 1  
    29   26   27 1  
    30   27   28 1  
    31   27   29 1  
    32   28   31 1  
    33   29   30 1  
    34   30   31 1  
    35    3   32 1  
    36    4   33 1  
    37    4   34 1  
    38    5   35 1  
    39    5   36 1  
    40    5   37 1  
    41    8   38 1  
    42   13   39 1  
    43   13   40 1  
    44   17   41 1  
    45   20   42 1  
    46   25   43 1  
    47   25   44 1  
    48   26   45 1  
    49   26   46 1  
    50   27   47 1  
    51   28   48 1  
    52   28   49 1  
    53   29   50 1  
    54   29   51 1  
    55   30   52 1  
    56   30   53 1  
    57   31   54 1  
    58   31   55 1  
@<TRIPOS>SUBSTRUCTURE
     1 2KL         1

