### 
### Created by X-TOOL on Mon Sep 10 21:13:01 2018
### 

@<TRIPOS>MOLECULE
2wih_ligand
   67    71     1     0     0
SMALL
GAST_HUCK


@<TRIPOS>ATOM
      1 O1        -15.9130  200.9020  114.1660 O.2       1 P48        -0.3813
      2 C2        -15.2110  201.6130  114.8390 C.2       1 P48         0.2207
      3 N3        -15.3640  201.8670  116.1430 N.am      1 P48        -0.2877
      4 C4        -16.3810  201.3650  117.0520 C.3       1 P48         0.0192
      5 C5        -14.0830  202.2570  114.1740 C.2       1 P48         0.1371
      6 N6        -12.9810  202.5980  114.8120 N.2       1 P48        -0.1529
      7 N7        -12.1130  203.1850  113.9230 N.pl3     1 P48        -0.1562
      8 C8        -10.8340  203.6060  114.5430 C.3       1 P48         0.0733
      9 C9        -12.6140  203.2340  112.6960 C.2       1 P48         0.1565
     10 C10       -13.9670  202.6330  112.7350 C.2       1 P48         0.0012
     11 C11       -12.0410  203.8020  111.4510 C.ar      1 P48         0.1218
     12 C12       -12.8610  203.8550  110.3050 C.ar      1 P48         0.0128
     13 C13       -14.3240  203.3730  110.2980 C.3       1 P48        -0.0386
     14 C14       -14.8330  202.5140  111.4660 C.3       1 P48        -0.0500
     15 C15       -16.3020  202.8570  111.7020 C.3       1 P48        -0.0955
     16 C16       -14.7320  201.0740  111.0440 C.3       1 P48        -0.0955
     17 N17       -10.7650  204.2700  111.4250 N.ar      1 P48        -0.2366
     18 C18       -10.2070  204.8070  110.3170 C.ar      1 P48         0.2130
     19 N19       -10.9730  204.8600  109.1750 N.ar      1 P48        -0.2451
     20 C20       -12.2690  204.4110  109.1540 C.ar      1 P48         0.0300
     21 N21        -8.9410  205.2890  110.3210 N.pl3     1 P48        -0.2499
     22 C22        -8.0090  205.3720  111.3390 C.ar      1 P48         0.0519
     23 C23        -8.3700  205.6860  112.6930 C.ar      1 P48        -0.0493
     24 C24        -7.4070  205.7870  113.7010 C.ar      1 P48        -0.0530
     25 C25        -6.0400  205.5790  113.3840 C.ar      1 P48         0.0295
     26 C26        -5.6540  205.2630  112.0330 C.ar      1 P48        -0.0530
     27 C27        -6.6360  205.1610  111.0230 C.ar      1 P48        -0.0493
     28 N28        -5.0560  205.6870  114.3790 N.pl3     1 P48        -0.3046
     29 C29        -4.9830  206.8790  115.2350 C.3       1 P48         0.0649
     30 C30        -5.0720  206.2830  116.6340 C.3       1 P48        -0.0123
     31 N31        -4.0110  205.2680  116.6620 N.4       1 P48         0.2358
     32 C32        -2.7900  205.4890  117.4260 C.3       1 P48        -0.0430
     33 C33        -4.1570  204.0360  115.8970 C.3       1 P48        -0.0123
     34 C34        -4.0870  204.5650  114.4650 C.3       1 P48         0.0649
     35 H1        -14.6888  202.4845  116.5464 H         1 P48         0.1843
     36 H2        -16.2095  201.7768  118.0575 H         1 P48         0.0483
     37 H3        -16.3278  200.2670  117.0915 H         1 P48         0.0483
     38 H4        -17.3753  201.6713  116.6950 H         1 P48         0.0483
     39 H5        -10.1899  204.0656  113.7788 H         1 P48         0.0624
     40 H6        -10.3271  202.7282  114.9701 H         1 P48         0.0624
     41 H7        -11.0359  204.3367  115.3401 H         1 P48         0.0624
     42 H8        -14.4644  202.7836  109.3799 H         1 P48         0.0329
     43 H9        -14.9585  204.2706  110.2582 H         1 P48         0.0329
     44 H10       -16.6901  202.2533  112.5356 H         1 P48         0.0095
     45 H11       -16.8801  202.6397  110.7917 H         1 P48         0.0095
     46 H12       -16.3941  203.9250  111.9488 H         1 P48         0.0095
     47 H13       -13.6768  200.8158  110.8711 H         1 P48         0.0095
     48 H14       -15.3032  200.9229  110.1162 H         1 P48         0.0095
     49 H15       -15.1420  200.4301  111.8361 H         1 P48         0.0095
     50 H16       -12.8456  204.4851  108.2390 H         1 P48         0.0874
     51 H17        -8.6187  205.6550  109.4137 H         1 P48         0.2129
     52 H18        -9.4132  205.8484  112.9389 H         1 P48         0.0505
     53 H19        -7.7024  206.0224  114.7171 H         1 P48         0.0489
     54 H20        -4.6094  205.1034  111.7912 H         1 P48         0.0489
     55 H21        -6.3447  204.9220  110.0066 H         1 P48         0.0505
     56 H22        -5.8230  207.5616  115.0391 H         1 P48         0.0562
     57 H23        -4.0334  207.4151  115.0906 H         1 P48         0.0562
     58 H24        -6.0570  205.8222  116.7997 H         1 P48         0.0834
     59 H25        -4.8945  207.0539  117.3984 H         1 P48         0.0834
     60 H26        -4.4423  204.8333  117.4626 H         1 P48         0.2032
     61 H27        -2.1274  204.6176  117.3184 H         1 P48         0.0778
     62 H28        -3.0420  205.6291  118.4875 H         1 P48         0.0778
     63 H29        -2.2789  206.3870  117.0488 H         1 P48         0.0778
     64 H30        -5.1217  203.5478  116.0995 H         1 P48         0.0834
     65 H31        -3.3384  203.3318  116.1069 H         1 P48         0.0834
     66 H32        -3.0711  204.9230  114.2420 H         1 P48         0.0562
     67 H33        -4.3607  203.7718  113.7537 H         1 P48         0.0562
@<TRIPOS>BOND
     1    1    2 2  
     2    2    3 am 
     3    2    5 1  
     4    3    4 1  
     5    5    6 2  
     6    5   10 1  
     7    6    7 1  
     8    7    8 1  
     9    7    9 1  
    10    9   10 2  
    11    9   11 1  
    12   10   14 1  
    13   11   12 ar 
    14   11   17 ar 
    15   12   13 1  
    16   12   20 ar 
    17   13   14 1  
    18   14   15 1  
    19   14   16 1  
    20   17   18 ar 
    21   18   19 ar 
    22   18   21 1  
    23   19   20 ar 
    24   21   22 1  
    25   22   23 ar 
    26   22   27 ar 
    27   23   24 ar 
    28   24   25 ar 
    29   25   26 ar 
    30   25   28 1  
    31   26   27 ar 
    32   28   29 1  
    33   28   34 1  
    34   29   30 1  
    35   30   31 1  
    36   31   32 1  
    37   31   33 1  
    38   33   34 1  
    39    3   35 1  
    40    4   36 1  
    41    4   37 1  
    42    4   38 1  
    43    8   39 1  
    44    8   40 1  
    45    8   41 1  
    46   13   42 1  
    47   13   43 1  
    48   15   44 1  
    49   15   45 1  
    50   15   46 1  
    51   16   47 1  
    52   16   48 1  
    53   16   49 1  
    54   20   50 1  
    55   21   51 1  
    56   23   52 1  
    57   24   53 1  
    58   26   54 1  
    59   27   55 1  
    60   29   56 1  
    61   29   57 1  
    62   30   58 1  
    63   30   59 1  
    64   31   60 1  
    65   32   61 1  
    66   32   62 1  
    67   32   63 1  
    68   33   64 1  
    69   33   65 1  
    70   34   66 1  
    71   34   67 1  
@<TRIPOS>SUBSTRUCTURE
     1 P48         1

