### 
### Created by X-TOOL on Mon Sep 10 21:13:00 2018
### 

@<TRIPOS>MOLECULE
2wj1_ligand
   49    51     1     0     0
SMALL
GAST_HUCK


@<TRIPOS>ATOM
      1 CAI         1.8240  -40.1690   13.7180 C.ar      1 S99        -0.0603
      2 CAE         0.9500  -40.2330   14.8150 C.ar      1 S99        -0.0686
      3 CAC         1.4310  -40.1330   16.1160 C.ar      1 S99        -0.0687
      4 CAF         2.8050  -39.9550   16.3460 C.ar      1 S99        -0.0686
      5 CAJ         3.6970  -39.9010   15.2750 C.ar      1 S99        -0.0603
      6 CAV         3.2020  -40.0090   13.9590 C.ar      1 S99        -0.0430
      7 CAQ         4.2130  -39.9180   12.7950 C.3       1 S99        -0.0192
      8 CAO         3.5690  -39.8140   11.3870 C.3       1 S99        -0.0433
      9 CAM         4.7170  -39.6620   10.3570 C.3       1 S99        -0.0513
     10 CAN         4.2140  -39.5270    8.9170 C.3       1 S99        -0.0527
     11 CAP         5.3550  -38.9560    8.0400 C.3       1 S99        -0.0482
     12 CAR         5.2380  -37.4110    7.9600 C.3       1 S99        -0.0088
     13 CAZ         6.3420  -36.8060    7.0790 C.3       1 S99         0.1442
     14 OAA         7.5920  -37.1470    7.6100 O.3       1 S99        -0.3703
     15 CAY         6.2500  -35.2840    7.0870 C.2       1 S99         0.2114
     16 NAT         5.3850  -34.5350    7.7660 N.2       1 S99        -0.3047
     17 OAU         7.1150  -34.4780    6.4090 O.3       1 S99        -0.2198
     18 CAL         6.7040  -33.1850    6.6730 C.2       1 S99         0.1143
     19 CAX         5.6540  -33.2390    7.4930 C.2       1 S99         0.0490
     20 CAW         4.9710  -32.1410    8.0100 C.ar      1 S99         0.0416
     21 CAK         3.7480  -32.3270    8.6640 C.ar      1 S99        -0.0344
     22 CAG         3.0660  -31.2190    9.2010 C.ar      1 S99        -0.0476
     23 CAD         3.6610  -29.9590    9.0750 C.ar      1 S99        -0.0395
     24 CAH         4.8990  -29.8250    8.4320 C.ar      1 S99         0.0033
     25 NAS         5.5070  -30.9010    7.9360 N.ar      1 S99        -0.3016
     26 H1          1.4452  -40.2414   12.7049 H         1 S99         0.0557
     27 H2         -0.1129  -40.3620   14.6457 H         1 S99         0.0599
     28 H3          0.7449  -40.1925   16.9532 H         1 S99         0.0559
     29 H4          3.1741  -39.8591   17.3607 H         1 S99         0.0599
     30 H5          4.7592  -39.7774   15.4524 H         1 S99         0.0557
     31 H6          4.8445  -40.8184   12.8178 H         1 S99         0.0426
     32 H7          4.8387  -39.0271   12.9528 H         1 S99         0.0426
     33 H8          2.9058  -38.9376   11.3416 H         1 S99         0.0287
     34 H9          2.9896  -40.7238   11.1713 H         1 S99         0.0287
     35 H10         5.3647  -40.5488   10.4204 H         1 S99         0.0267
     36 H11         5.2991  -38.7638   10.6107 H         1 S99         0.0267
     37 H12         3.3507  -38.8458    8.8895 H         1 S99         0.0265
     38 H13         3.9142  -40.5145    8.5362 H         1 S99         0.0265
     39 H14         5.2836  -39.3799    7.0275 H         1 S99         0.0268
     40 H15         6.3251  -39.2257    8.4829 H         1 S99         0.0268
     41 H16         5.3215  -36.9935    8.9742 H         1 S99         0.0320
     42 H17         4.2580  -37.1485    7.5350 H         1 S99         0.0320
     43 H18         6.2465  -37.1855    6.0510 H         1 S99         0.0858
     44 H19         7.6798  -38.0927    7.6281 H         1 S99         0.2141
     45 H20         7.1596  -32.2778    6.2789 H         1 S99         0.1067
     46 H21         3.3270  -33.3216    8.7568 H         1 S99         0.0671
     47 H22         2.1094  -31.3382    9.6968 H         1 S99         0.0720
     48 H23         3.1629  -29.0837    9.4760 H         1 S99         0.0665
     49 H24         5.3603  -28.8485    8.3387 H         1 S99         0.0810
@<TRIPOS>BOND
     1    1    2 ar 
     2    1    6 ar 
     3    2    3 ar 
     4    3    4 ar 
     5    4    5 ar 
     6    5    6 ar 
     7    6    7 1  
     8    7    8 1  
     9    8    9 1  
    10    9   10 1  
    11   10   11 1  
    12   11   12 1  
    13   12   13 1  
    14   13   14 1  
    15   13   15 1  
    16   15   16 2  
    17   15   17 1  
    18   16   19 1  
    19   17   18 1  
    20   18   19 2  
    21   19   20 1  
    22   20   21 ar 
    23   20   25 ar 
    24   21   22 ar 
    25   22   23 ar 
    26   23   24 ar 
    27   24   25 ar 
    28    1   26 1  
    29    2   27 1  
    30    3   28 1  
    31    4   29 1  
    32    5   30 1  
    33    7   31 1  
    34    7   32 1  
    35    8   33 1  
    36    8   34 1  
    37    9   35 1  
    38    9   36 1  
    39   10   37 1  
    40   10   38 1  
    41   11   39 1  
    42   11   40 1  
    43   12   41 1  
    44   12   42 1  
    45   13   43 1  
    46   14   44 1  
    47   18   45 1  
    48   21   46 1  
    49   22   47 1  
    50   23   48 1  
    51   24   49 1  
@<TRIPOS>SUBSTRUCTURE
     1 S99         1

