### 
### Created by X-TOOL on Mon Sep 10 21:13:00 2018
### 

@<TRIPOS>MOLECULE
2wj2_ligand
   49    51     1     0     0
SMALL
GAST_HUCK


@<TRIPOS>ATOM
      1 O14        39.5060  -38.0880    7.7650 O.3       1 OL1        -0.3694
      2 C13        38.9520  -38.7790    6.6320 C.3       1 OL1         0.1460
      3 C15        37.4910  -39.1750    6.9660 C.2       1 OL1         0.2131
      4 O19        37.0540  -40.4260    7.1780 O.3       1 OL1        -0.2186
      5 C18        35.7180  -40.3350    7.4830 C.2       1 OL1         0.1531
      6 C20        34.8900  -41.4470    7.7520 C.ar      1 OL1         0.0754
      7 C25        35.3260  -42.7610    7.4500 C.ar      1 OL1        -0.0303
      8 C24        34.4590  -43.8350    7.7200 C.ar      1 OL1        -0.0469
      9 C23        33.1980  -43.5770    8.2840 C.ar      1 OL1        -0.0390
     10 C22        32.8330  -42.2530    8.5560 C.ar      1 OL1         0.0040
     11 N21        33.6600  -41.2420    8.3030 N.ar      1 OL1        -0.2976
     12 C17        35.3900  -39.0490    7.4320 C.2       1 OL1         0.0034
     13 N16        36.4750  -38.3430    7.1310 N.2       1 OL1        -0.3028
     14 C12        39.7780  -40.0230    6.3580 C.3       1 OL1        -0.0080
     15 C11        41.2250  -39.6820    6.0510 C.3       1 OL1        -0.0481
     16 C10        42.0510  -40.9280    5.7280 C.3       1 OL1        -0.0526
     17 C9         42.5170  -41.5520    7.0340 C.3       1 OL1        -0.0513
     18 C8         43.0760  -42.9540    6.8500 C.3       1 OL1        -0.0433
     19 C7         43.7600  -43.3460    8.1740 C.3       1 OL1        -0.0192
     20 C3         44.2290  -44.7870    8.2750 C.ar      1 OL1        -0.0430
     21 C2         44.2010  -45.6490    7.1750 C.ar      1 OL1        -0.0603
     22 C4         44.7030  -45.2530    9.5110 C.ar      1 OL1        -0.0603
     23 C5         45.1440  -46.5700    9.6410 C.ar      1 OL1        -0.0686
     24 C6         45.1100  -47.4240    8.5380 C.ar      1 OL1        -0.0687
     25 C1         44.6370  -46.9670    7.3140 C.ar      1 OL1        -0.0686
     26 H1         40.4027  -37.8385    7.5749 H         1 OL1         0.2143
     27 H2         38.9669  -38.1237    5.7487 H         1 OL1         0.0870
     28 H3         36.3060  -42.9346    7.0204 H         1 OL1         0.0680
     29 H4         34.7605  -44.8517    7.4953 H         1 OL1         0.0720
     30 H5         32.5177  -44.3914    8.5053 H         1 OL1         0.0669
     31 H6         31.8572  -42.0476    8.9812 H         1 OL1         0.0812
     32 H7         34.3960  -38.6405    7.6078 H         1 OL1         0.0578
     33 H8         39.3469  -40.5542    5.4967 H         1 OL1         0.0321
     34 H9         39.7459  -40.6742    7.2440 H         1 OL1         0.0321
     35 H10        41.6652  -39.1811    6.9258 H         1 OL1         0.0268
     36 H11        41.2541  -39.0027    5.1863 H         1 OL1         0.0268
     37 H12        42.9232  -40.6471    5.1194 H         1 OL1         0.0265
     38 H13        41.4330  -41.6488    5.1725 H         1 OL1         0.0265
     39 H14        41.6621  -41.6022    7.7244 H         1 OL1         0.0267
     40 H15        43.3017  -40.9148    7.4678 H         1 OL1         0.0267
     41 H16        43.8086  -42.9635    6.0295 H         1 OL1         0.0287
     42 H17        42.2619  -43.6581    6.6229 H         1 OL1         0.0287
     43 H18        43.0442  -43.1663    8.9897 H         1 OL1         0.0426
     44 H19        44.6373  -42.6957    8.3060 H         1 OL1         0.0426
     45 H20        43.8413  -45.2942    6.2159 H         1 OL1         0.0557
     46 H21        44.7265  -44.5879   10.3667 H         1 OL1         0.0557
     47 H22        45.5118  -46.9287   10.5955 H         1 OL1         0.0599
     48 H23        45.4537  -48.4473    8.6363 H         1 OL1         0.0559
     49 H24        44.6066  -47.6378    6.4630 H         1 OL1         0.0599
@<TRIPOS>BOND
     1    1    2 1  
     2    2    3 1  
     3    2   14 1  
     4    3    4 1  
     5    3   13 2  
     6    4    5 1  
     7    5    6 1  
     8    5   12 2  
     9    6    7 ar 
    10    6   11 ar 
    11    7    8 ar 
    12    8    9 ar 
    13    9   10 ar 
    14   10   11 ar 
    15   12   13 1  
    16   14   15 1  
    17   15   16 1  
    18   16   17 1  
    19   17   18 1  
    20   18   19 1  
    21   19   20 1  
    22   20   21 ar 
    23   20   22 ar 
    24   21   25 ar 
    25   22   23 ar 
    26   23   24 ar 
    27   24   25 ar 
    28    1   26 1  
    29    2   27 1  
    30    7   28 1  
    31    8   29 1  
    32    9   30 1  
    33   10   31 1  
    34   12   32 1  
    35   14   33 1  
    36   14   34 1  
    37   15   35 1  
    38   15   36 1  
    39   16   37 1  
    40   16   38 1  
    41   17   39 1  
    42   17   40 1  
    43   18   41 1  
    44   18   42 1  
    45   19   43 1  
    46   19   44 1  
    47   21   45 1  
    48   22   46 1  
    49   23   47 1  
    50   24   48 1  
    51   25   49 1  
@<TRIPOS>SUBSTRUCTURE
     1 OL1         1

