### 
### Created by X-TOOL on Mon Sep 10 21:13:02 2018
### 

@<TRIPOS>MOLECULE
2wk2_ligand
   81    84     1     0     0
SMALL
GAST_HUCK


@<TRIPOS>ATOM
      1 C1         31.0410   70.9600   -8.3340 C.3       1 SN5         0.1877
      2 S7         31.0550   67.0220   -7.9370 S.2       1 SN5        -0.2841
      3 C2         31.7290   69.7200   -8.8990 C.3       1 SN5         0.1271
      4 C3         32.7480   70.0580   -9.9580 C.3       1 SN5         0.1133
      5 C4         32.1040   70.9180  -11.0170 C.3       1 SN5         0.1119
      6 C5         31.4970   72.1640  -10.4140 C.3       1 SN5         0.1130
      7 C6         30.8210   72.9410  -11.5340 C.3       1 SN5         0.0730
      8 C7         32.1710   67.8890   -7.3400 C.2       1 SN5         0.0522
      9 C8         32.9790   67.3350   -6.1920 C.3       1 SN5         0.0069
     10 N2         32.4630   69.1100   -7.7970 N.am      1 SN5        -0.2855
     11 O3         33.2780   68.9070  -10.5590 O.3       1 SN5        -0.3864
     12 O4         32.9970   71.2470  -12.0700 O.3       1 SN5        -0.3865
     13 O5         30.5900   71.7970   -9.3870 O.3       1 SN5        -0.3406
     14 O6         30.3420   74.2460  -11.1680 O.3       1 SN5        -0.3924
     15 C1         28.8050   73.2120   -4.0810 C.3       1 SN5         0.1877
     16 S7         29.5410   77.0140   -5.5100 S.2       1 SN5        -0.2841
     17 C2         29.1670   74.0080   -5.3270 C.3       1 SN5         0.1271
     18 C3         29.3590   73.1390   -6.5640 C.3       1 SN5         0.1136
     19 C4         30.1420   71.8500   -6.2960 C.3       1 SN5         0.1184
     20 C5         29.5600   71.1660   -5.0790 C.3       1 SN5         0.1134
     21 C6         30.3510   69.9420   -4.6730 C.3       1 SN5         0.0730
     22 C7         28.2300   76.2320   -5.7060 C.2       1 SN5         0.0522
     23 C8         27.0090   77.0280   -6.0360 C.3       1 SN5         0.0069
     24 N2         28.0890   74.9190   -5.6160 N.am      1 SN5        -0.2855
     25 O3         29.9890   73.9110   -7.5450 O.3       1 SN5        -0.3864
     26 O4         30.2860   71.0480   -7.4630 O.3       1 SN5        -0.3402
     27 O5         29.6440   72.0890   -4.0410 O.3       1 SN5        -0.3405
     28 O6         29.8770   69.3970   -3.4990 O.3       1 SN5        -0.3924
     29 C1         28.2890   74.3190    1.0010 C.3       1 NGT         0.1382
     30 C2         28.4460   72.8370    0.6480 C.3       1 NGT         0.0652
     31 C3         28.9850   72.7700   -0.7920 C.3       1 NGT         0.0958
     32 C4         28.2870   73.7220   -1.7880 C.3       1 NGT         0.1166
     33 C5         28.3990   75.1170   -1.2050 C.3       1 NGT         0.1120
     34 C6         27.7450   76.2120   -2.0320 C.3       1 NGT         0.0730
     35 C7         30.2080   73.3120    2.0510 C.2       1 NGT         0.0728
     36 C8         31.4220   72.9230    2.8430 C.3       1 NGT         0.0106
     37 N2         29.5650   72.4250    1.4440 N.2       1 NGT        -0.3502
     38 S1         29.6760   74.8640    1.9240 S.3       1 NGT        -0.0199
     39 O3         29.0960   71.4670   -1.3190 O.3       1 NGT        -0.3883
     40 O4         28.8710   73.7140   -3.0960 O.3       1 NGT        -0.3402
     41 O5         27.7560   75.1610    0.0260 O.3       1 NGT        -0.3535
     42 O6         26.3750   76.2360   -1.7990 O.3       1 NGT        -0.3924
     43 H1         31.9067   71.4898   -7.9098 H         1 SN5         0.0937
     44 H2         30.9782   69.0276   -9.3074 H         1 SN5         0.0662
     45 H3         33.5692   70.6191   -9.4882 H         1 SN5         0.0647
     46 H4         31.2844   70.3311  -11.4572 H         1 SN5         0.0647
     47 H5         32.2914   72.7861   -9.9760 H         1 SN5         0.0647
     48 H6         29.9635   72.3505  -11.8890 H         1 SN5         0.0584
     49 H7         31.5470   73.0615  -12.3516 H         1 SN5         0.0584
     50 H8         33.7320   68.0749   -5.8830 H         1 SN5         0.0485
     51 H9         33.4826   66.4104   -6.5106 H         1 SN5         0.0485
     52 H10        32.3113   67.1160   -5.3457 H         1 SN5         0.0485
     53 H11        33.2085   69.6216   -7.3697 H         1 SN5         0.2006
     54 H12        33.9276   69.1588  -11.2048 H         1 SN5         0.2100
     55 H13        33.6958   71.7944  -11.7317 H         1 SN5         0.2100
     56 H14        29.7027   74.1632  -10.4702 H         1 SN5         0.2095
     57 H15        27.7632   72.8807   -4.2029 H         1 SN5         0.0937
     58 H16        30.0936   74.5683   -5.1333 H         1 SN5         0.0662
     59 H17        28.3640   72.8493   -6.9328 H         1 SN5         0.0647
     60 H18        31.1636   72.1488   -6.0186 H         1 SN5         0.0651
     61 H19        28.5141   70.8840   -5.2704 H         1 SN5         0.0647
     62 H20        31.4041   70.2276   -4.5341 H         1 SN5         0.0584
     63 H21        30.2776   69.1887   -5.4712 H         1 SN5         0.0584
     64 H22        26.1494   76.3510   -6.1486 H         1 SN5         0.0485
     65 H23        27.1708   77.5747   -6.9767 H         1 SN5         0.0485
     66 H24        26.8080   77.7441   -5.2256 H         1 SN5         0.0485
     67 H25        27.1765   74.5351   -5.7576 H         1 SN5         0.2006
     68 H26        30.0433   73.4128   -8.3520 H         1 SN5         0.2100
     69 H27        30.3947   68.6329   -3.2742 H         1 SN5         0.2095
     70 H28        27.4829   74.3140    1.7494 H         1 SN5         0.0761
     71 H29        27.5322   72.2453    0.8057 H         1 SN5         0.0431
     72 H30        30.0185   73.1392   -0.7172 H         1 SN5         0.0628
     73 H31        27.2286   73.4356   -1.8758 H         1 SN5         0.0650
     74 H32        29.4667   75.3513   -1.0818 H         1 SN5         0.0646
     75 H33        27.9287   76.0200   -3.0994 H         1 SN5         0.0584
     76 H34        28.1778   77.1845   -1.7546 H         1 SN5         0.0584
     77 H35        31.5713   71.8353    2.7747 H         1 SN5         0.0521
     78 H36        31.2799   73.2082    3.8958 H         1 SN5         0.0521
     79 H37        32.3047   73.4403    2.4389 H         1 SN5         0.0521
     80 H38        29.6058   71.4930   -2.1202 H         1 SN5         0.2099
     81 H39        26.2145   76.4035   -0.8777 H         1 SN5         0.2095
@<TRIPOS>BOND
     1    1    3 1  
     2    1   13 1  
     3   26    1 1  
     4    8    2 2  
     5    3    4 1  
     6    3   10 1  
     7    4    5 1  
     8    4   11 1  
     9    6    5 1  
    10    5   12 1  
    11    6    7 1  
    12   13    6 1  
    13    7   14 1  
    14    8    9 1  
    15   10    8 am 
    16   15   17 1  
    17   15   27 1  
    18   40   15 1  
    19   22   16 2  
    20   17   18 1  
    21   17   24 1  
    22   18   19 1  
    23   18   25 1  
    24   20   19 1  
    25   19   26 1  
    26   20   21 1  
    27   27   20 1  
    28   21   28 1  
    29   22   23 1  
    30   24   22 am 
    31   30   29 1  
    32   29   38 1  
    33   29   41 1  
    34   30   31 1  
    35   37   30 1  
    36   31   32 1  
    37   31   39 1  
    38   32   33 1  
    39   32   40 1  
    40   33   34 1  
    41   41   33 1  
    42   34   42 1  
    43   35   36 1  
    44   35   37 2  
    45   35   38 1  
    46    1   43 1  
    47    3   44 1  
    48    4   45 1  
    49    5   46 1  
    50    6   47 1  
    51    7   48 1  
    52    7   49 1  
    53    9   50 1  
    54    9   51 1  
    55    9   52 1  
    56   10   53 1  
    57   11   54 1  
    58   12   55 1  
    59   14   56 1  
    60   15   57 1  
    61   17   58 1  
    62   18   59 1  
    63   19   60 1  
    64   20   61 1  
    65   21   62 1  
    66   21   63 1  
    67   23   64 1  
    68   23   65 1  
    69   23   66 1  
    70   24   67 1  
    71   25   68 1  
    72   28   69 1  
    73   29   70 1  
    74   30   71 1  
    75   31   72 1  
    76   32   73 1  
    77   33   74 1  
    78   34   75 1  
    79   34   76 1  
    80   36   77 1  
    81   36   78 1  
    82   36   79 1  
    83   39   80 1  
    84   42   81 1  
@<TRIPOS>SUBSTRUCTURE
     1 SN5         1

