### 
### Created by X-TOOL on Mon Sep 10 21:13:01 2018
### 

@<TRIPOS>MOLECULE
2wk6_ligand
   12    12     1     0     0
SMALL
GAST_HUCK


@<TRIPOS>ATOM
      1 N1         16.6580   16.1180   45.6180 N.2       1 IUR        -0.2286
      2 C2         15.4900   16.7150   46.1710 C.2       1 IUR         0.2738
      3 O2         14.8440   17.6110   45.6880 O.2       1 IUR        -0.3742
      4 N3         15.0900   16.1560   47.4150 N.am      1 IUR        -0.1886
      5 C4         15.7070   15.1100   48.1510 C.2       1 IUR         0.2400
      6 O4         15.2390   14.7370   49.2240 O.2       1 IUR        -0.3812
      7 C5         16.9130   14.5550   47.5070 C.3       1 IUR         0.1694
      8 C6         17.3380   15.0780   46.2740 C.2       1 IUR         0.0579
      9 I5         17.9680   13.0080   48.4700 I         1 IUR        -0.0255
     10 H1         14.2676   16.5503   47.8251 H         1 IUR         0.2267
     11 H2         16.2999   13.8096   46.9794 H         1 IUR         0.0959
     12 H3         18.2297   14.6608   45.8084 H         1 IUR         0.1344
@<TRIPOS>BOND
     1    1    2 1  
     2    1    8 2  
     3    2    3 2  
     4    2    4 am 
     5    4    5 am 
     6    5    6 2  
     7    5    7 1  
     8    7    8 1  
     9    7    9 1  
    10    4   10 1  
    11    7   11 1  
    12    8   12 1  
@<TRIPOS>SUBSTRUCTURE
     1 IUR         1

