### 
### Created by X-TOOL on Mon Sep 10 21:13:01 2018
### 

@<TRIPOS>MOLECULE
2wks_ligand
   41    43     1     0     0
SMALL
GAST_HUCK


@<TRIPOS>ATOM
      1 CAK         4.4270   16.6490  -22.2010 C.2       1 CB6        -0.0637
      2 CAT         5.5080   17.4540  -22.3560 C.ar      1 CB6        -0.0449
      3 CAI         6.3960   17.8980  -21.3630 C.ar      1 CB6        -0.0724
      4 CAH         7.4810   18.7230  -21.6680 C.ar      1 CB6        -0.0605
      5 CAR         7.6940   19.1210  -23.0030 C.ar      1 CB6        -0.0722
      6 CAJ         6.8260   18.6940  -24.0240 C.ar      1 CB6        -0.0595
      7 CAU         5.7410   17.8600  -23.6970 C.ar      1 CB6         0.0270
      8 SAO         4.4930   17.1500  -24.6080 S.3       1 CB6        -0.0303
      9 CAS         3.7560   16.3770  -23.3240 C.2       1 CB6         0.0526
     10 CAL         2.6380   15.5770  -23.3920 C.3       1 CB6         0.1498
     11 OAN         2.1990   14.9690  -22.1750 O.3       1 CB6        -0.2220
     12 CAQ         2.2160   13.6070  -22.0680 C.2       1 CB6         0.1914
     13 CAG         1.9630   12.7360  -23.1440 C.2       1 CB6        -0.0311
     14 CAX         1.9390   11.3320  -23.0720 C.3       1 CB6         0.0498
     15 CAP         2.7450   10.8030  -24.2630 C.2       1 CB6         0.0002
     16 OAC         2.2780   11.1000  -25.4020 O.co2     1 CB6        -0.5739
     17 OAB         3.7770   10.1190  -24.0370 O.co2     1 CB6        -0.5739
     18 OAF         0.5990   10.8530  -23.2140 O.3       1 CB6        -0.4602
     19 CAM         2.4760   10.8050  -21.7300 C.3       1 CB6        -0.0399
     20 CAV         1.8910   11.6280  -20.5700 C.3       1 CB6         0.0985
     21 OAD         2.2870   11.0580  -19.3390 O.3       1 CB6        -0.3855
     22 CAW         2.4150   13.0650  -20.6540 C.3       1 CB6         0.1916
     23 OAE         1.7410   13.9390  -19.7390 O.3       1 CB6        -0.3543
     24 CAA         8.4010   19.1550  -20.5190 C.3       1 CB6        -0.0359
     25 H1          4.1278   16.2532  -21.2316 H         1 CB6         0.0272
     26 H2          6.2356   17.5932  -20.3352 H         1 CB6         0.0462
     27 H3          8.5341   19.7618  -23.2451 H         1 CB6         0.0485
     28 H4          6.9908   19.0035  -25.0497 H         1 CB6         0.0546
     29 H5          2.8510   14.7696  -24.1080 H         1 CB6         0.0893
     30 H6          1.8107   16.1948  -23.7713 H         1 CB6         0.0893
     31 H7          1.7692   13.1881  -24.1156 H         1 CB6         0.0420
     32 H8          0.6022    9.9030  -23.2179 H         1 CB6         0.1822
     33 H9          3.5728   10.8879  -21.7186 H         1 CB6         0.0130
     34 H10         2.1867    9.7505  -21.6107 H         1 CB6         0.0130
     35 H11         0.7931   11.6311  -20.6379 H         1 CB6         0.0660
     36 H12         1.9665   10.1652  -19.2870 H         1 CB6         0.2103
     37 H13         3.4886   13.0600  -20.4145 H         1 CB6         0.1073
     38 H14         2.0944   14.8168  -19.8227 H         1 CB6         0.2174
     39 H15         8.0363   18.7233  -19.5752 H         1 CB6         0.0377
     40 H16         8.4030   20.2524  -20.4436 H         1 CB6         0.0377
     41 H17         9.4233   18.7990  -20.7141 H         1 CB6         0.0377
@<TRIPOS>BOND
     1    1    2 1  
     2    1    9 2  
     3    2    3 ar 
     4    2    7 ar 
     5    3    4 ar 
     6    4    5 ar 
     7    4   24 1  
     8    5    6 ar 
     9    6    7 ar 
    10    7    8 1  
    11    8    9 1  
    12    9   10 1  
    13   10   11 1  
    14   11   12 1  
    15   12   13 2  
    16   12   22 1  
    17   13   14 1  
    18   14   15 1  
    19   14   18 1  
    20   14   19 1  
    21   15   16 ar 
    22   15   17 ar 
    23   19   20 1  
    24   20   21 1  
    25   20   22 1  
    26   22   23 1  
    27    1   25 1  
    28    3   26 1  
    29    5   27 1  
    30    6   28 1  
    31   10   29 1  
    32   10   30 1  
    33   13   31 1  
    34   18   32 1  
    35   19   33 1  
    36   19   34 1  
    37   20   35 1  
    38   21   36 1  
    39   22   37 1  
    40   23   38 1  
    41   24   39 1  
    42   24   40 1  
    43   24   41 1  
@<TRIPOS>SUBSTRUCTURE
     1 CB6         1

