### 
### Created by X-TOOL on Mon Sep 10 21:13:01 2018
### 

@<TRIPOS>MOLECULE
2wky_ligand
   31    32     1     0     0
SMALL
GAST_HUCK


@<TRIPOS>ATOM
      1 O4         29.6390    2.2440   76.8850 O.co2     1 IBC        -0.5641
      2 C11        30.6440    2.3560   76.1510 C.2       1 IBC         0.0866
      3 O3         30.8780    3.3040   75.3740 O.co2     1 IBC        -0.5641
      4 C10        31.6770    1.2270   76.2010 C.3       1 IBC         0.0372
      5 N2         32.8270    1.6070   75.3690 N.4       1 IBC         0.2342
      6 C9         32.1410    1.0080   77.6440 C.3       1 IBC         0.0319
      7 C4         33.3570    0.0820   77.6990 C.2       1 IBC        -0.0386
      8 C1         33.1380   -1.2620   77.4230 C.2       1 IBC         0.0443
      9 C5         34.6010    0.6450   77.9750 C.2       1 IBC        -0.0666
     10 C6         35.8430    0.0290   78.0890 C.2       1 IBC        -0.0728
     11 C7         36.2010   -1.3110   77.9680 C.3       1 IBC        -0.0165
     12 C8         35.5650   -2.0120   76.7650 C.3       1 IBC        -0.0055
     13 C3         34.0610   -2.1990   76.9810 C.3       1 IBC         0.1212
     14 O1         33.4140   -3.3860   76.7860 O.3       1 IBC        -0.2459
     15 N1         32.0460   -3.1810   77.1220 N.am      1 IBC        -0.1642
     16 C2         31.9110   -1.9110   77.4990 C.2       1 IBC         0.2048
     17 O2         30.8550   -1.4030   77.8680 O.2       1 IBC        -0.4027
     18 H1         31.2297    0.2992   75.8150 H         1 IBC         0.1049
     19 H2         33.5162    0.8718   75.3925 H         1 IBC         0.2012
     20 H3         33.2321    2.4588   75.7245 H         1 IBC         0.2012
     21 H4         32.5216    1.7510   74.4192 H         1 IBC         0.2012
     22 H5         31.3200    0.5568   78.2204 H         1 IBC         0.0496
     23 H6         32.4091    1.9789   78.0861 H         1 IBC         0.0496
     24 H7         34.6012    1.7239   78.1230 H         1 IBC         0.0438
     25 H8         36.6689    0.7041   78.3084 H         1 IBC         0.0736
     26 H9         35.8887   -1.8377   78.8818 H         1 IBC         0.0472
     27 H10        37.2947   -1.3704   77.8661 H         1 IBC         0.0472
     28 H11        36.0357   -2.9970   76.6306 H         1 IBC         0.0338
     29 H12        35.7273   -1.4020   75.8642 H         1 IBC         0.0338
     30 H13        33.9057   -1.8939   75.9356 H         1 IBC         0.0742
     31 H14        31.3186   -3.8661   77.0822 H         1 IBC         0.2199
@<TRIPOS>BOND
     1    1    2 ar 
     2    2    3 ar 
     3    2    4 1  
     4    4    5 1  
     5    4    6 1  
     6    6    7 1  
     7    7    8 2  
     8    7    9 1  
     9    8   13 1  
    10    8   16 1  
    11    9   10 2  
    12   10   11 1  
    13   11   12 1  
    14   12   13 1  
    15   13   14 1  
    16   14   15 1  
    17   15   16 am 
    18   16   17 2  
    19    4   18 1  
    20    5   19 1  
    21    5   20 1  
    22    5   21 1  
    23    6   22 1  
    24    6   23 1  
    25    9   24 1  
    26   10   25 1  
    27   11   26 1  
    28   11   27 1  
    29   12   28 1  
    30   12   29 1  
    31   13   30 1  
    32   15   31 1  
@<TRIPOS>SUBSTRUCTURE
     1 IBC         1

