### 
### Created by X-TOOL on Mon Sep 10 21:13:01 2018
### 

@<TRIPOS>MOLECULE
2wkz_ligand
   99   103     1     0     0
SMALL
GAST_HUCK


@<TRIPOS>ATOM
      1 C1         14.7130   17.6030    3.9000 C.3       1 5AH        -0.0558
      2 C2         18.7520   16.9940   11.8960 C.ar      1 5AH         0.0086
      3 N3         18.3210   18.1090   11.2180 N.ar      1 5AH        -0.2940
      4 C4         17.0300   18.1690   10.6140 C.ar      1 5AH         0.0481
      5 C5         16.1860   17.0200   10.7330 C.ar      1 5AH        -0.0287
      6 C6         16.6560   15.8870   11.4360 C.ar      1 5AH        -0.0433
      7 C7         17.9530   15.8910   12.0170 C.ar      1 5AH        -0.0355
      8 C8         11.8820   24.0040    4.1690 C.3       1 5AH         0.1594
      9 C9         13.0830   23.0990    4.5970 C.3       1 5AH         0.0262
     10 C10        14.0080   23.7170    5.6820 C.3       1 5AH        -0.0038
     11 O11        12.3990   25.3120    3.7940 O.3       1 5AH        -0.3817
     12 C12        11.1600   23.3930    2.9010 C.3       1 5AH         0.0173
     13 C13         9.6810   23.8320    2.6610 C.ar      1 5AH        -0.0413
     14 C14         9.3860   25.1380    2.1440 C.ar      1 5AH        -0.0604
     15 C15         8.0410   25.5450    1.9310 C.ar      1 5AH        -0.0686
     16 C16         6.9710   24.6570    2.2300 C.ar      1 5AH        -0.0687
     17 C17         7.2510   23.3570    2.7430 C.ar      1 5AH        -0.0686
     18 C18         8.5950   22.9430    2.9570 C.ar      1 5AH        -0.0604
     19 C19        10.8180   24.1580    5.2730 C.2       1 5AH         0.2319
     20 N20        10.1970   25.3620    5.3820 N.am      1 5AH        -0.2678
     21 C21         9.1240   25.5850    6.3640 C.3       1 5AH         0.1008
     22 C22         7.9670   26.5460    5.9260 C.3       1 5AH         0.0952
     23 O23         8.4030   27.6380    5.0650 O.3       1 5AH        -0.3856
     24 C24         7.3680   27.1510    7.2180 C.3       1 5AH         0.0085
     25 C25         8.5540   27.0890    8.1720 C.ar      1 5AH        -0.0360
     26 C26         8.7170   27.7890    9.3950 C.ar      1 5AH        -0.0667
     27 C27         9.9150   27.5820   10.1360 C.ar      1 5AH        -0.0755
     28 C28        10.9250   26.6890    9.6550 C.ar      1 5AH        -0.0754
     29 C29        10.7530   25.9910    8.4270 C.ar      1 5AH        -0.0646
     30 C30         9.5520   26.2040    7.6890 C.ar      1 5AH        -0.0131
     31 O31        10.5210   23.2110    5.9890 O.2       1 5AH        -0.3414
     32 N32        14.6840   22.6790    6.5010 N.4       1 5AH         0.3802
     33 C33        15.4030   23.0680    7.7440 C.3       1 5AH         0.0279
     34 C34        15.8340   21.8000    8.4990 C.ar      1 5AH         0.0049
     35 C35        14.8510   20.9840    9.1250 C.ar      1 5AH        -0.0520
     36 C36        15.2360   19.8010    9.8140 C.ar      1 5AH        -0.0565
     37 C37        16.6120   19.4160    9.8900 C.ar      1 5AH        -0.0068
     38 C38        17.5940   20.2460    9.2650 C.ar      1 5AH        -0.0565
     39 C39        17.2070   21.4270    8.5700 C.ar      1 5AH        -0.0520
     40 N40        15.6220   21.8140    5.6460 N.am      1 5AH        -0.2494
     41 C41        15.2840   20.5340    5.3210 C.2       1 5AH         0.2392
     42 C42        16.2440   19.6780    4.4860 C.3       1 5AH         0.1419
     43 N51        16.9110   18.8600    5.4930 N.am      1 5AH        -0.2405
     44 C43        18.2200   19.0000    5.7600 C.2       1 5AH         0.3216
     45 O44        18.6090   18.1290    6.7220 O.3       1 5AH        -0.2672
     46 C45        20.0000   18.1780    7.0990 C.3       1 5AH         0.0663
     47 O46        18.9580   19.8110    5.2010 O.2       1 5AH        -0.3774
     48 C47        15.5910   18.7780    3.3490 C.3       1 5AH         0.0027
     49 C48        14.7040   19.6450    2.4070 C.3       1 5AH        -0.0558
     50 C49        16.7430   18.1360    2.5050 C.3       1 5AH        -0.0558
     51 O50        14.2120   20.0550    5.7120 O.2       1 5AH        -0.3898
     52 H1         14.2982   17.0293    3.0581 H         1 5AH         0.0237
     53 H2         13.8907   18.0123    4.5053 H         1 5AH         0.0237
     54 H3         15.3337   16.9425    4.5233 H         1 5AH         0.0237
     55 H4         19.7402   16.9889   12.3415 H         1 5AH         0.0823
     56 H5         15.1971   17.0181   10.2891 H         1 5AH         0.0706
     57 H6         16.0243   15.0114   11.5323 H         1 5AH         0.0732
     58 H7         18.3086   15.0202   12.5557 H         1 5AH         0.0697
     59 H8         13.6921   22.8933    3.7044 H         1 5AH         0.0334
     60 H9         12.6776   22.1549    4.9898 H         1 5AH         0.0334
     61 H10        13.4015   24.3516    6.3449 H         1 5AH         0.0822
     62 H11        14.7740   24.3313    5.1863 H         1 5AH         0.0822
     63 H12        13.0067   25.2155    3.0702 H         1 5AH         0.2082
     64 H13        11.1705   22.2981    3.0060 H         1 5AH         0.0441
     65 H14        11.7423   23.6819    2.0136 H         1 5AH         0.0441
     66 H15        10.1964   25.8202    1.9139 H         1 5AH         0.0557
     67 H16         7.8303   26.5338    1.5400 H         1 5AH         0.0599
     68 H17         5.9453   24.9681    2.0682 H         1 5AH         0.0559
     69 H18         6.4355   22.6803    2.9713 H         1 5AH         0.0599
     70 H19         8.7992   21.9518    3.3453 H         1 5AH         0.0557
     71 H20        10.4751   26.1122    4.7822 H         1 5AH         0.1887
     72 H21         8.6939   24.5927    6.5650 H         1 5AH         0.0734
     73 H22         7.2014   25.9627    5.3935 H         1 5AH         0.0659
     74 H23         8.7886   27.2811    4.2735 H         1 5AH         0.2103
     75 H24         6.5248   26.5494    7.5881 H         1 5AH         0.0439
     76 H25         7.0366   28.1877    7.0583 H         1 5AH         0.0439
     77 H26         7.9494   28.4640    9.7560 H         1 5AH         0.0537
     78 H27        10.0637   28.1057   11.0734 H         1 5AH         0.0541
     79 H28        11.8307   26.5429   10.2325 H         1 5AH         0.0541
     80 H29        11.5165   25.3138    8.0616 H         1 5AH         0.0538
     81 H30        13.9369   22.0769    6.8099 H         1 5AH         0.2322
     82 H31        14.7365   23.6669    8.3820 H         1 5AH         0.0995
     83 H32        16.2922   23.6610    7.4840 H         1 5AH         0.0995
     84 H33        13.8051   21.2649    9.0766 H         1 5AH         0.0567
     85 H34        14.4795   19.1848   10.2863 H         1 5AH         0.0625
     86 H35        18.6419   19.9740    9.3206 H         1 5AH         0.0625
     87 H36        17.9598   22.0444    8.0933 H         1 5AH         0.0567
     88 H37        16.4895   22.1937    5.3245 H         1 5AH         0.2384
     89 H38        16.9745   20.3394    3.9973 H         1 5AH         0.0806
     90 H39        16.3807   18.1782    5.9969 H         1 5AH         0.1899
     91 H40        20.1942   17.4303    7.8821 H         1 5AH         0.0575
     92 H41        20.2411   19.1807    7.4816 H         1 5AH         0.0575
     93 H42        20.6258   17.9602    6.2210 H         1 5AH         0.0575
     94 H43        14.2619   19.0057    1.6286 H         1 5AH         0.0237
     95 H44        15.3219   20.4231    1.9351 H         1 5AH         0.0237
     96 H45        13.9017   20.1184    2.9919 H         1 5AH         0.0237
     97 H46        17.3776   17.5203    3.1594 H         1 5AH         0.0237
     98 H47        17.3502   18.9315    2.0484 H         1 5AH         0.0237
     99 H48        16.3106   17.5051    1.7144 H         1 5AH         0.0237
@<TRIPOS>BOND
     1   48    1 1  
     2    3    2 ar 
     3    2    7 ar 
     4    4    3 ar 
     5    4    5 ar 
     6   37    4 1  
     7    5    6 ar 
     8    6    7 ar 
     9    9    8 1  
    10    8   11 1  
    11    8   12 1  
    12    8   19 1  
    13   10    9 1  
    14   32   10 1  
    15   12   13 1  
    16   13   14 ar 
    17   13   18 ar 
    18   14   15 ar 
    19   15   16 ar 
    20   17   16 ar 
    21   18   17 ar 
    22   19   20 am 
    23   19   31 2  
    24   20   21 1  
    25   21   22 1  
    26   21   30 1  
    27   22   23 1  
    28   22   24 1  
    29   25   24 1  
    30   25   26 ar 
    31   30   25 ar 
    32   26   27 ar 
    33   28   27 ar 
    34   29   28 ar 
    35   30   29 ar 
    36   32   33 1  
    37   40   32 1  
    38   33   34 1  
    39   34   35 ar 
    40   34   39 ar 
    41   35   36 ar 
    42   36   37 ar 
    43   38   37 ar 
    44   39   38 ar 
    45   41   40 am 
    46   42   41 1  
    47   41   51 2  
    48   42   43 1  
    49   42   48 1  
    50   43   44 am 
    51   44   45 1  
    52   44   47 2  
    53   45   46 1  
    54   48   49 1  
    55   48   50 1  
    56    1   52 1  
    57    1   53 1  
    58    1   54 1  
    59    2   55 1  
    60    5   56 1  
    61    6   57 1  
    62    7   58 1  
    63    9   59 1  
    64    9   60 1  
    65   10   61 1  
    66   10   62 1  
    67   11   63 1  
    68   12   64 1  
    69   12   65 1  
    70   14   66 1  
    71   15   67 1  
    72   16   68 1  
    73   17   69 1  
    74   18   70 1  
    75   20   71 1  
    76   21   72 1  
    77   22   73 1  
    78   23   74 1  
    79   24   75 1  
    80   24   76 1  
    81   26   77 1  
    82   27   78 1  
    83   28   79 1  
    84   29   80 1  
    85   32   81 1  
    86   33   82 1  
    87   33   83 1  
    88   35   84 1  
    89   36   85 1  
    90   38   86 1  
    91   39   87 1  
    92   40   88 1  
    93   42   89 1  
    94   43   90 1  
    95   46   91 1  
    96   46   92 1  
    97   46   93 1  
    98   49   94 1  
    99   49   95 1  
   100   49   96 1  
   101   50   97 1  
   102   50   98 1  
   103   50   99 1  
@<TRIPOS>SUBSTRUCTURE
     1 5AH         1

