### 
### Created by X-TOOL on Mon Sep 10 21:13:01 2018
### 

@<TRIPOS>MOLECULE
2wl0_ligand
   99   103     1     0     0
SMALL
GAST_HUCK


@<TRIPOS>ATOM
      1 C1         16.8060   18.1560    2.3170 C.3       1 5AH        -0.0558
      2 C2         18.4890   17.2910   12.2960 C.ar      1 5AH         0.0086
      3 N3         18.1060   18.3770   11.5420 N.ar      1 5AH        -0.2940
      4 C4         16.9770   18.3270   10.6660 C.ar      1 5AH         0.0481
      5 C5         16.2470   17.1030   10.5940 C.ar      1 5AH        -0.0287
      6 C6         16.6630   16.0000   11.3830 C.ar      1 5AH        -0.0433
      7 C7         17.7970   16.1130   12.2350 C.ar      1 5AH        -0.0355
      8 C8         11.7550   23.8300    4.1820 C.3       1 5AH         0.1594
      9 C9         12.9560   22.9290    4.6260 C.3       1 5AH         0.0262
     10 C10        14.0340   23.6450    5.4980 C.3       1 5AH        -0.0038
     11 O11        12.2800   25.1060    3.7380 O.3       1 5AH        -0.3817
     12 C12        10.9850   23.1630    2.9670 C.3       1 5AH         0.0173
     13 C13         9.5900   23.7680    2.6200 C.ar      1 5AH        -0.0413
     14 C14         9.4930   25.0530    2.0030 C.ar      1 5AH        -0.0604
     15 C15         8.2240   25.6130    1.6900 C.ar      1 5AH        -0.0686
     16 C16         7.0310   24.8970    1.9890 C.ar      1 5AH        -0.0687
     17 C17         7.1130   23.6130    2.6040 C.ar      1 5AH        -0.0686
     18 C18         8.3830   23.0510    2.9160 C.ar      1 5AH        -0.0604
     19 C19        10.7310   24.0490    5.3130 C.2       1 5AH         0.2319
     20 N20        10.1090   25.2590    5.3760 N.am      1 5AH        -0.2678
     21 C21         9.0900   25.5530    6.3960 C.3       1 5AH         0.1008
     22 C22         7.9470   26.5470    5.9800 C.3       1 5AH         0.0952
     23 O23         8.3530   27.5190    4.9800 O.3       1 5AH        -0.3856
     24 C24         7.5120   27.3160    7.2550 C.3       1 5AH         0.0085
     25 C25         8.7390   27.1870    8.1510 C.ar      1 5AH        -0.0360
     26 C26         9.0300   27.9220    9.3300 C.ar      1 5AH        -0.0667
     27 C27        10.2430   27.6390   10.0210 C.ar      1 5AH        -0.0755
     28 C28        11.1430   26.6410    9.5350 C.ar      1 5AH        -0.0754
     29 C29        10.8430   25.9120    8.3590 C.ar      1 5AH        -0.0646
     30 C30         9.6270   26.1980    7.6670 C.ar      1 5AH        -0.0131
     31 O31        10.4790   23.1520    6.1020 O.2       1 5AH        -0.3414
     32 N32        14.7760   22.6740    6.3390 N.4       1 5AH         0.3802
     33 C33        15.5140   23.1240    7.5420 C.3       1 5AH         0.0279
     34 C34        15.9070   21.8880    8.3570 C.ar      1 5AH         0.0049
     35 C35        14.9000   21.1220    8.9980 C.ar      1 5AH        -0.0520
     36 C36        15.2420   19.9670    9.7460 C.ar      1 5AH        -0.0565
     37 C37        16.6060   19.5510    9.8710 C.ar      1 5AH        -0.0068
     38 C38        17.6180   20.3290    9.2280 C.ar      1 5AH        -0.0565
     39 C39        17.2710   21.4880    8.4720 C.ar      1 5AH        -0.0520
     40 N40        15.7120   21.8210    5.4810 N.am      1 5AH        -0.2494
     41 C41        15.3910   20.5260    5.1830 C.2       1 5AH         0.2392
     42 C42        16.3410   19.6660    4.3340 C.3       1 5AH         0.1419
     43 N51        17.0050   18.8370    5.3350 N.am      1 5AH        -0.2405
     44 C43        18.3010   19.0260    5.6440 C.2       1 5AH         0.3216
     45 O44        18.7090   18.1500    6.5930 O.3       1 5AH        -0.2672
     46 C45        20.0890   18.2620    7.0020 C.3       1 5AH         0.0663
     47 O46        19.0130   19.8850    5.1270 O.2       1 5AH        -0.3774
     48 C47        15.6710   18.7880    3.1860 C.3       1 5AH         0.0027
     49 C48        14.7960   17.6070    3.7220 C.3       1 5AH        -0.0558
     50 C49        14.7790   19.6850    2.2690 C.3       1 5AH        -0.0558
     51 O50        14.3490   20.0370    5.6040 O.2       1 5AH        -0.3898
     52 H1         16.3594   17.5455    1.5183 H         1 5AH         0.0237
     53 H2         17.4429   17.5215    2.9508 H         1 5AH         0.0237
     54 H3         17.4144   18.9561    1.8702 H         1 5AH         0.0237
     55 H4         19.3516   17.3706   12.9476 H         1 5AH         0.0823
     56 H5         15.3841   17.0170    9.9436 H         1 5AH         0.0706
     57 H6         16.1142   15.0663   11.3366 H         1 5AH         0.0732
     58 H7         18.1119   15.2667   12.8348 H         1 5AH         0.0697
     59 H8         13.4492   22.5477    3.7197 H         1 5AH         0.0334
     60 H9         12.5532   22.0860    5.2065 H         1 5AH         0.0334
     61 H10        13.5382   24.3790    6.1502 H         1 5AH         0.0822
     62 H11        14.7442   24.1629    4.8367 H         1 5AH         0.0822
     63 H12        12.8705   24.9671    3.0068 H         1 5AH         0.2082
     64 H13        10.8394   22.0991    3.2054 H         1 5AH         0.0441
     65 H14        11.6219   23.2550    2.0749 H         1 5AH         0.0441
     66 H15        10.3957   25.6065    1.7712 H         1 5AH         0.0557
     67 H16         8.1651   26.5889    1.2219 H         1 5AH         0.0599
     68 H17         6.0644   25.3257    1.7504 H         1 5AH         0.0559
     69 H18         6.2069   23.0642    2.8342 H         1 5AH         0.0599
     70 H19         8.4387   22.0734    3.3810 H         1 5AH         0.0557
     71 H20        10.3512   25.9661    4.7117 H         1 5AH         0.1887
     72 H21         8.6328   24.5867    6.6552 H         1 5AH         0.0734
     73 H22         7.0998   25.9677    5.5842 H         1 5AH         0.0659
     74 H23         8.6333   27.0649    4.1940 H         1 5AH         0.2103
     75 H24         6.6300   26.8503    7.7189 H         1 5AH         0.0439
     76 H25         7.2938   28.3701    7.0287 H         1 5AH         0.0439
     77 H26         8.3462   28.6797    9.6953 H         1 5AH         0.0537
     78 H27        10.4859   28.1862   10.9247 H         1 5AH         0.0541
     79 H28        12.0634   26.4404   10.0714 H         1 5AH         0.0541
     80 H29        11.5228   25.1519    7.9912 H         1 5AH         0.0538
     81 H30        14.0633   22.0553    6.6930 H         1 5AH         0.2322
     82 H31        14.8721   23.7802    8.1481 H         1 5AH         0.0995
     83 H32        16.4181   23.6728    7.2398 H         1 5AH         0.0995
     84 H33        13.8615   21.4217    8.9155 H         1 5AH         0.0567
     85 H34        14.4607   19.3917   10.2293 H         1 5AH         0.0625
     86 H35        18.6580   20.0359    9.3155 H         1 5AH         0.0625
     87 H36        18.0467   22.0665    7.9834 H         1 5AH         0.0567
     88 H37        16.5646   22.2133    5.1357 H         1 5AH         0.2384
     89 H38        17.0767   20.3243    3.8488 H         1 5AH         0.0806
     90 H39        16.4886   18.1170    5.7986 H         1 5AH         0.1899
     91 H40        20.3060   17.5060    7.7710 H         1 5AH         0.0575
     92 H41        20.2691   19.2660    7.4138 H         1 5AH         0.0575
     93 H42        20.7434   18.0993    6.1329 H         1 5AH         0.0575
     94 H43        14.3705   17.0514    2.8733 H         1 5AH         0.0237
     95 H44        13.9815   18.0069    4.3438 H         1 5AH         0.0237
     96 H45        15.4208   16.9323    4.3256 H         1 5AH         0.0237
     97 H46        15.3775   20.5227    1.8816 H         1 5AH         0.0237
     98 H47        13.9327   20.0777    2.8516 H         1 5AH         0.0237
     99 H48        14.3989   19.0862    1.4282 H         1 5AH         0.0237
@<TRIPOS>BOND
     1   48    1 1  
     2    3    2 ar 
     3    2    7 ar 
     4    4    3 ar 
     5    4    5 ar 
     6   37    4 1  
     7    5    6 ar 
     8    6    7 ar 
     9    9    8 1  
    10    8   11 1  
    11    8   12 1  
    12    8   19 1  
    13   10    9 1  
    14   32   10 1  
    15   12   13 1  
    16   13   14 ar 
    17   13   18 ar 
    18   14   15 ar 
    19   15   16 ar 
    20   17   16 ar 
    21   18   17 ar 
    22   19   20 am 
    23   19   31 2  
    24   20   21 1  
    25   21   22 1  
    26   21   30 1  
    27   22   23 1  
    28   22   24 1  
    29   25   24 1  
    30   25   26 ar 
    31   30   25 ar 
    32   26   27 ar 
    33   28   27 ar 
    34   29   28 ar 
    35   30   29 ar 
    36   32   33 1  
    37   40   32 1  
    38   33   34 1  
    39   34   35 ar 
    40   34   39 ar 
    41   35   36 ar 
    42   36   37 ar 
    43   38   37 ar 
    44   39   38 ar 
    45   41   40 am 
    46   42   41 1  
    47   41   51 2  
    48   42   43 1  
    49   42   48 1  
    50   43   44 am 
    51   44   45 1  
    52   44   47 2  
    53   45   46 1  
    54   48   49 1  
    55   48   50 1  
    56    1   52 1  
    57    1   53 1  
    58    1   54 1  
    59    2   55 1  
    60    5   56 1  
    61    6   57 1  
    62    7   58 1  
    63    9   59 1  
    64    9   60 1  
    65   10   61 1  
    66   10   62 1  
    67   11   63 1  
    68   12   64 1  
    69   12   65 1  
    70   14   66 1  
    71   15   67 1  
    72   16   68 1  
    73   17   69 1  
    74   18   70 1  
    75   20   71 1  
    76   21   72 1  
    77   22   73 1  
    78   23   74 1  
    79   24   75 1  
    80   24   76 1  
    81   26   77 1  
    82   27   78 1  
    83   28   79 1  
    84   29   80 1  
    85   32   81 1  
    86   33   82 1  
    87   33   83 1  
    88   35   84 1  
    89   36   85 1  
    90   38   86 1  
    91   39   87 1  
    92   40   88 1  
    93   42   89 1  
    94   43   90 1  
    95   46   91 1  
    96   46   92 1  
    97   46   93 1  
    98   49   94 1  
    99   49   95 1  
   100   49   96 1  
   101   50   97 1  
   102   50   98 1  
   103   50   99 1  
@<TRIPOS>SUBSTRUCTURE
     1 5AH         1

