### 
### Created by X-TOOL on Mon Sep 10 21:13:02 2018
### 

@<TRIPOS>MOLECULE
2wly_ligand
   54    56     1     0     0
SMALL
GAST_HUCK


@<TRIPOS>ATOM
      1 C1         28.1140   73.5570   -4.2230 C.3       1 SN5         0.1877
      2 S7         29.2080   77.2730   -5.7190 S.2       1 SN5        -0.2841
      3 C2         28.3700   74.3420   -5.5300 C.3       1 SN5         0.1271
      4 C3         28.2920   73.3820   -6.7470 C.3       1 SN5         0.1133
      5 C4         29.1390   72.1230   -6.4910 C.3       1 SN5         0.1119
      6 C5         28.9020   71.4690   -5.1250 C.3       1 SN5         0.1130
      7 C6         29.8650   70.2980   -4.8730 C.3       1 SN5         0.0730
      8 C7         27.6130   76.7020   -5.7060 C.2       1 SN5         0.0522
      9 C8         26.4550   77.6750   -5.8250 C.3       1 SN5         0.0069
     10 N2         27.3350   75.3660   -5.6220 N.am      1 SN5        -0.2855
     11 O3         29.0150   73.9200   -7.8420 O.3       1 SN5        -0.3864
     12 O4         28.7560   71.2220   -7.4810 O.3       1 SN5        -0.3865
     13 O5         29.0280   72.4440   -4.0960 O.3       1 SN5        -0.3406
     14 O6         29.4780   69.5060   -3.7380 O.3       1 SN5        -0.3924
     15 C1         27.8580   74.6070    0.8840 C.3       1 NGT         0.1382
     16 C2         27.8620   73.1010    0.5680 C.3       1 NGT         0.0652
     17 C3         28.5030   73.0640   -0.8470 C.3       1 NGT         0.0958
     18 C4         27.8500   74.0390   -1.8920 C.3       1 NGT         0.1166
     19 C5         27.8180   75.4690   -1.4020 C.3       1 NGT         0.1120
     20 C6         27.0860   76.4740   -2.2830 C.3       1 NGT         0.0730
     21 C7         29.7150   73.3520    1.9800 C.2       1 NGT         0.0728
     22 C8         30.8720   72.8570    2.8080 C.3       1 NGT         0.0106
     23 N2         28.9210   72.5390    1.3980 N.2       1 NGT        -0.3502
     24 S1         29.3770   74.9730    1.7370 S.3       1 NGT        -0.0199
     25 O3         28.5340   71.7430   -1.4360 O.3       1 NGT        -0.3883
     26 O4         28.5970   74.1480   -3.1200 O.3       1 NGT        -0.3402
     27 O5         27.2890   75.5140   -0.0890 O.3       1 NGT        -0.3535
     28 O6         25.7120   76.4000   -1.9740 O.3       1 NGT        -0.3924
     29 H1         27.0511   73.2836   -4.1486 H         1 SN5         0.0937
     30 H2         29.3634   74.8133   -5.4993 H         1 SN5         0.0662
     31 H3         27.2454   73.1516   -6.9951 H         1 SN5         0.0647
     32 H4         30.2060   72.3735   -6.5846 H         1 SN5         0.0647
     33 H5         27.8752   71.0750   -5.1075 H         1 SN5         0.0647
     34 H6         30.8729   70.7012   -4.6954 H         1 SN5         0.0584
     35 H7         29.8795   69.6541   -5.7647 H         1 SN5         0.0584
     36 H8         25.5056   77.1201   -5.7974 H         1 SN5         0.0485
     37 H9         26.5322   78.2224   -6.7760 H         1 SN5         0.0485
     38 H10        26.4875   78.3879   -4.9879 H         1 SN5         0.0485
     39 H11        26.3776   75.0773   -5.6237 H         1 SN5         0.2006
     40 H12        28.6032   74.7277   -8.1257 H         1 SN5         0.2100
     41 H13        27.8358   71.0105   -7.3763 H         1 SN5         0.2100
     42 H14        30.0995   68.7971   -3.6212 H         1 SN5         0.2095
     43 H15        27.1118   74.6895    1.6879 H         1 SN5         0.0761
     44 H16        26.8851   72.6041    0.6612 H         1 SN5         0.0431
     45 H17        29.5462   73.3864   -0.7136 H         1 SN5         0.0628
     46 H18        26.8300   73.6842   -2.1009 H         1 SN5         0.0650
     47 H19        28.8648   75.8034   -1.3532 H         1 SN5         0.0646
     48 H20        27.2446   76.2272   -3.3431 H         1 SN5         0.0584
     49 H21        27.4601   77.4889   -2.0829 H         1 SN5         0.0584
     50 H22        30.8761   71.7570    2.8117 H         1 SN5         0.0521
     51 H23        30.7698   73.2268    3.8389 H         1 SN5         0.0521
     52 H24        31.8149   73.2257    2.3779 H         1 SN5         0.0521
     53 H25        29.0490   71.7653   -2.2341 H         1 SN5         0.2099
     54 H26        25.5831   76.6105   -1.0566 H         1 SN5         0.2095
@<TRIPOS>BOND
     1    1    3 1  
     2    1   13 1  
     3   26    1 1  
     4    8    2 2  
     5    3    4 1  
     6    3   10 1  
     7    4    5 1  
     8    4   11 1  
     9    6    5 1  
    10    5   12 1  
    11    6    7 1  
    12   13    6 1  
    13    7   14 1  
    14    8    9 1  
    15   10    8 am 
    16   16   15 1  
    17   15   24 1  
    18   15   27 1  
    19   16   17 1  
    20   23   16 1  
    21   17   18 1  
    22   17   25 1  
    23   18   19 1  
    24   18   26 1  
    25   19   20 1  
    26   27   19 1  
    27   20   28 1  
    28   21   22 1  
    29   21   23 2  
    30   21   24 1  
    31    1   29 1  
    32    3   30 1  
    33    4   31 1  
    34    5   32 1  
    35    6   33 1  
    36    7   34 1  
    37    7   35 1  
    38    9   36 1  
    39    9   37 1  
    40    9   38 1  
    41   10   39 1  
    42   11   40 1  
    43   12   41 1  
    44   14   42 1  
    45   15   43 1  
    46   16   44 1  
    47   17   45 1  
    48   18   46 1  
    49   19   47 1  
    50   20   48 1  
    51   20   49 1  
    52   22   50 1  
    53   22   51 1  
    54   22   52 1  
    55   25   53 1  
    56   28   54 1  
@<TRIPOS>SUBSTRUCTURE
     1 SN5         1

