### 
### Created by X-TOOL on Mon Sep 10 21:13:03 2018
### 

@<TRIPOS>MOLECULE
2wlz_ligand
   54    56     1     0     0
SMALL
GAST_HUCK


@<TRIPOS>ATOM
      1 C1         28.2890   74.4350    1.0540 C.3       1 NGT         0.1382
      2 C2         28.3970   72.9490    0.6140 C.3       1 NGT         0.0652
      3 C3         28.9560   72.9300   -0.8280 C.3       1 NGT         0.0958
      4 C4         28.2800   73.9850   -1.7740 C.3       1 NGT         0.1166
      5 C5         28.2890   75.4200   -1.1740 C.3       1 NGT         0.1120
      6 C6         27.5550   76.5210   -1.9730 C.3       1 NGT         0.0730
      7 C7         30.1390   73.2310    2.1350 C.2       1 NGT         0.0728
      8 C8         31.2910   72.7610    2.9300 C.3       1 NGT         0.0106
      9 N2         29.4890   72.4090    1.4180 N.2       1 NGT        -0.3502
     10 S1         29.6930   74.8430    2.0740 S.3       1 NGT        -0.0199
     11 O3         29.0590   71.5870   -1.3970 O.3       1 NGT        -0.3883
     12 O4         29.0350   74.2340   -2.9690 O.3       1 NGT        -0.3405
     13 O5         27.7510   75.4240    0.1440 O.3       1 NGT        -0.3535
     14 O6         26.1420   76.3400   -1.8650 O.3       1 NGT        -0.3924
     15 C1         28.7810   73.3230   -4.0570 C.3       1 NAG         0.1854
     16 C2         28.9960   74.1740   -5.3290 C.3       1 NAG         0.1210
     17 C3         28.9510   73.2960   -6.5970 C.3       1 NAG         0.1111
     18 C4         29.6420   71.9190   -6.4630 C.3       1 NAG         0.1116
     19 C5         29.4060   71.2720   -5.0800 C.3       1 NAG         0.1130
     20 C6         30.1730   69.9780   -4.7830 C.3       1 NAG         0.0730
     21 C7         28.5570   76.6610   -5.2310 C.2       1 NAG         0.1733
     22 C8         27.5530   77.7840   -5.2350 C.3       1 NAG         0.0257
     23 N2         28.1160   75.3690   -5.3450 N.am      1 NAG        -0.2766
     24 O3         29.6630   73.9680   -7.5920 O.3       1 NAG        -0.3867
     25 O4         29.1540   71.1020   -7.5040 O.3       1 NAG        -0.3865
     26 O5         29.6740   72.2110   -4.0500 O.3       1 NAG        -0.3408
     27 O6         29.7600   69.6080   -3.4870 O.3       1 NAG        -0.3924
     28 O7         29.7220   77.0130   -5.1310 O.2       1 NAG        -0.3974
     29 H1         27.4745   74.3946    1.7922 H         1 NGT         0.0761
     30 H2         27.4512   72.3976    0.7201 H         1 NGT         0.0431
     31 H3         29.9973   73.2708   -0.7304 H         1 NGT         0.0628
     32 H4         27.2581   73.6505   -2.0060 H         1 NGT         0.0650
     33 H5         29.3455   75.7202   -1.1131 H         1 NGT         0.0646
     34 H6         27.8504   76.4623   -3.0310 H         1 NGT         0.0584
     35 H7         27.8281   77.5075   -1.5702 H         1 NGT         0.0584
     36 H8         31.3927   71.6713    2.8193 H         1 NGT         0.0521
     37 H9         31.1306   73.0085    3.9897 H         1 NGT         0.0521
     38 H10        32.2079   73.2529    2.5732 H         1 NGT         0.0521
     39 H11        29.5781   71.6200   -2.1920 H         1 NGT         0.2099
     40 H12        25.8862   76.3916   -0.9516 H         1 NGT         0.2095
     41 H13        27.7463   72.9529   -4.0089 H         1 NGT         0.0935
     42 H14        30.0229   74.5642   -5.2734 H         1 NGT         0.0633
     43 H15        27.9020   73.1503   -6.8941 H         1 NGT         0.0645
     44 H16        30.7259   72.0536   -6.5931 H         1 NGT         0.0647
     45 H17        28.3364   71.0190   -5.0361 H         1 NGT         0.0647
     46 H18        31.2583   70.1555   -4.8086 H         1 NGT         0.0584
     47 H19        29.9120   69.1962   -5.5115 H         1 NGT         0.0584
     48 H20        28.0780   78.7455   -5.1355 H         1 NGT         0.0467
     49 H21        26.8575   77.6571   -4.3923 H         1 NGT         0.0467
     50 H22        26.9904   77.7695   -6.1801 H         1 NGT         0.0467
     51 H23        27.1322   75.2207   -5.4461 H         1 NGT         0.1857
     52 H24        29.6167   73.4735   -8.4018 H         1 NGT         0.2100
     53 H25        28.2205   70.9680   -7.3888 H         1 NGT         0.2100
     54 H26        30.1995   68.8050   -3.2329 H         1 NGT         0.2095
@<TRIPOS>BOND
     1    2    1 1  
     2    1   10 1  
     3   13    1 1  
     4    3    2 1  
     5    2    9 1  
     6    4    3 1  
     7    3   11 1  
     8    4    5 1  
     9   12    4 1  
    10    5    6 1  
    11    5   13 1  
    12    6   14 1  
    13    7    8 1  
    14    9    7 2  
    15   10    7 1  
    16   15   12 1  
    17   16   15 1  
    18   15   26 1  
    19   16   17 1  
    20   23   16 1  
    21   17   18 1  
    22   17   24 1  
    23   18   19 1  
    24   18   25 1  
    25   19   20 1  
    26   26   19 1  
    27   20   27 1  
    28   21   22 1  
    29   21   23 am 
    30   21   28 2  
    31    1   29 1  
    32    2   30 1  
    33    3   31 1  
    34    4   32 1  
    35    5   33 1  
    36    6   34 1  
    37    6   35 1  
    38    8   36 1  
    39    8   37 1  
    40    8   38 1  
    41   11   39 1  
    42   14   40 1  
    43   15   41 1  
    44   16   42 1  
    45   17   43 1  
    46   18   44 1  
    47   19   45 1  
    48   20   46 1  
    49   20   47 1  
    50   22   48 1  
    51   22   49 1  
    52   22   50 1  
    53   23   51 1  
    54   24   52 1  
    55   25   53 1  
    56   27   54 1  
@<TRIPOS>SUBSTRUCTURE
     1 NGT         1

