### 
### Created by X-TOOL on Mon Sep 10 21:13:02 2018
### 

@<TRIPOS>MOLECULE
2wm0_ligand
   81    84     1     0     0
SMALL
GAST_HUCK


@<TRIPOS>ATOM
      1 C1         31.1540   71.3070   -8.2240 C.3       1 NAG         0.1854
      2 C2         31.7290   69.9540   -8.6280 C.3       1 NAG         0.1210
      3 C3         32.7490   70.1670   -9.7440 C.3       1 NAG         0.1111
      4 C4         32.1770   70.9380  -10.9320 C.3       1 NAG         0.1116
      5 C5         31.4960   72.1930  -10.4630 C.3       1 NAG         0.1130
      6 C6         30.7140   72.7220  -11.6570 C.3       1 NAG         0.0730
      7 C7         31.9810   68.1480   -6.9630 C.2       1 NAG         0.1733
      8 C8         32.8550   67.5040   -5.8940 C.3       1 NAG         0.0257
      9 N2         32.4460   69.2810   -7.5460 N.am      1 NAG        -0.2766
     10 O3         33.1930   68.9270  -10.2000 O.3       1 NAG        -0.3867
     11 O4         33.1470   71.2380  -11.9300 O.3       1 NAG        -0.3865
     12 O5         30.6040   71.9210   -9.3900 O.3       1 NAG        -0.3408
     13 O6         29.8620   73.7690  -11.2290 O.3       1 NAG        -0.3924
     14 O7         30.8710   67.6550   -7.2440 O.2       1 NAG        -0.3974
     15 C1         28.7040   73.2640   -4.0500 C.3       1 NAG         0.1854
     16 C2         29.2040   74.1810   -5.1900 C.3       1 NAG         0.1210
     17 C3         29.3420   73.3310   -6.4570 C.3       1 NAG         0.1114
     18 C4         30.0760   71.9930   -6.1790 C.3       1 NAG         0.1181
     19 C5         29.4860   71.2600   -4.9710 C.3       1 NAG         0.1134
     20 C6         30.2630   70.0140   -4.5610 C.3       1 NAG         0.0730
     21 C7         28.6130   76.6030   -5.2760 C.2       1 NAG         0.1733
     22 C8         27.4970   77.6030   -5.4940 C.3       1 NAG         0.0257
     23 N2         28.2780   75.2900   -5.3750 N.am      1 NAG        -0.2766
     24 O3         30.1200   74.0900   -7.3290 O.3       1 NAG        -0.3867
     25 O4         30.1190   71.0970   -7.2570 O.3       1 NAG        -0.3404
     26 O5         29.6200   72.1750   -3.9050 O.3       1 NAG        -0.3408
     27 O6         29.6330   69.5210   -3.4030 O.3       1 NAG        -0.3924
     28 O7         29.7380   77.0180   -5.0270 O.2       1 NAG        -0.3974
     29 C1         28.2810   74.3900    1.1040 C.3       1 NGT         0.1382
     30 C2         28.4020   72.8820    0.7470 C.3       1 NGT         0.0652
     31 C3         28.9590   72.8340   -0.7150 C.3       1 NGT         0.0958
     32 C4         28.3160   73.8900   -1.6860 C.3       1 NGT         0.1166
     33 C5         28.3430   75.3050   -1.0850 C.3       1 NGT         0.1120
     34 C6         27.6030   76.3800   -1.8970 C.3       1 NGT         0.0730
     35 C7         30.2180   73.2590    2.1760 C.2       1 NGT         0.0728
     36 C8         31.4180   72.8250    2.9670 C.3       1 NGT         0.0106
     37 N2         29.5250   72.3990    1.5540 N.2       1 NGT        -0.3502
     38 S1         29.7320   74.8780    2.0140 S.3       1 NGT        -0.0199
     39 O3         29.0800   71.5080   -1.3210 O.3       1 NGT        -0.3883
     40 O4         29.0290   74.1080   -2.9200 O.3       1 NGT        -0.3405
     41 O5         27.7370   75.3140    0.1810 O.3       1 NGT        -0.3535
     42 O6         26.2010   76.1340   -1.7800 O.3       1 NGT        -0.3924
     43 H1         31.9426   71.9443   -7.7975 H         1 NAG         0.0935
     44 H2         30.9090   69.3097   -8.9780 H         1 NAG         0.0633
     45 H3         33.5999   70.7317   -9.3353 H         1 NAG         0.0645
     46 H4         31.4155   70.2972  -11.4005 H         1 NAG         0.0647
     47 H5         32.2447   72.9304  -10.1379 H         1 NAG         0.0647
     48 H6         30.1107   71.9107  -12.0903 H         1 NAG         0.0584
     49 H7         31.4137   73.1038  -12.4151 H         1 NAG         0.0584
     50 H8         32.3589   66.6004   -5.5102 H         1 NAG         0.0467
     51 H9         33.0100   68.2154   -5.0695 H         1 NAG         0.0467
     52 H10        33.8271   67.2312   -6.3305 H         1 NAG         0.0467
     53 H11        33.3095   69.6696   -7.2245 H         1 NAG         0.1857
     54 H12        33.5526   68.4335   -9.4723 H         1 NAG         0.2100
     55 H13        32.7200   71.6525  -12.6706 H         1 NAG         0.2100
     56 H14        29.2591   73.4374  -10.5740 H         1 NAG         0.2095
     57 H15        27.6516   72.9554   -4.1351 H         1 NAG         0.0935
     58 H16        30.1905   74.5887   -4.9243 H         1 NAG         0.0633
     59 H17        28.3513   73.1270   -6.8892 H         1 NAG         0.0645
     60 H18        31.1163   72.2554   -5.9365 H         1 NAG         0.0650
     61 H19        28.4337   71.0007   -5.1592 H         1 NAG         0.0647
     62 H20        31.3103   70.2718   -4.3448 H         1 NAG         0.0584
     63 H21        30.2285   69.2621   -5.3631 H         1 NAG         0.0584
     64 H22        27.8933   78.6236   -5.3880 H         1 NAG         0.0467
     65 H23        26.7056   77.4377   -4.7481 H         1 NAG         0.0467
     66 H24        27.0814   77.4742   -6.5043 H         1 NAG         0.0467
     67 H25        27.3268   75.0690   -5.5905 H         1 NAG         0.1857
     68 H26        30.9656   74.2603   -6.9306 H         1 NAG         0.2100
     69 H27        29.6629   70.1824   -2.7216 H         1 NAG         0.2095
     70 H28        27.4960   74.3871    1.8745 H         1 NAG         0.0761
     71 H29        27.4687   72.3173    0.8887 H         1 NAG         0.0431
     72 H30        30.0012   73.1681   -0.6043 H         1 NAG         0.0628
     73 H31        27.2838   73.5736   -1.8969 H         1 NAG         0.0650
     74 H32        29.3973   75.6038   -0.9895 H         1 NAG         0.0646
     75 H33        27.9050   76.3239   -2.9532 H         1 NAG         0.0584
     76 H34        27.8413   77.3778   -1.5000 H         1 NAG         0.0584
     77 H35        31.5152   71.7305    2.9149 H         1 NAG         0.0521
     78 H36        31.2966   73.1327    4.0161 H         1 NAG         0.0521
     79 H37        32.3214   73.2936    2.5496 H         1 NAG         0.0521
     80 H38        29.6282   71.5636   -2.0949 H         1 NAG         0.2099
     81 H39        25.9477   76.1804   -0.8655 H         1 NAG         0.2095
@<TRIPOS>BOND
     1    1    2 1  
     2    1   12 1  
     3   25    1 1  
     4    2    3 1  
     5    2    9 1  
     6    3    4 1  
     7    3   10 1  
     8    5    4 1  
     9    4   11 1  
    10    5    6 1  
    11   12    5 1  
    12    6   13 1  
    13    7    8 1  
    14    9    7 am 
    15    7   14 2  
    16   15   16 1  
    17   15   26 1  
    18   40   15 1  
    19   16   17 1  
    20   16   23 1  
    21   17   18 1  
    22   17   24 1  
    23   19   18 1  
    24   18   25 1  
    25   19   20 1  
    26   26   19 1  
    27   20   27 1  
    28   21   22 1  
    29   23   21 am 
    30   21   28 2  
    31   30   29 1  
    32   29   38 1  
    33   29   41 1  
    34   30   31 1  
    35   37   30 1  
    36   31   32 1  
    37   31   39 1  
    38   32   33 1  
    39   32   40 1  
    40   33   34 1  
    41   41   33 1  
    42   34   42 1  
    43   35   36 1  
    44   35   37 2  
    45   35   38 1  
    46    1   43 1  
    47    2   44 1  
    48    3   45 1  
    49    4   46 1  
    50    5   47 1  
    51    6   48 1  
    52    6   49 1  
    53    8   50 1  
    54    8   51 1  
    55    8   52 1  
    56    9   53 1  
    57   10   54 1  
    58   11   55 1  
    59   13   56 1  
    60   15   57 1  
    61   16   58 1  
    62   17   59 1  
    63   18   60 1  
    64   19   61 1  
    65   20   62 1  
    66   20   63 1  
    67   22   64 1  
    68   22   65 1  
    69   22   66 1  
    70   23   67 1  
    71   24   68 1  
    72   27   69 1  
    73   29   70 1  
    74   30   71 1  
    75   31   72 1  
    76   32   73 1  
    77   33   74 1  
    78   34   75 1  
    79   34   76 1  
    80   36   77 1  
    81   36   78 1  
    82   36   79 1  
    83   39   80 1  
    84   42   81 1  
@<TRIPOS>SUBSTRUCTURE
     1 NAG         1

