### 
### Created by X-TOOL on Mon Sep 10 21:13:01 2018
### 

@<TRIPOS>MOLECULE
2wmr_ligand
   24    26     1     0     0
SMALL
GAST_HUCK


@<TRIPOS>ATOM
      1 OAA        13.0010    0.1900    6.1130 O.2       1 ZYR        -0.4056
      2 CAL        12.0620   -0.3060    6.7290 C.2       1 ZYR         0.2115
      3 CAN        12.2510   -1.4270    7.5230 C.2       1 ZYR         0.0417
      4 CAK        13.4300   -2.1300    7.8200 C.2       1 ZYR        -0.0531
      5 CAF        14.8020   -1.9610    7.2260 C.3       1 ZYR        -0.0378
      6 CAD        16.0810   -2.5240    7.9160 C.3       1 ZYR        -0.0470
      7 CAC        15.7590   -4.0170    8.0060 C.3       1 ZYR        -0.0436
      8 CAE        14.5060   -4.0160    8.9270 C.3       1 ZYR        -0.0175
      9 CAJ        13.2590   -3.2600    8.5660 C.2       1 ZYR         0.0045
     10 SAI        11.6730   -3.2760    9.0630 S.3       1 ZYR        -0.0355
     11 CAM        11.1420   -1.9420    8.1990 C.2       1 ZYR         0.0763
     12 NAG         9.9330   -1.3780    8.0910 N.2       1 ZYR        -0.2837
     13 CAB         9.7380   -0.3140    7.3430 C.2       1 ZYR         0.1258
     14 NAH        10.7950    0.2570    6.6370 N.am      1 ZYR        -0.2050
     15 H          14.9565   -0.8822    7.2450 H         1 ZYR         0.0351
     16 H          14.7470   -2.5236    6.2941 H         1 ZYR         0.0351
     17 H          16.2877   -2.0667    8.8836 H         1 ZYR         0.0281
     18 H          16.9982   -2.3114    7.3669 H         1 ZYR         0.0281
     19 H          16.5827   -4.6159    8.3946 H         1 ZYR         0.0287
     20 H          15.5842   -4.4825    7.0360 H         1 ZYR         0.0287
     21 H          14.8534   -3.5221    9.8345 H         1 ZYR         0.0408
     22 H          14.1851   -5.0577    8.9270 H         1 ZYR         0.0408
     23 H           8.7424    0.1244    7.2748 H         1 ZYR         0.1475
     24 H          10.6399    1.0818    6.0572 H         1 ZYR         0.2561
@<TRIPOS>BOND
     1    1    2 2  
     2    2    3 1  
     3    2   14 am 
     4    3    4 1  
     5    3   11 2  
     6    4    5 1  
     7    4    9 2  
     8    5    6 1  
     9    6    7 1  
    10    7    8 1  
    11    8    9 1  
    12    9   10 1  
    13   10   11 1  
    14   11   12 1  
    15   12   13 2  
    16   13   14 1  
    17    5   15 1  
    18    5   16 1  
    19    6   17 1  
    20    6   18 1  
    21    7   19 1  
    22    7   20 1  
    23    8   21 1  
    24    8   22 1  
    25   13   23 1  
    26   14   24 1  
@<TRIPOS>SUBSTRUCTURE
     1 ZYR         1

