### 
### Created by X-TOOL on Mon Sep 10 21:13:02 2018
### 

@<TRIPOS>MOLECULE
2wmu_ligand
   26    28     1     0     0
SMALL
GAST_HUCK


@<TRIPOS>ATOM
      1 CAO        14.5360   -3.3190    9.0330 C.3       1 ZYU         0.0553
      2 CAN        14.3770   -4.8290    8.9910 C.3       1 ZYU         0.0682
      3 OAL        13.3390   -5.3460    9.8410 O.3       1 ZYU        -0.3757
      4 CAK        12.1420   -4.7290    9.3330 C.3       1 ZYU         0.0682
      5 CAP        12.1560   -3.2090    9.4020 C.3       1 ZYU         0.0553
      6 C6         13.1720   -1.6050    7.7920 C.ar      1 ZYU         0.1576
      7 N1         14.2450   -1.0080    7.2690 N.ar      1 ZYU        -0.2689
      8 C2         14.0990    0.0540    6.5030 C.ar      1 ZYU         0.0502
      9 N3         12.9160    0.5840    6.2730 N.ar      1 ZYU        -0.2948
     10 C4         11.8140    0.0530    6.8010 C.ar      1 ZYU         0.1017
     11 C5         11.9240   -1.0590    7.5900 C.ar      1 ZYU         0.1547
     12 N7         10.7100   -1.3910    7.9900 N.pl3     1 ZYU        -0.2409
     13 C8          9.8560   -0.5220    7.4730 C.2       1 ZYU         0.1112
     14 N9         10.5280    0.3620    6.7470 N.2       1 ZYU        -0.2857
     15 N6         13.2830   -2.6980    8.6270 N.pl3     1 ZYU        -0.2828
     16 H          15.3333   -3.0147    8.3549 H         1 ZYU         0.0548
     17 H          14.7907   -3.0046   10.0451 H         1 ZYU         0.0548
     18 H          15.3165   -5.2574    9.3400 H         1 ZYU         0.0580
     19 H          14.1103   -5.0922    7.9674 H         1 ZYU         0.0580
     20 H          11.3122   -5.0742    9.9497 H         1 ZYU         0.0580
     21 H          12.0553   -5.0054    8.2822 H         1 ZYU         0.0580
     22 H          12.2556   -2.8930   10.4404 H         1 ZYU         0.0548
     23 H          11.2251   -2.8177    8.9916 H         1 ZYU         0.0548
     24 H          14.9805    0.5055    6.0479 H         1 ZYU         0.0974
     25 H          10.4721   -2.1792    8.5921 H         1 ZYU         0.2376
     26 H           8.7760   -0.5311    7.6199 H         1 ZYU         0.1402
@<TRIPOS>BOND
     1    1    2 1  
     2   15    1 1  
     3    2    3 1  
     4    4    3 1  
     5    5    4 1  
     6   15    5 1  
     7    6    7 ar 
     8    6   11 ar 
     9    6   15 1  
    10    7    8 ar 
    11    8    9 ar 
    12    9   10 ar 
    13   10   11 ar 
    14   10   14 1  
    15   11   12 1  
    16   12   13 1  
    17   13   14 2  
    18    1   16 1  
    19    1   17 1  
    20    2   18 1  
    21    2   19 1  
    22    4   20 1  
    23    4   21 1  
    24    5   22 1  
    25    5   23 1  
    26    8   24 1  
    27   12   25 1  
    28   13   26 1  
@<TRIPOS>SUBSTRUCTURE
     1 ZYU         1

