### 
### Created by X-TOOL on Mon Sep 10 21:13:01 2018
### 

@<TRIPOS>MOLECULE
2wmv_ligand
   32    34     1     0     0
SMALL
GAST_HUCK


@<TRIPOS>ATOM
      1 C5         12.1790   -1.6350    7.5780 C.ar      1 ZYV         0.1046
      2 N7         11.0220   -1.9050    8.1590 N.2       1 ZYV        -0.2960
      3 C8         10.1690   -0.9350    7.8400 C.2       1 ZYV         0.1072
      4 N9         10.7770   -0.0500    7.0580 N.pl3     1 ZYV        -0.2361
      5 C4         12.0230   -0.4580    6.8760 C.ar      1 ZYV         0.1567
      6 N3         13.0570    0.0410    6.1890 N.ar      1 ZYV        -0.2715
      7 C2         14.2190   -0.5830    6.1830 C.ar      1 ZYV         0.0533
      8 N1         14.4000   -1.7120    6.8440 N.ar      1 ZYV        -0.2695
      9 C6         13.4100   -2.2650    7.5550 C.ar      1 ZYV         0.1350
     10 N6         13.6300   -3.4650    8.2390 N.pl3     1 ZYV        -0.2824
     11 CAG        12.5460   -4.2530    8.8430 C.3       1 ZYV         0.0640
     12 CAF        14.9330   -4.1310    8.2130 C.3       1 ZYV         0.0562
     13 CAE        15.2900   -4.6580    9.5940 C.3       1 ZYV         0.0690
     14 OAL        14.3150   -5.5980   10.0630 O.3       1 ZYV        -0.3672
     15 CAP        13.0580   -4.9020   10.1350 C.3       1 ZYV         0.1187
     16 CAD        13.5060   -3.8390   11.1240 C.3       1 ZYV        -0.0065
     17 NAA        13.9960   -4.4980   12.3410 N.4       1 ZYV         0.2204
     18 H           9.1317   -0.8757    8.1694 H         1 ZYV         0.1346
     19 H          10.3582    0.7940    6.6672 H         1 ZYV         0.2393
     20 H          15.0491   -0.1571    5.6195 H         1 ZYV         0.0996
     21 H          12.2230   -5.0269    8.1467 H         1 ZYV         0.0555
     22 H          11.7013   -3.6022    9.0691 H         1 ZYV         0.0555
     23 H          15.6914   -3.4128    7.9013 H         1 ZYV         0.0550
     24 H          14.8891   -4.9674    7.5154 H         1 ZYV         0.0550
     25 H          15.3224   -3.8177   10.2875 H         1 ZYV         0.0581
     26 H          16.2550   -5.1612    9.5337 H         1 ZYV         0.0581
     27 H          12.2144   -5.5477   10.3791 H         1 ZYV         0.0671
     28 H          12.6673   -3.1876   11.3699 H         1 ZYV         0.0839
     29 H          14.3022   -3.2386   10.6840 H         1 ZYV         0.0839
     30 H          14.2990   -3.7908   13.0107 H         1 ZYV         0.1995
     31 H          13.2461   -5.0558   12.7496 H         1 ZYV         0.1995
     32 H          14.7821   -5.1036   12.1052 H         1 ZYV         0.1995
@<TRIPOS>BOND
     1    1    2 1  
     2    1    5 ar 
     3    1    9 ar 
     4    2    3 2  
     5    3    4 1  
     6    4    5 1  
     7    5    6 ar 
     8    6    7 ar 
     9    7    8 ar 
    10    8    9 ar 
    11    9   10 1  
    12   10   11 1  
    13   10   12 1  
    14   11   15 1  
    15   12   13 1  
    16   13   14 1  
    17   14   15 1  
    18   15   16 1  
    19   16   17 1  
    20    3   18 1  
    21    4   19 1  
    22    7   20 1  
    23   11   21 1  
    24   11   22 1  
    25   12   23 1  
    26   12   24 1  
    27   13   25 1  
    28   13   26 1  
    29   15   27 1  
    30   16   28 1  
    31   16   29 1  
    32   17   30 1  
    33   17   31 1  
    34   17   32 1  
@<TRIPOS>SUBSTRUCTURE
     1 ZYV         1

