### 
### Created by X-TOOL on Mon Sep 10 21:13:01 2018
### 

@<TRIPOS>MOLECULE
2wmw_ligand
   33    35     1     0     0
SMALL
GAST_HUCK


@<TRIPOS>ATOM
      1 BR         19.6460   -2.3340    9.6560 Br        1 ZYW        -0.0631
      2 CAM        17.9080   -1.6170    9.5880 C.ar      1 ZYW         0.0457
      3 CAC        17.6890   -0.4450    8.8800 C.ar      1 ZYW        -0.0072
      4 NAJ        16.4900    0.0960    8.8040 N.ar      1 ZYW        -0.2966
      5 CAP        15.4490   -0.4750    9.4140 C.ar      1 ZYW         0.1463
      6 NAK        14.1730   -0.1460    9.4980 N.pl3     1 ZYW        -0.2036
      7 NAI        13.5770   -0.9800   10.1750 N.2       1 ZYW        -0.2073
      8 CAD        14.4080   -1.9270   10.5930 C.2       1 ZYW         0.0248
      9 CAO        15.6080   -1.6400   10.1290 C.ar      1 ZYW         0.0592
     10 CAN        16.8530   -2.2350   10.2350 C.ar      1 ZYW         0.0726
     11 NAQ        17.0150   -3.4240   10.9590 N.pl3     1 ZYW        -0.2920
     12 CAH        18.0540   -3.6090   12.0000 C.3       1 ZYW         0.0631
     13 CAG        16.0820   -4.5360   10.7040 C.3       1 ZYW         0.0553
     14 CAF        15.7630   -5.3090   11.9820 C.3       1 ZYW         0.0689
     15 OAL        16.9530   -5.5350   12.7210 O.3       1 ZYW        -0.3672
     16 CAR        17.3830   -4.2830   13.2180 C.3       1 ZYW         0.1186
     17 CAE        18.1480   -4.5350   14.5460 C.3       1 ZYW        -0.0065
     18 NAA        19.6070   -4.5450   14.3670 N.4       1 ZYW         0.2204
     19 H          18.5258    0.0386    8.3761 H         1 ZYW         0.0776
     20 H          13.7475    0.6747    9.0669 H         1 ZYW         0.2481
     21 H          14.1454   -2.7871   11.2090 H         1 ZYW         0.0725
     22 H          18.4806   -2.6475   12.2856 H         1 ZYW         0.0554
     23 H          18.8647   -4.2312   11.6208 H         1 ZYW         0.0554
     24 H          16.5486   -5.2206    9.9956 H         1 ZYW         0.0549
     25 H          15.1531   -4.1222   10.3117 H         1 ZYW         0.0549
     26 H          15.3158   -6.2678   11.7195 H         1 ZYW         0.0580
     27 H          15.0683   -4.7283   12.5889 H         1 ZYW         0.0580
     28 H          16.6437   -3.5569   13.5560 H         1 ZYW         0.0671
     29 H          17.8504   -5.5134   14.9233 H         1 ZYW         0.0839
     30 H          17.9007   -3.7261   15.2334 H         1 ZYW         0.0839
     31 H          20.0575   -4.7138   15.2664 H         1 ZYW         0.1995
     32 H          19.8630   -5.2847   13.7130 H         1 ZYW         0.1995
     33 H          19.9092   -3.6435   13.9978 H         1 ZYW         0.1995
@<TRIPOS>BOND
     1    1    2 1  
     2    2    3 ar 
     3    2   10 ar 
     4    3    4 ar 
     5    4    5 ar 
     6    5    6 1  
     7    5    9 ar 
     8    6    7 1  
     9    7    8 2  
    10    8    9 1  
    11    9   10 ar 
    12   10   11 1  
    13   11   12 1  
    14   11   13 1  
    15   12   16 1  
    16   13   14 1  
    17   14   15 1  
    18   15   16 1  
    19   16   17 1  
    20   17   18 1  
    21    3   19 1  
    22    6   20 1  
    23    8   21 1  
    24   12   22 1  
    25   12   23 1  
    26   13   24 1  
    27   13   25 1  
    28   14   26 1  
    29   14   27 1  
    30   16   28 1  
    31   17   29 1  
    32   17   30 1  
    33   18   31 1  
    34   18   32 1  
    35   18   33 1  
@<TRIPOS>SUBSTRUCTURE
     1 ZYW         1

