### 
### Created by X-TOOL on Mon Sep 10 21:13:01 2018
### 

@<TRIPOS>MOLECULE
2wmx_ligand
   43    46     1     0     0
SMALL
GAST_HUCK


@<TRIPOS>ATOM
      1 CAE        19.9780   -2.2090   10.8430 C.ar      1 ZY6        -0.0591
      2 CAC        21.2690   -2.7100   10.8810 C.ar      1 ZY6        -0.0648
      3 CAB        21.9790   -2.8640    9.7050 C.ar      1 ZY6        -0.0649
      4 CAD        21.3910   -2.5160    8.5010 C.ar      1 ZY6        -0.0648
      5 CAF        20.0970   -2.0170    8.4680 C.ar      1 ZY6        -0.0591
      6 CAQ        19.3760   -1.8780    9.6400 C.ar      1 ZY6        -0.0246
      7 CAR        18.0950   -1.3500    9.6320 C.ar      1 ZY6         0.0197
      8 CAG        17.9290   -0.1020    9.0570 C.ar      1 ZY6        -0.0065
      9 NAN        16.7570    0.4920    9.0170 N.ar      1 ZY6        -0.2971
     10 CAU        15.6760   -0.0870    9.5460 C.ar      1 ZY6         0.1455
     11 NAO        14.4120    0.3090    9.6520 N.pl3     1 ZY6        -0.2042
     12 NAM        13.7710   -0.5810   10.2160 N.2       1 ZY6        -0.2075
     13 CAH        14.5530   -1.6060   10.5490 C.2       1 ZY6         0.0245
     14 CAT        15.7770   -1.3280   10.1390 C.ar      1 ZY6         0.0594
     15 CAS        17.0030   -1.9870   10.2000 C.ar      1 ZY6         0.0747
     16 NAV        17.1190   -3.2500   10.8070 N.pl3     1 ZY6        -0.2912
     17 CAL        18.3410   -3.6730   11.5190 C.3       1 ZY6         0.0634
     18 CAK        15.9880   -4.1890   10.7750 C.3       1 ZY6         0.0556
     19 CAJ        15.8580   -4.9280   12.1060 C.3       1 ZY6         0.0690
     20 OAP        17.1270   -5.4460   12.4770 O.3       1 ZY6        -0.3672
     21 CAW        17.9560   -4.3620   12.8350 C.3       1 ZY6         0.1187
     22 CAI        19.1350   -4.9600   13.6220 C.3       1 ZY6        -0.0065
     23 NAA        19.8180   -3.9430   14.4380 N.4       1 ZY6         0.2204
     24 H          19.4274   -2.0732   11.7739 H         1 ZY6         0.0593
     25 H          21.7229   -2.9816   11.8340 H         1 ZY6         0.0609
     26 H          22.9955   -3.2570    9.7255 H         1 ZY6         0.0591
     27 H          21.9488   -2.6349    7.5721 H         1 ZY6         0.0609
     28 H          19.6475   -1.7338    7.5162 H         1 ZY6         0.0593
     29 H          18.7938    0.4021    8.6255 H         1 ZY6         0.0761
     30 H          14.0358    1.1981    9.3228 H         1 ZY6         0.2479
     31 H          14.2390   -2.5121   11.0672 H         1 ZY6         0.0725
     32 H          18.9565   -2.7994   11.7336 H         1 ZY6         0.0555
     33 H          18.9013   -4.3696   10.8954 H         1 ZY6         0.0555
     34 H          16.1593   -4.9185    9.9834 H         1 ZY6         0.0550
     35 H          15.0710   -3.6284   10.5934 H         1 ZY6         0.0550
     36 H          15.1446   -5.7456   12.0028 H         1 ZY6         0.0581
     37 H          15.5045   -4.2399   12.8739 H         1 ZY6         0.0581
     38 H          17.4980   -3.6073   13.4744 H         1 ZY6         0.0671
     39 H          19.8525   -5.3663   12.9090 H         1 ZY6         0.0839
     40 H          18.7471   -5.7305   14.2883 H         1 ZY6         0.0839
     41 H          20.5909   -4.3768   14.9429 H         1 ZY6         0.1995
     42 H          20.1777   -3.2068   13.8305 H         1 ZY6         0.1995
     43 H          19.1570   -3.5432   15.1041 H         1 ZY6         0.1995
@<TRIPOS>BOND
     1    1    2 ar 
     2    1    6 ar 
     3    2    3 ar 
     4    3    4 ar 
     5    4    5 ar 
     6    5    6 ar 
     7    6    7 1  
     8    7    8 ar 
     9    7   15 ar 
    10    8    9 ar 
    11    9   10 ar 
    12   10   11 1  
    13   10   14 ar 
    14   11   12 1  
    15   12   13 2  
    16   13   14 1  
    17   14   15 ar 
    18   15   16 1  
    19   16   17 1  
    20   16   18 1  
    21   17   21 1  
    22   18   19 1  
    23   19   20 1  
    24   20   21 1  
    25   21   22 1  
    26   22   23 1  
    27    1   24 1  
    28    2   25 1  
    29    3   26 1  
    30    4   27 1  
    31    5   28 1  
    32    8   29 1  
    33   11   30 1  
    34   13   31 1  
    35   17   32 1  
    36   17   33 1  
    37   18   34 1  
    38   18   35 1  
    39   19   36 1  
    40   19   37 1  
    41   21   38 1  
    42   22   39 1  
    43   22   40 1  
    44   23   41 1  
    45   23   42 1  
    46   23   43 1  
@<TRIPOS>SUBSTRUCTURE
     1 ZY6         1

