### 
### Created by X-TOOL on Mon Sep 10 21:13:00 2018
### 

@<TRIPOS>MOLECULE
2wnc_ligand
   42    45     1     0     0
SMALL
GAST_HUCK


@<TRIPOS>ATOM
      1 C12       -72.2180  -51.6000  -72.9270 C.2       1 TKT         0.0624
      2 O4        -73.1540  -50.7690  -75.0260 O.2       1 TKT        -0.3761
      3 C8        -70.6700  -44.5530  -73.8420 C.3       1 TKT        -0.0426
      4 C9        -72.6550  -50.5780  -73.9230 C.2       1 TKT         0.2363
      5 C11       -71.5630  -51.4310  -71.7280 C.2       1 TKT         0.0510
      6 O3        -72.4460  -49.2390  -73.4180 O.3       1 TKT        -0.2793
      7 C7        -69.9780  -47.7650  -73.3350 C.3       1 TKT        -0.0045
      8 C6        -70.8180  -47.3390  -72.1030 C.3       1 TKT        -0.0045
      9 N1        -71.1260  -45.9070  -73.7410 N.4       1 TKT         0.2375
     10 C5        -71.9140  -46.3630  -72.6140 C.3       1 TKT        -0.0180
     11 C4        -73.1770  -47.0530  -73.1350 C.3       1 TKT         0.0211
     12 C1        -70.5930  -47.0150  -74.5390 C.3       1 TKT        -0.0180
     13 C2        -71.7370  -47.7920  -75.1820 C.3       1 TKT         0.0211
     14 C3        -72.8620  -48.1360  -74.1820 C.3       1 TKT         0.0960
     15 C13       -72.5080  -55.8510  -72.7620 C.ar      1 TKT        -0.0756
     16 C15       -71.8770  -53.6680  -71.9070 C.ar      1 TKT         0.0693
     17 C16       -72.4530  -53.0640  -73.1150 C.ar      1 TKT        -0.0070
     18 C17       -73.0200  -53.8480  -74.0950 C.ar      1 TKT        -0.0729
     19 C18       -73.0560  -55.2470  -73.9010 C.ar      1 TKT        -0.0783
     20 N10       -71.3830  -52.6580  -71.1420 N.pl3     1 TKT        -0.2695
     21 C21       -71.9120  -55.0570  -71.7660 C.ar      1 TKT        -0.0418
     22 H1        -71.2320  -43.9233  -73.1366 H         1 TKT         0.0778
     23 H2        -70.8298  -44.1877  -74.8672 H         1 TKT         0.0778
     24 H3        -69.5980  -44.5081  -73.5997 H         1 TKT         0.0778
     25 H4        -71.2401  -50.4777  -71.3122 H         1 TKT         0.1070
     26 H5        -70.0433  -48.8526  -73.4865 H         1 TKT         0.0322
     27 H6        -68.9252  -47.4761  -73.2001 H         1 TKT         0.0322
     28 H7        -70.1770  -46.8340  -71.3654 H         1 TKT         0.0322
     29 H8        -71.2843  -48.2215  -71.6405 H         1 TKT         0.0322
     30 H9        -71.9161  -45.7418  -74.3448 H         1 TKT         0.2036
     31 H10       -72.1737  -45.5780  -71.8886 H         1 TKT         0.0852
     32 H11       -73.8295  -46.2961  -73.5946 H         1 TKT         0.0348
     33 H12       -73.6991  -47.5215  -72.2877 H         1 TKT         0.0348
     34 H13       -69.8539  -46.7117  -75.2952 H         1 TKT         0.0852
     35 H14       -71.3365  -48.7289  -75.5965 H         1 TKT         0.0348
     36 H15       -72.1623  -47.1840  -75.9941 H         1 TKT         0.0348
     37 H16       -73.7748  -48.3721  -74.7486 H         1 TKT         0.0651
     38 H17       -72.5433  -56.9285  -72.6486 H         1 TKT         0.0533
     39 H18       -73.4292  -53.4021  -74.9943 H         1 TKT         0.0538
     40 H19       -73.5212  -55.8711  -74.6554 H         1 TKT         0.0519
     41 H20       -70.9269  -52.7981  -70.2291 H         1 TKT         0.2321
     42 H21       -71.4795  -55.5234  -70.8882 H         1 TKT         0.0549
@<TRIPOS>BOND
     1    1    4 1  
     2    5    1 2  
     3   17    1 1  
     4    4    2 2  
     5    9    3 1  
     6    4    6 1  
     7   20    5 1  
     8    6   14 1  
     9    7    8 1  
    10   12    7 1  
    11   10    8 1  
    12   10    9 1  
    13   12    9 1  
    14   11   10 1  
    15   14   11 1  
    16   13   12 1  
    17   14   13 1  
    18   15   19 ar 
    19   21   15 ar 
    20   16   17 ar 
    21   16   20 1  
    22   16   21 ar 
    23   17   18 ar 
    24   18   19 ar 
    25    3   22 1  
    26    3   23 1  
    27    3   24 1  
    28    5   25 1  
    29    7   26 1  
    30    7   27 1  
    31    8   28 1  
    32    8   29 1  
    33    9   30 1  
    34   10   31 1  
    35   11   32 1  
    36   11   33 1  
    37   12   34 1  
    38   13   35 1  
    39   13   36 1  
    40   14   37 1  
    41   15   38 1  
    42   18   39 1  
    43   19   40 1  
    44   20   41 1  
    45   21   42 1  
@<TRIPOS>SUBSTRUCTURE
     1 TKT         1

