### 
### Created by X-TOOL on Mon Sep 10 21:12:59 2018
### 

@<TRIPOS>MOLECULE
2wnj_ligand
   43    45     1     0     0
SMALL
GAST_HUCK


@<TRIPOS>ATOM
      1 C7         30.3020   -6.7100   62.7110 C.2       1 ZY7        -0.0483
      2 C4         31.0570   -7.2610   63.8820 C.ar      1 ZY7         0.0037
      3 C3         30.6470   -8.5950   64.3840 C.ar      1 ZY7         0.0991
      4 O21        29.6210   -9.2440   63.7410 O.3       1 ZY7        -0.3177
      5 C22        29.1900  -10.5610   64.1110 C.3       1 ZY7         0.0614
      6 C2         31.3190   -9.1360   65.4880 C.ar      1 ZY7         0.0015
      7 C5         32.1050   -6.6110   64.5400 C.ar      1 ZY7        -0.0649
      8 C6         32.7410   -7.1750   65.6360 C.ar      1 ZY7        -0.0381
      9 C1         32.3540   -8.4320   66.1050 C.ar      1 ZY7         0.0882
     10 O20        32.9820   -8.9720   67.1950 O.3       1 ZY7        -0.3202
     11 C8         30.2700   -5.4240   62.2900 C.2       1 ZY7        -0.0115
     12 C13        31.0430   -4.2860   62.8960 C.3       1 ZY7        -0.0171
     13 C12        30.0170   -3.1790   63.1270 C.3       1 ZY7        -0.0355
     14 C11        29.5340   -2.6710   61.7770 C.3       1 ZY7        -0.0019
     15 N10        29.0690   -3.8500   61.0520 N.2       1 ZY7        -0.3535
     16 C9         29.4280   -5.0570   61.1470 C.2       1 ZY7         0.0448
     17 C14        28.9980   -5.9840   60.0430 C.ar      1 ZY7         0.0374
     18 C19        27.6530   -6.1190   59.7620 C.ar      1 ZY7         0.0285
     19 N18        27.1810   -6.8870   58.7760 N.ar      1 ZY7        -0.2892
     20 C17        28.0280   -7.5600   57.9960 C.ar      1 ZY7         0.0164
     21 C16        29.4040   -7.4490   58.2090 C.ar      1 ZY7        -0.0278
     22 C15        29.8940   -6.6550   59.2400 C.ar      1 ZY7        -0.0256
     23 C23        33.5530   -8.1350   68.2020 C.3       1 ZY7         0.0606
     24 H1         29.7140   -7.4230   62.1349 H         1 ZY7         0.0636
     25 H2         28.3600  -10.8717   63.4594 H         1 ZY7         0.0583
     26 H3         28.8522  -10.5557   65.1578 H         1 ZY7         0.0583
     27 H4         30.0272  -11.2657   63.9994 H         1 ZY7         0.0583
     28 H5         31.0323  -10.1105   65.8664 H         1 ZY7         0.0475
     29 H6         32.4295   -5.6399   64.1841 H         1 ZY7         0.0590
     30 H7         33.5420   -6.6376   66.1306 H         1 ZY7         0.0478
     31 H8         31.8295   -3.9445   62.2070 H         1 ZY7         0.0415
     32 H9         31.4985   -4.5939   63.8487 H         1 ZY7         0.0415
     33 H10        30.4819   -2.3547   63.6877 H         1 ZY7         0.0293
     34 H11        29.1657   -3.5770   63.6987 H         1 ZY7         0.0293
     35 H12        30.3581   -2.1869   61.2326 H         1 ZY7         0.0372
     36 H13        28.7108   -1.9536   61.9098 H         1 ZY7         0.0372
     37 H14        26.9431   -5.5735   60.3732 H         1 ZY7         0.0886
     38 H15        27.6500   -8.1908   57.1996 H         1 ZY7         0.0865
     39 H16        30.0937   -7.9848   57.5670 H         1 ZY7         0.0723
     40 H17        30.9611   -6.5657   59.4087 H         1 ZY7         0.0794
     41 H18        34.0059   -8.7606   68.9853 H         1 ZY7         0.0581
     42 H19        32.7671   -7.5053   68.6445 H         1 ZY7         0.0581
     43 H20        34.3258   -7.4946   67.7517 H         1 ZY7         0.0581
@<TRIPOS>BOND
     1    1    2 1  
     2    1   11 2  
     3    2    3 ar 
     4    2    7 ar 
     5    3    4 1  
     6    3    6 ar 
     7    4    5 1  
     8    6    9 ar 
     9    7    8 ar 
    10    8    9 ar 
    11    9   10 1  
    12   10   23 1  
    13   11   12 1  
    14   11   16 1  
    15   12   13 1  
    16   13   14 1  
    17   14   15 1  
    18   15   16 2  
    19   16   17 1  
    20   17   18 ar 
    21   17   22 ar 
    22   18   19 ar 
    23   19   20 ar 
    24   20   21 ar 
    25   21   22 ar 
    26    1   24 1  
    27    5   25 1  
    28    5   26 1  
    29    5   27 1  
    30    6   28 1  
    31    7   29 1  
    32    8   30 1  
    33   12   31 1  
    34   12   32 1  
    35   13   33 1  
    36   13   34 1  
    37   14   35 1  
    38   14   36 1  
    39   18   37 1  
    40   20   38 1  
    41   21   39 1  
    42   22   40 1  
    43   23   41 1  
    44   23   42 1  
    45   23   43 1  
@<TRIPOS>SUBSTRUCTURE
     1 ZY7         1

