### 
### Created by X-TOOL on Mon Sep 10 21:13:01 2018
### 

@<TRIPOS>MOLECULE
2wnl_ligand
   28    28     1     0     0
SMALL
GAST_HUCK


@<TRIPOS>ATOM
      1 C11        45.6900   25.0290   52.7880 C.ar      1 AN5        -0.0235
      2 C12        44.6580   25.9580   52.6380 C.ar      1 AN5        -0.0281
      3 C13        44.9430   27.3130   52.4950 C.ar      1 AN5         0.0158
      4 N11        46.2080   27.7350   52.5100 N.ar      1 AN5        -0.2900
      5 C14        47.2060   26.8420   52.6630 C.ar      1 AN5         0.0302
      6 C15        47.0090   25.4720   52.7850 C.ar      1 AN5         0.0606
      7 C16        48.2080   24.5580   52.9910 C.2       1 AN5         0.1408
      8 C17        48.8810   23.6720   51.9500 C.3       1 AN5         0.0240
      9 C18        50.3670   23.4510   52.3290 C.3       1 AN5        -0.0328
     10 O11        48.6890   24.5320   54.1090 O.2       1 AN5        -0.3751
     11 C10        51.4930   21.3550   51.4210 C.3       1 AN5        -0.0353
     12 N12        52.1380   20.1140   51.8090 N.4       1 AN5         0.2185
     13 C1         50.7610   21.9950   52.6060 C.3       1 AN5        -0.0106
     14 H1         45.4660   23.9749   52.9054 H         1 AN5         0.0791
     15 H2         43.6276   25.6214   52.6329 H         1 AN5         0.0723
     16 H3         44.1358   28.0259   52.3713 H         1 AN5         0.0860
     17 H4         48.2234   27.2151   52.6926 H         1 AN5         0.0881
     18 H5         48.8240   24.1583   50.9650 H         1 AN5         0.0486
     19 H6         48.3663   22.7007   51.9097 H         1 AN5         0.0486
     20 H7         50.5782   24.0387   53.2345 H         1 AN5         0.0291
     21 H8         50.9882   23.8196   51.4994 H         1 AN5         0.0291
     22 H9         50.7671   21.1470   50.6212 H         1 AN5         0.0813
     23 H10        52.2562   22.0552   51.0505 H         1 AN5         0.0813
     24 H11        52.6100   19.7171   51.0117 H         1 AN5         0.1994
     25 H12        51.4437   19.4654   52.1456 H         1 AN5         0.1994
     26 H13        52.8083   20.2976   52.5391 H         1 AN5         0.1994
     27 H14        49.8496   21.4152   52.8136 H         1 AN5         0.0318
     28 H15        51.4209   21.9683   53.4856 H         1 AN5         0.0318
@<TRIPOS>BOND
     1    1    2 ar 
     2    6    1 ar 
     3    2    3 ar 
     4    4    3 ar 
     5    5    4 ar 
     6    6    5 ar 
     7    7    6 1  
     8    8    7 1  
     9    7   10 2  
    10    9    8 1  
    11   13    9 1  
    12   11   12 1  
    13   11   13 1  
    14    1   14 1  
    15    2   15 1  
    16    3   16 1  
    17    5   17 1  
    18    8   18 1  
    19    8   19 1  
    20    9   20 1  
    21    9   21 1  
    22   11   22 1  
    23   11   23 1  
    24   12   24 1  
    25   12   25 1  
    26   12   26 1  
    27   13   27 1  
    28   13   28 1  
@<TRIPOS>SUBSTRUCTURE
     1 AN5         1

