### 
### Created by X-TOOL on Mon Sep 10 21:13:00 2018
### 

@<TRIPOS>MOLECULE
2wo8_ligand
   37    38     1     0     0
SMALL
GAST_HUCK


@<TRIPOS>ATOM
      1 C1         20.8540   29.2500   -7.3270 C.ar      1 077        -0.0622
      2 C2         21.3130   26.9900   -5.8850 C.ar      1 077        -0.0557
      3 C3         20.2380   29.0830   -6.0590 C.ar      1 077        -0.0557
      4 C4         21.6950   28.3050   -7.8850 C.ar      1 077        -0.0627
      5 C5         21.9220   27.1490   -7.1350 C.ar      1 077        -0.0622
      6 C6         20.4660   27.9400   -5.3170 C.ar      1 077        -0.0221
      7 C8         19.8640   27.6550   -3.9670 C.ar      1 077        -0.0242
      8 O1         16.0330   25.7210    1.8460 O.3       1 077        -0.3899
      9 C10        18.6710   28.2090   -3.5320 C.ar      1 077        -0.0600
     10 C11        19.9390   26.2760   -1.9720 C.ar      1 077        -0.0589
     11 C12        17.1720   27.2930    0.5070 C.3       1 077        -0.0153
     12 C20        17.0100   26.8000    1.9620 C.3       1 077         0.0684
     13 C13        18.7350   26.8730   -1.5190 C.ar      1 077        -0.0419
     14 C14        20.4670   26.6610   -3.1780 C.ar      1 077        -0.0600
     15 C60        18.1110   27.8430   -2.3210 C.ar      1 077        -0.0589
     16 C16        18.2120   26.4260   -0.2140 C.3       1 077        -0.0162
     17 C17        16.6270   27.8710    2.9930 C.3       1 077         0.0264
     18 C18        16.9080   29.2950    2.5520 C.2       1 077         0.0373
     19 O3         16.1250   29.8660    1.7990 O.co2     1 077        -0.5689
     20 O4         17.9110   29.8510    2.9770 O.co2     1 077        -0.5689
     21 H1         20.6561   30.1594   -7.8828 H         1 077         0.0615
     22 H2         21.5104   26.0803   -5.3295 H         1 077         0.0615
     23 H3         19.5852   29.8564   -5.6708 H         1 077         0.0615
     24 H4         22.1548   28.4538   -8.8553 H         1 077         0.0610
     25 H5         22.5718   26.3726   -7.5222 H         1 077         0.0615
     26 H6         15.8677   25.3512    2.7054 H         1 077         0.2099
     27 H7         18.1674   28.9423   -4.1515 H         1 077         0.0609
     28 H8         20.4368   25.5233   -1.3714 H         1 077         0.0560
     29 H9         17.5069   28.3408    0.5100 H         1 077         0.0314
     30 H10        16.2068   27.2180   -0.0152 H         1 077         0.0314
     31 H11        17.9694   26.3769    2.2944 H         1 077         0.0613
     32 H12        21.3744   26.1853   -3.5321 H         1 077         0.0609
     33 H13        17.1883   28.3059   -1.9902 H         1 077         0.0560
     34 H14        17.7547   25.4380   -0.3714 H         1 077         0.0430
     35 H15        19.0741   26.3276    0.4621 H         1 077         0.0430
     36 H16        17.1940   27.6785    3.9157 H         1 077         0.0456
     37 H17        15.5502   27.7809    3.1988 H         1 077         0.0456
@<TRIPOS>BOND
     1    3    1 ar 
     2    1    4 ar 
     3    2    5 ar 
     4    6    2 ar 
     5    6    3 ar 
     6    5    4 ar 
     7    7    6 1  
     8    9    7 ar 
     9   14    7 ar 
    10   12    8 1  
    11   15    9 ar 
    12   13   10 ar 
    13   10   14 ar 
    14   11   12 1  
    15   16   11 1  
    16   12   17 1  
    17   13   15 ar 
    18   13   16 1  
    19   17   18 1  
    20   18   19 ar 
    21   18   20 ar 
    22    1   21 1  
    23    2   22 1  
    24    3   23 1  
    25    4   24 1  
    26    5   25 1  
    27    8   26 1  
    28    9   27 1  
    29   10   28 1  
    30   11   29 1  
    31   11   30 1  
    32   12   31 1  
    33   14   32 1  
    34   15   33 1  
    35   16   34 1  
    36   16   35 1  
    37   17   36 1  
    38   17   37 1  
@<TRIPOS>SUBSTRUCTURE
     1 077         1

