### 
### Created by X-TOOL on Mon Sep 10 21:13:00 2018
### 

@<TRIPOS>MOLECULE
2wo9_ligand
   42    43     1     0     0
SMALL
GAST_HUCK


@<TRIPOS>ATOM
      1 C19        21.6250   29.7410   -9.9910 C.3       1 068         0.0106
      2 C1         22.5140   29.1990   -8.8700 C.2       1 068         0.1286
      3 O2         23.7010   29.0570   -9.0500 O.2       1 068        -0.3797
      4 C14        21.8580   28.8460   -7.5960 C.ar      1 068         0.0307
      5 C15        22.5940   28.4840   -6.4710 C.ar      1 068        -0.0440
      6 C16        21.9600   28.1540   -5.2800 C.ar      1 068        -0.0503
      7 C13        20.4740   28.8840   -7.4830 C.ar      1 068        -0.0440
      8 C12        19.8420   28.5550   -6.2700 C.ar      1 068        -0.0503
      9 C11        20.5740   28.1800   -5.1450 C.ar      1 068        -0.0179
     10 C8         19.9140   27.7740   -3.8570 C.ar      1 068        -0.0214
     11 C9         20.4750   26.7400   -3.0950 C.ar      1 068        -0.0589
     12 C10        19.9210   26.2990   -1.9130 C.ar      1 068        -0.0582
     13 C7         18.7140   28.2960   -3.4010 C.ar      1 068        -0.0589
     14 C6         18.1260   27.8650   -2.2260 C.ar      1 068        -0.0582
     15 C5         18.7080   26.8480   -1.4620 C.ar      1 068        -0.0413
     16 C4         18.1030   26.3550   -0.1910 C.3       1 068        -0.0159
     17 C3         17.1820   27.2900    0.6090 C.3       1 068        -0.0153
     18 C2         16.9510   26.7710    2.0360 C.3       1 068         0.0684
     19 O1         16.2210   25.5390    1.9030 O.3       1 068        -0.3899
     20 C17        16.2540   27.7590    2.9760 C.3       1 068         0.0264
     21 C18        16.8180   29.1870    2.8010 C.2       1 068         0.0373
     22 O19        17.9430   29.3770    3.2250 O.co2     1 068        -0.5689
     23 O20        16.1180   30.0340    2.2600 O.co2     1 068        -0.5689
     24 H1         20.5845   29.7980   -9.6387 H         1 068         0.0449
     25 H2         21.6814   29.0698  -10.8607 H         1 068         0.0449
     26 H3         21.9699   30.7449  -10.2796 H         1 068         0.0449
     27 H4         23.6764   28.4594   -6.5253 H         1 068         0.0667
     28 H5         22.5641   27.8666   -4.4271 H         1 068         0.0625
     29 H6         19.8741   29.1704   -8.3393 H         1 068         0.0667
     30 H7         18.7604   28.5941   -6.2090 H         1 068         0.0625
     31 H8         21.3833   26.2672   -3.4507 H         1 068         0.0615
     32 H9         20.4191   25.5309   -1.3325 H         1 068         0.0562
     33 H10        18.2210   29.0660   -3.9834 H         1 068         0.0615
     34 H11        17.2012   28.3216   -1.8923 H         1 068         0.0562
     35 H12        18.9335   26.0749    0.4737 H         1 068         0.0431
     36 H13        17.5148   25.4595   -0.4403 H         1 068         0.0431
     37 H14        16.2126   27.3624    0.0942 H         1 068         0.0314
     38 H15        17.6443   28.2867    0.6622 H         1 068         0.0314
     39 H16        17.9329   26.5489    2.4793 H         1 068         0.0613
     40 H17        15.3961   25.7069    1.4626 H         1 068         0.2099
     41 H18        16.4100   27.4363    4.0160 H         1 068         0.0456
     42 H19        15.1770   27.7685    2.7526 H         1 068         0.0456
@<TRIPOS>BOND
     1    1    2 1  
     2    2    3 2  
     3    2    4 1  
     4    4    5 ar 
     5    4    7 ar 
     6    5    6 ar 
     7    6    9 ar 
     8    7    8 ar 
     9    8    9 ar 
    10    9   10 1  
    11   10   11 ar 
    12   10   13 ar 
    13   11   12 ar 
    14   12   15 ar 
    15   13   14 ar 
    16   14   15 ar 
    17   15   16 1  
    18   16   17 1  
    19   17   18 1  
    20   18   19 1  
    21   18   20 1  
    22   20   21 1  
    23   21   22 ar 
    24   21   23 ar 
    25    1   24 1  
    26    1   25 1  
    27    1   26 1  
    28    5   27 1  
    29    6   28 1  
    30    7   29 1  
    31    8   30 1  
    32   11   31 1  
    33   12   32 1  
    34   13   33 1  
    35   14   34 1  
    36   16   35 1  
    37   16   36 1  
    38   17   37 1  
    39   17   38 1  
    40   18   39 1  
    41   19   40 1  
    42   20   41 1  
    43   20   42 1  
@<TRIPOS>SUBSTRUCTURE
     1 068         1

