### 
### Created by X-TOOL on Mon Sep 10 21:12:59 2018
### 

@<TRIPOS>MOLECULE
2woa_ligand
   38    40     1     0     0
SMALL
GAST_HUCK


@<TRIPOS>ATOM
      1 O1         16.0320   25.3990    1.3780 O.3       1 576        -0.3899
      2 C2         16.8480   26.5840    1.5250 C.3       1 576         0.0684
      3 C17        16.2970   27.5170    2.6270 C.3       1 576         0.0264
      4 C18        16.8190   28.9530    2.5700 C.2       1 576         0.0373
      5 O20        16.1310   29.8320    1.9890 O.co2     1 576        -0.5689
      6 O19        17.9250   29.1310    3.1370 O.co2     1 576        -0.5689
      7 C3         17.1360   27.1920    0.1340 C.3       1 576        -0.0156
      8 C4         18.3950   26.5710   -0.5080 C.3       1 576        -0.0183
      9 C5         18.8240   27.0780   -1.8750 C.ar      1 576        -0.0491
     10 C6         19.9100   26.4380   -2.5100 C.ar      1 576        -0.0568
     11 C7         20.3140   26.8800   -3.7670 C.ar      1 576        -0.0307
     12 C1         21.4410   26.3180   -4.6230 C.3       1 576         0.0137
     13 C16        21.3590   27.2290   -5.8580 C.ar      1 576        -0.0260
     14 C15        22.1830   27.1830   -7.0100 C.ar      1 576        -0.0593
     15 C14        21.9570   28.1070   -8.0620 C.ar      1 576        -0.0696
     16 C13        20.9120   29.0550   -7.9290 C.ar      1 576        -0.0697
     17 C12        20.0980   29.0880   -6.7580 C.ar      1 576        -0.0638
     18 C11        20.3340   28.1660   -5.7230 C.ar      1 576        -0.0226
     19 C8         19.6780   27.9490   -4.4150 C.ar      1 576        -0.0248
     20 C9         18.6110   28.6020   -3.8110 C.ar      1 576        -0.0677
     21 C10        18.1900   28.1560   -2.5350 C.ar      1 576        -0.0662
     22 H1         15.1469   25.6524    1.1437 H         1 576         0.2099
     23 H2         17.8252   26.2474    1.9016 H         1 576         0.0613
     24 H3         16.5705   27.0918    3.6039 H         1 576         0.0456
     25 H4         15.2014   27.5471    2.5339 H         1 576         0.0456
     26 H5         17.2885   28.2759    0.2428 H         1 576         0.0313
     27 H6         16.2727   27.0072   -0.5221 H         1 576         0.0313
     28 H7         18.2146   25.4900   -0.6022 H         1 576         0.0426
     29 H8         19.2334   26.7441    0.1827 H         1 576         0.0426
     30 H9         20.4221   25.6142   -2.0260 H         1 576         0.0499
     31 H10        21.2612   25.2651   -4.8859 H         1 576         0.0617
     32 H11        22.4143   26.4090   -4.1187 H         1 576         0.0617
     33 H12        22.9775   26.4495   -7.0863 H         1 576         0.0561
     34 H13        22.5736   28.0884   -8.9534 H         1 576         0.0585
     35 H14        20.7288   29.7645   -8.7278 H         1 576         0.0559
     36 H15        19.3028   29.8190   -6.6667 H         1 576         0.0589
     37 H16        18.1143   29.4303   -4.3032 H         1 576         0.0585
     38 H17        17.3585   28.6548   -2.0504 H         1 576         0.0509
@<TRIPOS>BOND
     1    1    2 1  
     2    2    3 1  
     3    2    7 1  
     4    3    4 1  
     5    4    5 ar 
     6    4    6 ar 
     7    7    8 1  
     8    8    9 1  
     9    9   10 ar 
    10    9   21 ar 
    11   10   11 ar 
    12   11   12 1  
    13   11   19 ar 
    14   12   13 1  
    15   13   14 ar 
    16   13   18 ar 
    17   14   15 ar 
    18   15   16 ar 
    19   16   17 ar 
    20   17   18 ar 
    21   18   19 1  
    22   19   20 ar 
    23   20   21 ar 
    24    1   22 1  
    25    2   23 1  
    26    3   24 1  
    27    3   25 1  
    28    7   26 1  
    29    7   27 1  
    30    8   28 1  
    31    8   29 1  
    32   10   30 1  
    33   12   31 1  
    34   12   32 1  
    35   14   33 1  
    36   15   34 1  
    37   16   35 1  
    38   17   36 1  
    39   20   37 1  
    40   21   38 1  
@<TRIPOS>SUBSTRUCTURE
     1 576         1

