### 
### Created by X-TOOL on Mon Sep 10 21:13:04 2018
### 

@<TRIPOS>MOLECULE
2won_ligand
   41    42     1     0     0
SMALL
GAST_HUCK


@<TRIPOS>ATOM
      1 C1          8.9060   12.3050   16.8610 C.2       1 ZZE         0.1247
      2 C2          7.6130   12.3400   16.3050 C.2       1 ZZE         0.0902
      3 C3          9.8860   12.8350   15.9560 C.2       1 ZZE         0.0309
      4 O4          9.1330   11.7450   18.1580 O.3       1 ZZE        -0.2841
      5 N5          7.8440   12.9030   15.0950 N.pl3     1 ZZE        -0.2207
      6 C6          6.2870   11.8620   16.9350 C.3       1 ZZE         0.0007
      7 N7          9.1680   13.2000   14.9110 N.2       1 ZZE        -0.2450
      8 C8         11.3890   12.9580   16.1130 C.3       1 ZZE        -0.0205
      9 C9          9.4200   12.2800   19.3710 C.ar      1 ZZE         0.1230
     10 C10         6.8640   13.1720   14.1140 C.3       1 ZZE         0.0859
     11 C11         6.3670   10.5610   17.4870 C.3       1 ZZE        -0.0542
     12 C12        12.0720   13.1480   14.7200 C.3       1 ZZE        -0.0570
     13 C13         9.3580   11.4180   20.5890 C.ar      1 ZZE         0.0118
     14 C14         9.7800   13.6340   19.3940 C.ar      1 ZZE         0.0118
     15 C15         6.4340   11.7640   13.5310 C.3       1 ZZE         0.0721
     16 C16         9.6860   12.0650   21.8480 C.ar      1 ZZE         0.0980
     17 C17        10.0580   14.2060   20.6450 C.ar      1 ZZE         0.0980
     18 O18         5.7710   11.8370   12.2360 O.3       1 ZZE        -0.3922
     19 C19        10.0220   13.4650   21.9210 C.ar      1 ZZE        -0.0032
     20 C20         9.6320   11.3230   23.0320 C.1       1 ZZE         0.1001
     21 C21        10.3710   15.5490   20.3560 C.1       1 ZZE         0.1001
     22 N22         9.5840   10.6950   24.0360 N.1       1 ZZE        -0.3281
     23 N23        10.6350   16.6900   20.1090 N.1       1 ZZE        -0.3281
     24 H           5.5361   11.8394   16.1452 H         1 ZZE         0.0435
     25 H           6.0401   12.5489   17.7445 H         1 ZZE         0.0435
     26 H          11.7723   12.0476   16.5738 H         1 ZZE         0.0397
     27 H          11.6099   13.8243   16.7365 H         1 ZZE         0.0397
     28 H           7.2563   13.8209   13.3310 H         1 ZZE         0.0642
     29 H           6.0115   13.6999   14.5413 H         1 ZZE         0.0642
     30 H           6.6341    9.8513   16.7040 H         1 ZZE         0.0252
     31 H           7.1271   10.5452   18.2681 H         1 ZZE         0.0252
     32 H           5.4012   10.2882   17.9124 H         1 ZZE         0.0252
     33 H          11.8509   12.2879   14.0880 H         1 ZZE         0.0248
     34 H          11.6895   14.0539   14.2498 H         1 ZZE         0.0248
     35 H          13.1503   13.2343   14.8542 H         1 ZZE         0.0248
     36 H           9.0827   10.3647   20.5366 H         1 ZZE         0.0709
     37 H           9.8417   14.2197   18.4768 H         1 ZZE         0.0709
     38 H           5.7248   11.3259   14.2333 H         1 ZZE         0.0585
     39 H           7.3433   11.1782   13.3964 H         1 ZZE         0.0585
     40 H           5.5400   10.9516   11.9456 H         1 ZZE         0.2095
     41 H          10.2388   13.9523   22.8716 H         1 ZZE         0.0727
@<TRIPOS>BOND
     1    1    2 2  
     2    1    3 1  
     3    1    4 1  
     4    2    5 1  
     5    2    6 1  
     6    3    7 2  
     7    3    8 1  
     8    4    9 1  
     9    5    7 1  
    10    5   10 1  
    11    6   11 1  
    12    8   12 1  
    13    9   13 ar 
    14    9   14 ar 
    15   10   15 1  
    16   13   16 ar 
    17   14   17 ar 
    18   15   18 1  
    19   16   19 ar 
    20   16   20 1  
    21   17   19 ar 
    22   17   21 1  
    23   20   22 3  
    24   21   23 3  
    25    6   24 1  
    26    6   25 1  
    27    8   26 1  
    28    8   27 1  
    29   10   28 1  
    30   10   29 1  
    31   11   30 1  
    32   11   31 1  
    33   11   32 1  
    34   12   33 1  
    35   12   34 1  
    36   12   35 1  
    37   13   36 1  
    38   14   37 1  
    39   15   38 1  
    40   15   39 1  
    41   18   40 1  
    42   19   41 1  
@<TRIPOS>SUBSTRUCTURE
     1 ZZE         1

