### 
### Created by X-TOOL on Mon Sep 10 21:12:59 2018
### 

@<TRIPOS>MOLECULE
2woq_ligand
   26    25     1     0     0
SMALL
GAST_HUCK


@<TRIPOS>ATOM
      1 OAD       -21.7200   23.3840   17.5290 O.2       1 AYC        -0.3974
      2 CAQ       -22.6370   23.3800   18.3550 C.2       1 AYC         0.1731
      3 CAB       -22.7510   24.4750   19.3680 C.3       1 AYC         0.0257
      4 NAP       -23.5380   22.4100   18.5320 N.am      1 AYC        -0.2844
      5 CAR       -23.7490   21.2060   17.7170 C.3       1 AYC         0.0393
      6 CAA       -23.4440   19.9110   18.4340 C.3       1 AYC        -0.0420
      7 CAU       -23.2600   21.2830   16.2730 C.3       1 AYC        -0.0286
      8 CAM       -23.9490   22.2770   15.3870 C.3       1 AYC        -0.0394
      9 CAL       -25.0880   21.5700   14.5930 C.3       1 AYC         0.0003
     10 CAS       -25.6840   22.4950   13.5360 C.2       1 AYC         0.0348
     11 OAG       -25.1650   23.5950   13.2360 O.co2     1 AYC        -0.5690
     12 OAE       -26.7020   22.0900   12.9950 O.co2     1 AYC        -0.5690
     13 H         -21.8500   24.4963   19.9810 H         1 AYC         0.0467
     14 H         -22.8668   25.4306   18.8567 H         1 AYC         0.0467
     15 H         -23.6190   24.2930   20.0017 H         1 AYC         0.0467
     16 H         -24.1580   22.5190   19.3346 H         1 AYC         0.1854
     17 H         -24.8304   21.1847   17.5819 H         1 AYC         0.0553
     18 H         -23.9144   19.0836   17.9028 H         1 AYC         0.0252
     19 H         -22.3651   19.7589   18.4635 H         1 AYC         0.0252
     20 H         -23.8333   19.9598   19.4509 H         1 AYC         0.0252
     21 H         -23.4531   20.3034   15.8358 H         1 AYC         0.0288
     22 H         -22.2168   21.5949   16.3233 H         1 AYC         0.0288
     23 H         -23.2277   22.6985   14.6869 H         1 AYC         0.0284
     24 H         -24.3744   23.0728   15.9985 H         1 AYC         0.0284
     25 H         -25.8757   21.2892   15.2922 H         1 AYC         0.0430
     26 H         -24.6714   20.6954   14.0934 H         1 AYC         0.0430
@<TRIPOS>BOND
     1    1    2 2  
     2    2    3 1  
     3    2    4 am 
     4    4    5 1  
     5    5    6 1  
     6    5    7 1  
     7    7    8 1  
     8    8    9 1  
     9    9   10 1  
    10   10   11 ar 
    11   10   12 ar 
    12    3   13 1  
    13    3   14 1  
    14    3   15 1  
    15    4   16 1  
    16    5   17 1  
    17    6   18 1  
    18    6   19 1  
    19    6   20 1  
    20    7   21 1  
    21    7   22 1  
    22    8   23 1  
    23    8   24 1  
    24    9   25 1  
    25    9   26 1  
@<TRIPOS>SUBSTRUCTURE
     1 AYC         1

