### 
### Created by X-TOOL on Mon Sep 10 21:13:00 2018
### 

@<TRIPOS>MOLECULE
2wor_ligand
   33    35     1     0     0
SMALL
GAST_HUCK


@<TRIPOS>ATOM
      1 C1          2.7420    5.4730    7.0170 C.ar      1 2AN         0.0730
      2 C2          4.0790    5.6850    7.4370 C.ar      1 2AN        -0.0412
      3 C3          5.1890    5.8660    6.5310 C.ar      1 2AN        -0.0768
      4 C4          4.8820    5.8110    5.1890 C.ar      1 2AN        -0.0703
      5 C5          3.5890    5.6290    4.6960 C.ar      1 2AN        -0.0263
      6 C6          3.3390    5.6160    3.2950 C.ar      1 2AN        -0.0593
      7 C7          2.0380    5.4090    2.8080 C.ar      1 2AN        -0.0629
      8 C8          0.8440    5.2630    3.6220 C.ar      1 2AN        -0.0420
      9 N           1.7350    5.1920    7.9830 N.pl3     1 2AN        -0.2710
     10 S          -0.4460    5.3380    5.8990 S.o2      1 2AN        -0.1624
     11 C9          1.0050    5.3260    5.0090 C.ar      1 2AN         0.0589
     12 C10         2.3970    5.4450    5.5910 C.ar      1 2AN         0.0329
     13 C11         1.4100    5.9290    9.0630 C.ar      1 2AN         0.0604
     14 C12         0.5460    5.2470    9.9960 C.ar      1 2AN        -0.0391
     15 C13         0.2290    6.0010   11.2000 C.ar      1 2AN        -0.0719
     16 C14         0.6590    7.3020   11.3020 C.ar      1 2AN        -0.0738
     17 C15         1.4980    7.9740   10.3410 C.ar      1 2AN        -0.0719
     18 C16         1.8870    7.2270    9.1940 C.ar      1 2AN        -0.0391
     19 O1         -1.5950    5.4450    4.9360 O.co2     1 2AN        -0.4795
     20 O2         -0.4240    6.5940    6.6020 O.co2     1 2AN        -0.4795
     21 O3         -0.6040    4.1700    6.7980 O.co2     1 2AN        -0.4795
     22 H1          4.2804    5.7129    8.5018 H         1 2AN         0.0480
     23 H2          6.1998    6.0345    6.8845 H         1 2AN         0.0576
     24 H3          5.6911    5.9150    4.4751 H         1 2AN         0.0477
     25 H4          4.1571    5.7667    2.6000 H         1 2AN         0.0595
     26 H5          1.9144    5.3534    1.7325 H         1 2AN         0.0613
     27 H6         -0.1309    5.1116    3.1728 H         1 2AN         0.0604
     28 H7          1.1936    4.3275    7.8402 H         1 2AN         0.2117
     29 H8          0.1624    4.2496    9.8142 H         1 2AN         0.0532
     30 H9         -0.3372    5.5435   12.0032 H         1 2AN         0.0586
     31 H10         0.3432    7.8666   12.1718 H         1 2AN         0.0516
     32 H11         1.8173    8.9998   10.4854 H         1 2AN         0.0586
     33 H12         2.5380    7.6592    8.4427 H         1 2AN         0.0532
@<TRIPOS>BOND
     1    1    2 ar 
     2    1    9 1  
     3    1   12 ar 
     4    2    3 ar 
     5    3    4 ar 
     6    4    5 ar 
     7    5    6 ar 
     8    5   12 ar 
     9    6    7 ar 
    10    7    8 ar 
    11    8   11 ar 
    12    9   13 1  
    13   11   10 1  
    14   10   19 ar 
    15   10   20 ar 
    16   10   21 ar 
    17   11   12 ar 
    18   13   14 ar 
    19   13   18 ar 
    20   14   15 ar 
    21   15   16 ar 
    22   16   17 ar 
    23   17   18 ar 
    24    2   22 1  
    25    3   23 1  
    26    4   24 1  
    27    6   25 1  
    28    7   26 1  
    29    8   27 1  
    30    9   28 1  
    31   14   29 1  
    32   15   30 1  
    33   16   31 1  
    34   17   32 1  
    35   18   33 1  
@<TRIPOS>SUBSTRUCTURE
     1 2AN         1

