### 
### Created by X-TOOL on Mon Sep 10 21:13:00 2018
### 

@<TRIPOS>MOLECULE
2wos_ligand
   33    35     1     0     0
SMALL
GAST_HUCK


@<TRIPOS>ATOM
      1 C7         21.7430   20.0510    3.6320 C.ar      1 6AN        -0.0365
      2 C8         23.1010   20.4280    3.3970 C.ar      1 6AN        -0.0306
      3 C16        23.6420   20.8160    2.0970 C.ar      1 6AN        -0.0591
      4 C15        24.9780   21.1090    1.9090 C.ar      1 6AN        -0.0440
      5 C14        25.7920   21.0550    3.0940 C.ar      1 6AN         0.0477
      6 S          27.4970   21.4090    2.9340 S.o2      1 6AN        -0.1649
      7 O3         27.7050   22.4810    1.8490 O.co2     1 6AN        -0.4803
      8 O1         28.1410   20.1610    2.3170 O.co2     1 6AN        -0.4803
      9 O2         28.1470   21.7150    4.2930 O.co2     1 6AN        -0.4803
     10 C13        25.2690   20.7540    4.3780 C.ar      1 6AN        -0.0372
     11 C12        23.9310   20.4170    4.5250 C.ar      1 6AN        -0.0239
     12 C11        23.3880   20.1240    5.8140 C.ar      1 6AN        -0.0572
     13 C10        22.0530   19.8140    6.0620 C.ar      1 6AN        -0.0337
     14 C9         21.2090   19.7340    4.9330 C.ar      1 6AN         0.0590
     15 N          19.9750   19.4480    5.1920 N.pl3     1 6AN        -0.2746
     16 C6         19.0140   19.0120    4.2120 C.ar      1 6AN         0.0585
     17 C1         17.6080   19.1710    4.3660 C.ar      1 6AN        -0.0397
     18 C2         16.5980   18.7750    3.4930 C.ar      1 6AN        -0.0722
     19 C3         16.9460   18.1280    2.3200 C.ar      1 6AN        -0.0740
     20 C4         18.3380   17.9360    2.0720 C.ar      1 6AN        -0.0722
     21 C5         19.3520   18.3270    3.0210 C.ar      1 6AN        -0.0397
     22 H1         21.0739   20.0003    2.7807 H         1 6AN         0.0477
     23 H2         22.9699   20.8761    1.2486 H         1 6AN         0.0586
     24 H3         25.3851   21.3620    0.9367 H         1 6AN         0.0624
     25 H4         25.9165   20.7874    5.2467 H         1 6AN         0.0633
     26 H5         24.0646   20.1445    6.6607 H         1 6AN         0.0617
     27 H6         21.6824   19.6436    7.0663 H         1 6AN         0.0582
     28 H7         19.6570   19.5383    6.1675 H         1 6AN         0.2088
     29 H8         17.2829   19.6615    5.2764 H         1 6AN         0.0530
     30 H9         15.5579   18.9700    3.7279 H         1 6AN         0.0585
     31 H10        16.1938   17.7822    1.6202 H         1 6AN         0.0514
     32 H11        18.6445   17.4802    1.1375 H         1 6AN         0.0585
     33 H12        20.3906   18.0919    2.8181 H         1 6AN         0.0530
@<TRIPOS>BOND
     1    1    2 ar 
     2    1   14 ar 
     3    2    3 ar 
     4    2   11 ar 
     5    3    4 ar 
     6    4    5 ar 
     7    5    6 1  
     8    5   10 ar 
     9    6    7 ar 
    10    6    8 ar 
    11    6    9 ar 
    12   10   11 ar 
    13   11   12 ar 
    14   12   13 ar 
    15   13   14 ar 
    16   14   15 1  
    17   15   16 1  
    18   16   17 ar 
    19   16   21 ar 
    20   17   18 ar 
    21   18   19 ar 
    22   19   20 ar 
    23   20   21 ar 
    24    1   22 1  
    25    3   23 1  
    26    4   24 1  
    27   10   25 1  
    28   12   26 1  
    29   13   27 1  
    30   15   28 1  
    31   17   29 1  
    32   18   30 1  
    33   19   31 1  
    34   20   32 1  
    35   21   33 1  
@<TRIPOS>SUBSTRUCTURE
     1 6AN         1

