### 
### Created by X-TOOL on Mon Sep 10 21:13:00 2018
### 

@<TRIPOS>MOLECULE
2wot_ligand
   60    63     1     0     0
SMALL
GAST_HUCK


@<TRIPOS>ATOM
      1 C1         -2.8880    5.9580    1.2510 C.3       1 ZZG         0.0562
      2 O2         -2.7310    5.9440    2.6750 O.3       1 ZZG        -0.3307
      3 C3         -1.4730    6.1000    3.1800 C.ar      1 ZZG         0.1022
      4 C4         -0.3270    6.2740    2.3960 C.ar      1 ZZG        -0.0296
      5 C5          0.9250    6.4250    2.9850 C.ar      1 ZZG         0.0332
      6 N6          2.0400    6.5880    2.1330 N.pl3     1 ZZG        -0.2734
      7 C7          3.2800    7.1530    2.4490 C.ar      1 ZZG         0.1181
      8 C8          3.3560    8.1050    3.4610 C.ar      1 ZZG         0.0191
      9 C9          4.5980    8.6530    3.7440 C.ar      1 ZZG         0.1269
     10 O10         4.7060    9.5910    4.7500 O.3       1 ZZG        -0.2463
     11 C11         5.9160   10.1870    4.9920 C.ar      1 ZZG         0.1459
     12 C12         6.4100   11.1080    4.0880 C.ar      1 ZZG        -0.0095
     13 C13         7.6210   11.7310    4.3320 C.ar      1 ZZG        -0.0211
     14 C14         8.1870   12.7330    3.3440 C.3       1 ZZG        -0.0283
     15 C15         8.2830   11.3910    5.5220 C.ar      1 ZZG         0.0185
     16 C16         9.6110   12.0100    5.8970 C.3       1 ZZG        -0.0218
     17 N17         7.7980   10.5110    6.4060 N.ar      1 ZZG        -0.3045
     18 C18         6.6270    9.9100    6.1510 C.ar      1 ZZG         0.0894
     19 C19         6.1360    8.9740    7.2070 C.ar      1 ZZG         0.0598
     20 C20         5.4370    7.8090    6.8780 C.ar      1 ZZG        -0.0286
     21 C21         4.9790    6.9850    7.8970 C.ar      1 ZZG        -0.0435
     22 C22         5.2410    7.3560    9.2110 C.ar      1 ZZG        -0.0356
     23 C23         5.9370    8.5320    9.4410 C.ar      1 ZZG         0.0084
     24 N24         6.3730    9.3330    8.4780 N.ar      1 ZZG        -0.2940
     25 C25         5.7310    8.2490    3.0220 C.ar      1 ZZG        -0.0137
     26 C26         5.5310    7.3000    2.0290 C.ar      1 ZZG        -0.0124
     27 N27         4.3420    6.7570    1.7310 N.ar      1 ZZG        -0.2968
     28 C28         1.0210    6.3970    4.3770 C.ar      1 ZZG        -0.0296
     29 C29        -0.1110    6.2230    5.1760 C.ar      1 ZZG         0.1022
     30 O30        -0.0310    6.2010    6.5440 O.3       1 ZZG        -0.3307
     31 C31         1.2610    6.3510    7.1450 C.3       1 ZZG         0.0562
     32 C32        -1.3700    6.0830    4.5790 C.ar      1 ZZG         0.1346
     33 O33        -2.4870    5.8950    5.3630 O.3       1 ZZG        -0.3370
     34 C34        -2.8500    7.0800    6.0860 C.3       1 ZZG         0.0517
     35 H1         -3.9498    5.8221    0.9979 H         1 ZZG         0.0572
     36 H2         -2.2983    5.1414    0.8090 H         1 ZZG         0.0572
     37 H3         -2.5366    6.9213    0.8528 H         1 ZZG         0.0572
     38 H4         -0.4155    6.2914    1.3158 H         1 ZZG         0.0342
     39 H5          1.9266    6.2515    1.1661 H         1 ZZG         0.2088
     40 H6          2.4724    8.4086    4.0107 H         1 ZZG         0.0544
     41 H7          5.8500   11.3418    3.1898 H         1 ZZG         0.0597
     42 H8          7.4983   12.8375    2.4926 H         1 ZZG         0.0396
     43 H9          9.1647   12.3805    2.9836 H         1 ZZG         0.0396
     44 H10         8.3084   13.7077    3.8391 H         1 ZZG         0.0396
     45 H11         9.9457   11.6028    6.8625 H         1 ZZG         0.0390
     46 H12         9.4970   13.1010    5.9789 H         1 ZZG         0.0390
     47 H13        10.3563   11.7763    5.1224 H         1 ZZG         0.0390
     48 H14         5.2550    7.5524    5.8407 H         1 ZZG         0.0705
     49 H15         4.4316    6.0763    7.6741 H         1 ZZG         0.0731
     50 H16         4.9081    6.7388   10.0376 H         1 ZZG         0.0696
     51 H17         6.1369    8.8138   10.4685 H         1 ZZG         0.0822
     52 H18         6.7135    8.6575    3.2292 H         1 ZZG         0.0546
     53 H19         6.3930    6.9766    1.4567 H         1 ZZG         0.0752
     54 H20         1.9913    6.5123    4.8462 H         1 ZZG         0.0342
     55 H21         1.1627    6.3128    8.2399 H         1 ZZG         0.0572
     56 H22         1.6929    7.3184    6.8492 H         1 ZZG         0.0572
     57 H23         1.9192    5.5369    6.8073 H         1 ZZG         0.0572
     58 H24        -3.7440    6.8788    6.6945 H         1 ZZG         0.0564
     59 H25        -3.0652    7.8916    5.3754 H         1 ZZG         0.0564
     60 H26        -2.0192    7.3780    6.7425 H         1 ZZG         0.0564
@<TRIPOS>BOND
     1    1    2 1  
     2    2    3 1  
     3    3    4 ar 
     4    3   32 ar 
     5    4    5 ar 
     6    5    6 1  
     7    5   28 ar 
     8    6    7 1  
     9    7    8 ar 
    10    7   27 ar 
    11    8    9 ar 
    12    9   10 1  
    13    9   25 ar 
    14   10   11 1  
    15   11   12 ar 
    16   11   18 ar 
    17   12   13 ar 
    18   13   14 1  
    19   13   15 ar 
    20   15   16 1  
    21   15   17 ar 
    22   17   18 ar 
    23   18   19 1  
    24   19   20 ar 
    25   19   24 ar 
    26   20   21 ar 
    27   21   22 ar 
    28   22   23 ar 
    29   23   24 ar 
    30   25   26 ar 
    31   26   27 ar 
    32   28   29 ar 
    33   29   30 1  
    34   29   32 ar 
    35   30   31 1  
    36   32   33 1  
    37   33   34 1  
    38    1   35 1  
    39    1   36 1  
    40    1   37 1  
    41    4   38 1  
    42    6   39 1  
    43    8   40 1  
    44   12   41 1  
    45   14   42 1  
    46   14   43 1  
    47   14   44 1  
    48   16   45 1  
    49   16   46 1  
    50   16   47 1  
    51   20   48 1  
    52   21   49 1  
    53   22   50 1  
    54   23   51 1  
    55   25   52 1  
    56   26   53 1  
    57   28   54 1  
    58   31   55 1  
    59   31   56 1  
    60   31   57 1  
    61   34   58 1  
    62   34   59 1  
    63   34   60 1  
@<TRIPOS>SUBSTRUCTURE
     1 ZZG         1

