### 
### Created by X-TOOL on Mon Sep 10 21:13:01 2018
### 

@<TRIPOS>MOLECULE
2wou_ligand
   44    46     1     0     0
SMALL
GAST_HUCK


@<TRIPOS>ATOM
      1 C1          9.2100   11.7400    5.1300 C.3       1 ZZF        -0.0223
      2 C2          7.8490   11.1780    4.9490 C.ar      1 ZZF         0.0061
      3 C3          6.9910   11.7310    4.0230 C.ar      1 ZZF        -0.0478
      4 C4          5.7310   11.1900    3.8690 C.ar      1 ZZF        -0.0213
      5 C5          5.3730   10.1170    4.6500 C.ar      1 ZZF         0.1406
      6 C6          6.2680    9.6090    5.5680 C.ar      1 ZZF         0.0512
      7 N7          7.4920   10.1350    5.7060 N.ar      1 ZZF        -0.3082
      8 C8          5.8940    8.4420    6.4340 C.3       1 ZZF        -0.0183
      9 O9          4.1140    9.5600    4.5180 O.3       1 ZZF        -0.2521
     10 C10         4.0120    8.5190    3.6060 C.ar      1 ZZF         0.1238
     11 C11         5.0920    8.0310    2.9060 C.ar      1 ZZF        -0.0142
     12 C12         4.8660    6.9980    2.0250 C.ar      1 ZZF        -0.0124
     13 N13         3.6690    6.4400    1.8090 N.ar      1 ZZF        -0.2965
     14 C14         2.6390    6.9260    2.5090 C.ar      1 ZZF         0.1202
     15 C15         2.7690    7.9640    3.4100 C.ar      1 ZZF         0.0190
     16 N16         1.4210    6.3170    2.2640 N.pl3     1 ZZF        -0.2632
     17 C17         0.2840    6.2280    3.0980 C.ar      1 ZZF         0.0609
     18 C18        -0.9450    6.0610    2.4980 C.ar      1 ZZF        -0.0373
     19 C19        -2.0860    5.9600    3.2630 C.ar      1 ZZF        -0.0453
     20 C20        -2.0030    6.0270    4.6380 C.ar      1 ZZF         0.0959
     21 C21        -0.7880    6.1960    5.2550 C.ar      1 ZZF        -0.0453
     22 C22         0.3500    6.2900    4.4810 C.ar      1 ZZF        -0.0373
     23 S23        -3.5140    5.8900    5.5870 S.o2      1 ZZF         0.0606
     24 O24        -3.8080    7.2010    6.1360 O.2       1 ZZF        -0.1520
     25 O25        -4.3650    5.1960    4.6410 O.2       1 ZZF        -0.1520
     26 N26        -3.2930    4.9990    6.7100 N.am      1 ZZF        -0.2622
     27 H1          9.3518   12.5861    4.4415 H         1 ZZF         0.0399
     28 H2          9.9589   10.9634    4.9157 H         1 ZZF         0.0399
     29 H3          9.3284   12.0874    6.1670 H         1 ZZF         0.0399
     30 H4          7.3017   12.5793    3.4239 H         1 ZZF         0.0564
     31 H5          5.0369   11.6032    3.1461 H         1 ZZF         0.0633
     32 H6          6.7373    8.1899    7.0937 H         1 ZZF         0.0399
     33 H7          5.6536    7.5764    5.7992 H         1 ZZF         0.0399
     34 H8          5.0170    8.7042    7.0440 H         1 ZZF         0.0399
     35 H9          6.0843    8.4451    3.0436 H         1 ZZF         0.0546
     36 H10         5.7129    6.6112    1.4699 H         1 ZZF         0.0752
     37 H11         1.9072    8.3347    3.9530 H         1 ZZF         0.0544
     38 H12         1.3303    5.8644    1.3432 H         1 ZZF         0.2118
     39 H13        -1.0144    6.0088    1.4175 H         1 ZZF         0.0533
     40 H14        -3.0495    5.8278    2.7841 H         1 ZZF         0.0606
     41 H15        -0.7240    6.2547    6.3355 H         1 ZZF         0.0606
     42 H16         1.3129    6.4146    4.9630 H         1 ZZF         0.0533
     43 H17        -4.0371    4.8070    7.3499 H         1 ZZF         0.1633
     44 H18        -2.3965    4.5767    6.8444 H         1 ZZF         0.1633
@<TRIPOS>BOND
     1    1    2 1  
     2    2    3 ar 
     3    2    7 ar 
     4    3    4 ar 
     5    4    5 ar 
     6    5    6 ar 
     7    5    9 1  
     8    6    7 ar 
     9    6    8 1  
    10    9   10 1  
    11   10   11 ar 
    12   10   15 ar 
    13   11   12 ar 
    14   12   13 ar 
    15   13   14 ar 
    16   14   15 ar 
    17   14   16 1  
    18   16   17 1  
    19   17   18 ar 
    20   17   22 ar 
    21   18   19 ar 
    22   19   20 ar 
    23   20   21 ar 
    24   20   23 1  
    25   21   22 ar 
    26   23   24 2  
    27   23   25 2  
    28   23   26 am 
    29    1   27 1  
    30    1   28 1  
    31    1   29 1  
    32    3   30 1  
    33    4   31 1  
    34    8   32 1  
    35    8   33 1  
    36    8   34 1  
    37   11   35 1  
    38   12   36 1  
    39   15   37 1  
    40   16   38 1  
    41   18   39 1  
    42   19   40 1  
    43   21   41 1  
    44   22   42 1  
    45   26   43 1  
    46   26   44 1  
@<TRIPOS>SUBSTRUCTURE
     1 ZZF         1

