### 
### Created by X-TOOL on Mon Sep 10 21:13:03 2018
### 

@<TRIPOS>MOLECULE
2wpb_ligand
   36    35     1     0     0
SMALL
GAST_HUCK


@<TRIPOS>ATOM
      1 CAA         4.5120  -12.6610   27.5690 C.3       1 ZZI        -0.0634
      2 CAB         4.6290  -11.4100   28.4740 C.3       1 ZZI        -0.0354
      3 CAC         4.4550  -11.6820   29.9860 C.3       1 ZZI         0.0337
      4 NAH         4.1590  -10.4850   30.8390 N.am      1 ZZI        -0.2710
      5 CAG         4.3540   -9.1070   30.2970 C.3       1 ZZI         0.0337
      6 CAF         5.3390   -8.2580   31.1160 C.3       1 ZZI        -0.0354
      7 CAE         6.7620   -8.8290   31.0350 C.3       1 ZZI        -0.0634
      8 CAI         3.6600  -10.7050   32.0760 C.2       1 ZZI         0.2100
      9 OAD         3.4760  -11.8310   32.5260 O.2       1 ZZI        -0.3939
     10 CAJ         3.3580   -9.5030   32.9890 C.3       1 ZZI         0.1715
     11 OAN         3.7640   -9.7730   34.3670 O.3       1 ZZI        -0.3687
     12 CAK         1.8770   -9.0980   32.8830 C.3       1 ZZI         0.1210
     13 OAO         1.7160   -8.5080   31.5990 O.3       1 ZZI        -0.3845
     14 CAL         1.4980   -8.0660   33.9490 C.3       1 ZZI         0.0748
     15 OAM         2.2510   -6.8610   33.7640 O.3       1 ZZI        -0.3922
     16 H           5.2793  -13.3830   27.8484 H         1 ZZI         0.0230
     17 H           3.5264  -13.1088   27.6960 H         1 ZZI         0.0230
     18 H           4.6482  -12.3687   26.5278 H         1 ZZI         0.0230
     19 H           3.8271  -10.7323   28.1809 H         1 ZZI         0.0282
     20 H           5.6359  -11.0153   28.3382 H         1 ZZI         0.0282
     21 H           5.4070  -12.0803   30.3370 H         1 ZZI         0.0522
     22 H           3.5955  -12.3457   30.0808 H         1 ZZI         0.0522
     23 H           3.3871   -8.6046   30.3254 H         1 ZZI         0.0522
     24 H           4.7646   -9.2059   29.2921 H         1 ZZI         0.0522
     25 H           5.0203   -8.2628   32.1584 H         1 ZZI         0.0282
     26 H           5.3461   -7.2456   30.7120 H         1 ZZI         0.0282
     27 H           6.7671   -9.8457   31.4280 H         1 ZZI         0.0230
     28 H           7.0898   -8.8382   29.9955 H         1 ZZI         0.0230
     29 H           7.4358   -8.2070   31.6242 H         1 ZZI         0.0230
     30 H           3.9492   -8.6527   32.6491 H         1 ZZI         0.0865
     31 H           3.2854  -10.5372   34.6965 H         1 ZZI         0.2134
     32 H           1.2409   -9.9710   33.0287 H         1 ZZI         0.0668
     33 H           0.8021   -8.2372   31.4848 H         1 ZZI         0.2102
     34 H           1.7179   -8.4754   34.9350 H         1 ZZI         0.0585
     35 H           0.4355   -7.8386   33.8625 H         1 ZZI         0.0585
     36 H           2.0638   -6.4983   32.8951 H         1 ZZI         0.2095
@<TRIPOS>BOND
     1    1    2 1  
     2    2    3 1  
     3    3    4 1  
     4    4    5 1  
     5    4    8 am 
     6    5    6 1  
     7    6    7 1  
     8    8    9 2  
     9    8   10 1  
    10   10   11 1  
    11   10   12 1  
    12   12   13 1  
    13   12   14 1  
    14   14   15 1  
    15    1   16 1  
    16    1   17 1  
    17    1   18 1  
    18    2   19 1  
    19    2   20 1  
    20    3   21 1  
    21    3   22 1  
    22    5   23 1  
    23    5   24 1  
    24    6   25 1  
    25    6   26 1  
    26    7   27 1  
    27    7   28 1  
    28    7   29 1  
    29   10   30 1  
    30   11   31 1  
    31   12   32 1  
    32   13   33 1  
    33   14   34 1  
    34   14   35 1  
    35   15   36 1  
@<TRIPOS>SUBSTRUCTURE
     1 ZZI         1

