### 
### Created by X-TOOL on Mon Sep 10 21:13:03 2018
### 

@<TRIPOS>MOLECULE
2wq5_ligand
   63    66     1     0     0
SMALL
GAST_HUCK


@<TRIPOS>ATOM
      1 O8        -13.7090   17.5040   15.1700 O.2       1 MIY        -0.3935
      2 C21       -13.0470   16.6000   15.7240 C.2       1 MIY         0.1956
      3 N2        -11.8290   16.8560   16.2090 N.am      1 MIY        -0.2987
      4 C2        -13.6040   15.2540   15.8250 C.3       1 MIY         0.1392
      5 C1        -14.8170   14.9630   16.5640 C.2       1 MIY         0.1170
      6 O1        -15.7110   15.7740   16.7120 O.2       1 MIY        -0.3681
      7 C3        -13.2320   14.3450   14.9440 C.3       1 MIY         0.1294
      8 O2        -13.0120   14.7870   13.7140 O.3       1 MIY        -0.3814
      9 C4        -13.4820   12.8690   15.1850 C.3       1 MIY         0.0018
     10 N1        -12.1880   12.3600   15.7290 N.4       1 MIY         0.2344
     11 C20       -12.2500   10.8890   15.7920 C.3       1 MIY        -0.0430
     12 C19       -11.7830   12.8300   17.0640 C.3       1 MIY        -0.0430
     13 C5        -14.7580   12.5840   15.9820 C.3       1 MIY         0.0021
     14 C18       -14.9310   13.5760   17.1120 C.3       1 MIY         0.1270
     15 O7        -13.8710   13.3470   18.0320 O.3       1 MIY        -0.4489
     16 C17       -16.2480   13.4220   17.8170 C.2       1 MIY         0.1162
     17 O6        -16.3570   14.0150   19.0040 O.3       1 MIY        -0.3328
     18 C16       -17.2650   12.7430   17.2740 C.2       1 MIY         0.1117
     19 C7        -17.1760   12.0490   15.9340 C.3       1 MIY         0.0507
     20 C6        -15.9990   12.5490   15.0990 C.3       1 MIY        -0.0272
     21 C15       -18.5130   12.6370   18.0160 C.2       1 MIY         0.2083
     22 O5        -18.6120   13.1840   19.1610 O.2       1 MIY        -0.3409
     23 C14       -19.6620   11.9330   17.3640 C.ar      1 MIY         0.0680
     24 C9        -19.6440   11.7150   15.9880 C.ar      1 MIY        -0.0069
     25 C8        -18.4730   12.2270   15.1650 C.3       1 MIY         0.0057
     26 C13       -20.7220   11.4660   18.1310 C.ar      1 MIY         0.0898
     27 O4        -20.7440   11.6730   19.4460 O.3       1 MIY        -0.3374
     28 C12       -21.7790   10.7950   17.5090 C.ar      1 MIY        -0.0447
     29 C11       -21.7720   10.5910   16.1330 C.ar      1 MIY        -0.0538
     30 C10       -20.6950   11.0470   15.3600 C.ar      1 MIY         0.0379
     31 N7        -20.6560   10.8580   13.9620 N.pl3     1 MIY        -0.3230
     32 CN7       -20.9820   12.1140   13.2920 C.3       1 MIY         0.0117
     33 C71       -21.5860    9.8450   13.4760 C.3       1 MIY         0.0117
     34 H1        -11.3039   16.1289   16.6512 H         1 MIY         0.1816
     35 H2        -11.4422   17.7748   16.1299 H         1 MIY         0.1816
     36 H3        -12.9187   14.9307   16.6224 H         1 MIY         0.0771
     37 H4        -12.1757   14.3168   15.2497 H         1 MIY         0.0702
     38 H5        -12.7510   14.0609   13.1597 H         1 MIY         0.2105
     39 H6        -13.6349   12.3862   14.2085 H         1 MIY         0.0869
     40 H7        -11.4660   12.6338   15.0811 H         1 MIY         0.2031
     41 H8        -11.3023   10.4989   16.1915 H         1 MIY         0.0777
     42 H9        -12.4161   10.4854   14.7823 H         1 MIY         0.0777
     43 H10       -13.0778   10.5847   16.4493 H         1 MIY         0.0777
     44 H11       -11.7235   13.9284   17.0635 H         1 MIY         0.0777
     45 H12       -10.7987   12.4096   17.3178 H         1 MIY         0.0777
     46 H13       -12.5242   12.5033   17.8082 H         1 MIY         0.0777
     47 H14       -14.6465   11.5858   16.4304 H         1 MIY         0.0210
     48 H15       -13.9470   13.9544   18.7585 H         1 MIY         0.1839
     49 H16       -17.2238   13.8548   19.3584 H         1 MIY         0.2506
     50 H17       -17.0278   10.9748   16.1188 H         1 MIY         0.0707
     51 H18       -15.8313   11.8694   14.2505 H         1 MIY         0.0311
     52 H19       -16.2146   13.5597   14.7223 H         1 MIY         0.0311
     53 H20       -18.4171   11.6631   14.2222 H         1 MIY         0.0465
     54 H21       -18.6221   13.2945   14.9455 H         1 MIY         0.0465
     55 H22       -20.7332   12.6071   19.6186 H         1 MIY         0.2467
     56 H23       -22.6096   10.4312   18.1030 H         1 MIY         0.0467
     57 H24       -22.6006   10.0786   15.6577 H         1 MIY         0.0509
     58 H25       -20.9517   11.9669   12.2023 H         1 MIY         0.0470
     59 H26       -20.2499   12.8833   13.5786 H         1 MIY         0.0470
     60 H27       -21.9900   12.4379   13.5903 H         1 MIY         0.0470
     61 H28       -21.3673    8.8830   13.9625 H         1 MIY         0.0470
     62 H29       -21.4758    9.7384   12.3867 H         1 MIY         0.0470
     63 H30       -22.6163   10.1495   13.7123 H         1 MIY         0.0470
@<TRIPOS>BOND
     1    1    2 2  
     2    2    3 am 
     3    2    4 1  
     4    4    5 1  
     5    4    7 1  
     6    5    6 2  
     7    5   14 1  
     8    7    8 1  
     9    7    9 1  
    10    9   10 1  
    11    9   13 1  
    12   10   11 1  
    13   10   12 1  
    14   13   14 1  
    15   13   20 1  
    16   14   15 1  
    17   14   16 1  
    18   16   17 1  
    19   16   18 2  
    20   18   19 1  
    21   18   21 1  
    22   19   20 1  
    23   19   25 1  
    24   21   22 2  
    25   21   23 1  
    26   23   24 ar 
    27   23   26 ar 
    28   24   25 1  
    29   24   30 ar 
    30   26   27 1  
    31   26   28 ar 
    32   28   29 ar 
    33   29   30 ar 
    34   30   31 1  
    35   31   32 1  
    36   31   33 1  
    37    3   34 1  
    38    3   35 1  
    39    4   36 1  
    40    7   37 1  
    41    8   38 1  
    42    9   39 1  
    43   10   40 1  
    44   11   41 1  
    45   11   42 1  
    46   11   43 1  
    47   12   44 1  
    48   12   45 1  
    49   12   46 1  
    50   13   47 1  
    51   15   48 1  
    52   17   49 1  
    53   19   50 1  
    54   20   51 1  
    55   20   52 1  
    56   25   53 1  
    57   25   54 1  
    58   27   55 1  
    59   28   56 1  
    60   29   57 1  
    61   32   58 1  
    62   32   59 1  
    63   32   60 1  
    64   33   61 1  
    65   33   62 1  
    66   33   63 1  
@<TRIPOS>SUBSTRUCTURE
     1 MIY         1

