### 
### Created by X-TOOL on Mon Sep 10 21:13:00 2018
### 

@<TRIPOS>MOLECULE
2wqb_ligand
   50    54     1     0     0
SMALL
GAST_HUCK


@<TRIPOS>ATOM
      1 C1         33.1710   42.4900   34.6710 C.ar      1 QQ1        -0.0638
      2 C2         34.5110   42.7900   34.6760 C.ar      1 QQ1        -0.0635
      3 C6         32.7440   41.2340   35.0320 C.ar      1 QQ1        -0.0635
      4 C3         35.4390   41.8280   35.0530 C.ar      1 QQ1        -0.0568
      5 C5         33.6570   40.2670   35.4100 C.ar      1 QQ1        -0.0568
      6 C24        39.9340   44.6280   38.6820 C.ar      1 QQ1         0.0592
      7 C10        36.8400   37.5910   36.0250 C.2       1 QQ1         0.1096
      8 C4         35.0190   40.5520   35.4270 C.ar      1 QQ1        -0.0164
      9 C21        37.9490   42.8740   38.2050 C.ar      1 QQ1         0.1005
     10 C7         36.0050   39.5310   35.8530 C.2       1 QQ1         0.0525
     11 C8         37.1460   39.6760   36.5800 C.2       1 QQ1         0.1366
     12 C22        37.6820   44.1050   38.8950 C.ar      1 QQ1         0.1361
     13 C26        39.2540   42.6780   37.8100 C.ar      1 QQ1         0.1253
     14 C19        37.7570   40.8770   37.1690 C.2       1 QQ1         0.1374
     15 C16        38.4270   37.3010   41.5580 C.3       1 QQ1        -0.0530
     16 C15        39.7630   37.0380   40.9070 C.3       1 QQ1        -0.0527
     17 C17        37.2910   37.0000   40.6280 C.3       1 QQ1        -0.0527
     18 C14        39.8590   37.7820   39.5990 C.3       1 QQ1        -0.0476
     19 C18        37.4570   37.7670   39.3370 C.3       1 QQ1        -0.0476
     20 C13        38.7410   37.3700   38.6820 C.3       1 QQ1        -0.0128
     21 C12        38.9070   37.9740   37.3360 C.3       1 QQ1         0.0629
     22 N23        38.7140   44.9690   39.1170 N.ar      1 QQ1        -0.2635
     23 N25        40.2640   43.5060   38.0260 N.ar      1 QQ1        -0.2751
     24 N11        35.8190   38.1980   35.5130 N.2       1 QQ1        -0.2998
     25 N20        37.1090   41.8160   37.8160 N.2       1 QQ1        -0.2930
     26 N9         37.6780   38.4040   36.6840 N.pl3     1 QQ1        -0.2320
     27 N28        36.4830   44.4680   39.3400 N.pl3     1 QQ1        -0.3144
     28 S27        39.4560   41.1800   36.9720 S.3       1 QQ1         0.0200
     29 H1         32.4486   43.2448   34.3819 H         1 QQ1         0.0600
     30 H2         34.8450   43.7794   34.3852 H         1 QQ1         0.0612
     31 H3         31.6855   41.0005   35.0202 H         1 QQ1         0.0612
     32 H4         36.4956   42.0704   35.0565 H         1 QQ1         0.0604
     33 H5         33.3097   39.2805   35.6950 H         1 QQ1         0.0604
     34 H6         40.7358   45.3301   38.8803 H         1 QQ1         0.1014
     35 H7         37.0038   36.5186   35.9296 H         1 QQ1         0.1321
     36 H8         38.3759   38.3595   41.8530 H         1 QQ1         0.0265
     37 H9         38.3343   36.6664   42.4517 H         1 QQ1         0.0265
     38 H10        39.8705   35.9593   40.7204 H         1 QQ1         0.0265
     39 H11        40.5669   37.3761   41.5774 H         1 QQ1         0.0265
     40 H12        36.3437   37.2919   41.1049 H         1 QQ1         0.0265
     41 H13        37.2751   35.9218   40.4107 H         1 QQ1         0.0265
     42 H14        40.8231   37.5535   39.1213 H         1 QQ1         0.0269
     43 H15        39.7917   38.8631   39.7905 H         1 QQ1         0.0269
     44 H16        37.4731   38.8458   39.5511 H         1 QQ1         0.0269
     45 H17        36.6168   37.5391   38.6646 H         1 QQ1         0.0269
     46 H18        38.7552   36.2761   38.5677 H         1 QQ1         0.0328
     47 H19        39.3911   37.2287   36.6878 H         1 QQ1         0.0625
     48 H20        39.5615   38.8522   37.4374 H         1 QQ1         0.0625
     49 H21        36.3653   45.3676   39.8276 H         1 QQ1         0.1820
     50 H22        35.6718   43.8496   39.1972 H         1 QQ1         0.1820
@<TRIPOS>BOND
     1    2    1 ar 
     2    3    1 ar 
     3    4    2 ar 
     4    5    3 ar 
     5    8    4 ar 
     6    8    5 ar 
     7    6   22 ar 
     8   23    6 ar 
     9    7   24 2  
    10   26    7 1  
    11   10    8 1  
    12    9   12 ar 
    13   13    9 ar 
    14   25    9 1  
    15   11   10 2  
    16   10   24 1  
    17   11   14 1  
    18   26   11 1  
    19   12   22 ar 
    20   12   27 1  
    21   13   23 ar 
    22   28   13 1  
    23   14   25 2  
    24   14   28 1  
    25   16   15 1  
    26   17   15 1  
    27   18   16 1  
    28   19   17 1  
    29   20   18 1  
    30   20   19 1  
    31   21   20 1  
    32   21   26 1  
    33    1   29 1  
    34    2   30 1  
    35    3   31 1  
    36    4   32 1  
    37    5   33 1  
    38    6   34 1  
    39    7   35 1  
    40   15   36 1  
    41   15   37 1  
    42   16   38 1  
    43   16   39 1  
    44   17   40 1  
    45   17   41 1  
    46   18   42 1  
    47   18   43 1  
    48   19   44 1  
    49   19   45 1  
    50   20   46 1  
    51   21   47 1  
    52   21   48 1  
    53   27   49 1  
    54   27   50 1  
@<TRIPOS>SUBSTRUCTURE
     1 QQ1         1

