### 
### Created by X-TOOL on Mon Sep 10 21:12:59 2018
### 

@<TRIPOS>MOLECULE
2wr8_ligand
   46    48     1     0     0
SMALL
GAST_HUCK


@<TRIPOS>ATOM
      1 N          17.5030  -42.0960    7.0680 N.4       1 SAH         0.2327
      2 CA         17.6730  -43.1640    6.0600 C.3       1 SAH         0.0291
      3 CB         16.2790  -43.6400    5.5350 C.3       1 SAH         0.0114
      4 CG         16.2900  -45.0380    4.9190 C.3       1 SAH         0.0005
      5 SD         14.5580  -45.5190    4.4340 S.3       1 SAH        -0.1578
      6 C          18.4890  -42.6760    4.8770 C.2       1 SAH         0.0844
      7 O          18.5710  -41.4450    4.6540 O.co2     1 SAH        -0.5643
      8 OXT        19.0410  -43.5620    4.1930 O.co2     1 SAH        -0.5643
      9 C5'        14.7660  -47.3070    4.1410 C.3       1 SAH         0.0226
     10 C4'        14.4190  -48.2510    5.2610 C.3       1 SAH         0.0995
     11 O4'        15.1730  -47.8750    6.4330 O.3       1 SAH        -0.3383
     12 C3'        12.9500  -48.1050    5.6990 C.3       1 SAH         0.1132
     13 O3'        12.1320  -49.0510    5.0200 O.3       1 SAH        -0.3864
     14 C2'        13.0220  -48.3300    7.2320 C.3       1 SAH         0.1385
     15 O2'        12.2760  -49.5020    7.5920 O.3       1 SAH        -0.3836
     16 C1'        14.5370  -48.4890    7.5430 C.3       1 SAH         0.2009
     17 N9         14.8580  -47.6200    8.7120 N.pl3     1 SAH        -0.1919
     18 C8         14.8210  -46.2610    8.7530 C.2       1 SAH         0.1123
     19 N7         15.1720  -45.8330    9.9880 N.2       1 SAH        -0.2958
     20 C5         15.4500  -46.9320   10.7120 C.ar      1 SAH         0.1045
     21 C6         15.8610  -47.0980   12.0410 C.ar      1 SAH         0.1298
     22 N6         16.0190  -46.0270   12.8760 N.pl3     1 SAH        -0.3152
     23 N1         16.0820  -48.3500   12.4820 N.ar      1 SAH        -0.2698
     24 C2         15.9060  -49.4190   11.6790 C.ar      1 SAH         0.0533
     25 N3         15.5380  -49.3080   10.3860 N.ar      1 SAH        -0.2714
     26 C4         15.2810  -48.0540    9.8940 C.ar      1 SAH         0.1613
     27 H1         16.9588  -42.4467    7.8406 H         1 SAH         0.2010
     28 H2         17.0267  -41.3121    6.6500 H         1 SAH         0.2010
     29 H3         18.4076  -41.8010    7.4008 H         1 SAH         0.2010
     30 H4         18.1926  -44.0123    6.5293 H         1 SAH         0.1024
     31 H5         15.9362  -42.9279    4.7699 H         1 SAH         0.0347
     32 H6         15.5733  -43.6397    6.3788 H         1 SAH         0.0347
     33 H7         16.6782  -45.7589    5.6536 H         1 SAH         0.0379
     34 H8         16.9340  -45.0403    4.0273 H         1 SAH         0.0379
     35 H9         15.8226  -47.4761    3.8861 H         1 SAH         0.0402
     36 H10        14.1341  -47.5734    3.2809 H         1 SAH         0.0402
     37 H11        14.6352  -49.2862    4.9584 H         1 SAH         0.0632
     38 H12        12.5752  -47.0940    5.4813 H         1 SAH         0.0647
     39 H13        11.2304  -48.9478    5.3010 H         1 SAH         0.2100
     40 H14        12.6132  -47.4619    7.7698 H         1 SAH         0.0676
     41 H15        11.3685  -49.3899    7.3344 H         1 SAH         0.2101
     42 H16        14.8369  -49.5359    7.6977 H         1 SAH         0.0996
     43 H17        14.5501  -45.6154    7.9189 H         1 SAH         0.1349
     44 H18        16.3221  -46.1732   13.8495 H         1 SAH         0.1820
     45 H19        15.8349  -45.0739   12.5316 H         1 SAH         0.1820
     46 H20        16.0670  -50.4091   12.0899 H         1 SAH         0.0996
@<TRIPOS>BOND
     1    1    2 1  
     2    2    3 1  
     3    2    6 1  
     4    3    4 1  
     5    4    5 1  
     6    5    9 1  
     7    6    7 ar 
     8    6    8 ar 
     9    9   10 1  
    10   10   11 1  
    11   10   12 1  
    12   11   16 1  
    13   12   13 1  
    14   12   14 1  
    15   14   15 1  
    16   14   16 1  
    17   16   17 1  
    18   17   18 1  
    19   17   26 1  
    20   18   19 2  
    21   19   20 1  
    22   20   21 ar 
    23   20   26 ar 
    24   21   22 1  
    25   21   23 ar 
    26   23   24 ar 
    27   24   25 ar 
    28   25   26 ar 
    29    1   27 1  
    30    1   28 1  
    31    1   29 1  
    32    2   30 1  
    33    3   31 1  
    34    3   32 1  
    35    4   33 1  
    36    4   34 1  
    37    9   35 1  
    38    9   36 1  
    39   10   37 1  
    40   12   38 1  
    41   13   39 1  
    42   14   40 1  
    43   15   41 1  
    44   16   42 1  
    45   18   43 1  
    46   22   44 1  
    47   22   45 1  
    48   24   46 1  
@<TRIPOS>SUBSTRUCTURE
     1 SAH         1

