### 
### Created by X-TOOL on Mon Sep 10 21:13:04 2018
### 

@<TRIPOS>MOLECULE
2wsx_ligand
   25    24     1     0     0
SMALL
GAST_HUCK


@<TRIPOS>ATOM
      1 N1          3.1210    4.9740   -5.9610 N.4       1 NM2         0.2369
      2 C8          3.7050    4.5800   -7.2450 C.3       1 NM2        -0.0418
      3 O4          3.7490    3.9990   -0.3710 O.co2     1 NM2        -0.5690
      4 C5          3.6120    4.0010   -1.6080 C.2       1 NM2         0.0350
      5 O7          2.8270    3.2350   -2.1990 O.co2     1 NM2        -0.5690
      6 C6          4.4360    4.9700   -2.4140 C.3       1 NM2         0.0050
      7 C2          4.0960    4.7540   -4.8880 C.3       1 NM2        -0.0293
      8 C9          1.9170    4.1700   -5.7120 C.3       1 NM2        -0.0418
      9 C10         2.7730    6.3960   -6.0080 C.3       1 NM2        -0.0418
     10 C3          3.6350    5.4490   -3.6160 C.3       1 NM2        -0.0009
     11 H           4.5958    5.1783   -7.4364 H         1 NM2         0.0778
     12 H           3.9750    3.5245   -7.2113 H         1 NM2         0.0778
     13 H           2.9773    4.7450   -8.0396 H         1 NM2         0.0778
     14 H           5.3428    4.4732   -2.7590 H         1 NM2         0.0432
     15 H           4.6994    5.8251   -1.7915 H         1 NM2         0.0432
     16 H           5.0604    5.1622   -5.1904 H         1 NM2         0.0816
     17 H           4.1867    3.6843   -4.6995 H         1 NM2         0.0816
     18 H           2.1867    3.1144   -5.6802 H         1 NM2         0.0778
     19 H           1.4769    4.4627   -4.7587 H         1 NM2         0.0778
     20 H           1.1971    4.3384   -6.5130 H         1 NM2         0.0778
     21 H           2.3416    6.6949   -5.0527 H         1 NM2         0.0778
     22 H           3.6712    6.9823   -6.2019 H         1 NM2         0.0778
     23 H           2.0482    6.5652   -6.8043 H         1 NM2         0.0778
     24 H           3.7830    6.5229   -3.7302 H         1 NM2         0.0335
     25 H           2.5830    5.2163   -3.4512 H         1 NM2         0.0335
@<TRIPOS>BOND
     1    1    2 1  
     2    7    1 1  
     3    1    8 1  
     4    1    9 1  
     5    4    3 ar 
     6    4    5 ar 
     7    6    4 1  
     8   10    6 1  
     9    7   10 1  
    10    2   11 1  
    11    2   12 1  
    12    2   13 1  
    13    6   14 1  
    14    6   15 1  
    15    7   16 1  
    16    7   17 1  
    17    8   18 1  
    18    8   19 1  
    19    8   20 1  
    20    9   21 1  
    21    9   22 1  
    22    9   23 1  
    23   10   24 1  
    24   10   25 1  
@<TRIPOS>SUBSTRUCTURE
     1 NM2         1

