### 
### Created by X-TOOL on Mon Sep 10 21:13:00 2018
### 

@<TRIPOS>MOLECULE
2wtc_ligand
   42    44     1     0     0
SMALL
GAST_HUCK


@<TRIPOS>ATOM
      1 C01        -4.9630   50.0070   13.9560 C.3       1 VGM         0.0569
      2 O02        -5.7340   50.8490   13.0880 O.3       1 VGM        -0.3249
      3 C03        -6.0490   50.4290   11.7420 C.ar      1 VGM         0.1197
      4 C04        -7.4640   50.2720   11.2890 C.ar      1 VGM        -0.0345
      5 C05        -7.7480   49.8560    9.9510 C.ar      1 VGM        -0.0380
      6 C06        -9.1060   49.6620    9.5370 C.ar      1 VGM        -0.0121
      7 C07       -10.1580   49.8930   10.4530 C.ar      1 VGM         0.0024
      8 N08       -11.5760   49.6160   10.0860 N.ar      1 VGM        -0.2832
      9 C09       -11.9050   49.1200    8.7710 C.ar      1 VGM         0.1200
     10 N10       -13.2780   48.8780    8.4420 N.pl3     1 VGM        -0.3197
     11 C11       -10.8480   48.8920    7.8210 C.ar      1 VGM         0.0309
     12 C12       -11.1510   48.3710    6.5270 C.ar      1 VGM        -0.0127
     13 C13       -10.2580   47.3310    5.9770 C.ar      1 VGM        -0.0506
     14 C14       -10.5020   46.7630    4.6310 C.ar      1 VGM        -0.0432
     15 C15       -11.6340   47.2270    3.8300 C.ar      1 VGM         0.0478
     16 C16       -11.8390   46.6160    2.4000 C.2       1 VGM         0.2011
     17 N17       -10.7310   45.9540    1.7730 N.am      1 VGM        -0.3004
     18 O18       -12.8080   46.8330    1.7360 O.2       1 VGM        -0.3858
     19 C19       -12.5340   48.2730    4.3860 C.ar      1 VGM        -0.0432
     20 C20       -12.2960   48.8450    5.7310 C.ar      1 VGM        -0.0506
     21 C21        -9.4440   49.1470    8.1940 C.ar      1 VGM        -0.0395
     22 C22        -6.6500   49.5470    9.0450 C.ar      1 VGM        -0.0741
     23 C23        -5.2390   49.7010    9.4990 C.ar      1 VGM        -0.0404
     24 C24        -4.9590   50.1390   10.8280 C.ar      1 VGM         0.1172
     25 O25        -3.6290   50.3160   11.2620 O.3       1 VGM        -0.3361
     26 H1         -4.8339   50.5037   14.9289 H         1 VGM         0.0573
     27 H2         -3.9769   49.8210   13.5055 H         1 VGM         0.0573
     28 H3         -5.4869   49.0505   14.0994 H         1 VGM         0.0573
     29 H4         -8.2774   50.4740   11.9765 H         1 VGM         0.0506
     30 H5         -9.9293   50.2785   11.4400 H         1 VGM         0.0781
     31 H6        -13.5291   48.5241    7.5079 H         1 VGM         0.1787
     32 H7        -14.0142   49.0579    9.1396 H         1 VGM         0.1787
     33 H8         -9.4166   46.9803    6.5636 H         1 VGM         0.0622
     34 H9         -9.8390   46.0006    4.2383 H         1 VGM         0.0664
     35 H10       -10.8368   45.5564    0.8616 H         1 VGM         0.1807
     36 H11        -9.8530   45.8903    2.2475 H         1 VGM         0.1807
     37 H12       -13.3757   48.6213    3.7984 H         1 VGM         0.0664
     38 H13       -12.9589   49.6061    6.1264 H         1 VGM         0.0622
     39 H14        -8.6538   48.9551    7.4772 H         1 VGM         0.0700
     40 H15        -6.8598   49.2042    8.0382 H         1 VGM         0.0501
     41 H16        -4.4243   49.4800    8.8189 H         1 VGM         0.0514
     42 H17        -3.6283   50.6087   12.1658 H         1 VGM         0.2449
@<TRIPOS>BOND
     1    1    2 1  
     2    2    3 1  
     3    3    4 ar 
     4    3   24 ar 
     5    4    5 ar 
     6    5    6 1  
     7    5   22 ar 
     8    6    7 ar 
     9    6   21 ar 
    10    7    8 ar 
    11    8    9 ar 
    12    9   10 1  
    13    9   11 ar 
    14   11   12 1  
    15   11   21 ar 
    16   12   13 ar 
    17   12   20 ar 
    18   13   14 ar 
    19   14   15 ar 
    20   15   16 1  
    21   15   19 ar 
    22   16   17 am 
    23   16   18 2  
    24   19   20 ar 
    25   22   23 ar 
    26   23   24 ar 
    27   24   25 1  
    28    1   26 1  
    29    1   27 1  
    30    1   28 1  
    31    4   29 1  
    32    7   30 1  
    33   10   31 1  
    34   10   32 1  
    35   13   33 1  
    36   14   34 1  
    37   17   35 1  
    38   17   36 1  
    39   19   37 1  
    40   20   38 1  
    41   21   39 1  
    42   22   40 1  
    43   23   41 1  
    44   25   42 1  
@<TRIPOS>SUBSTRUCTURE
     1 VGM         1

