### 
### Created by X-TOOL on Mon Sep 10 21:13:00 2018
### 

@<TRIPOS>MOLECULE
2wtd_ligand
   40    43     1     0     0
SMALL
GAST_HUCK


@<TRIPOS>ATOM
      1 N01        35.0780  -32.2010   13.7160 N.am      1 ZZK        -0.3004
      2 C02        34.7610  -33.3720   12.9210 C.2       1 ZZK         0.2011
      3 O03        34.1590  -34.2680   13.4260 O.2       1 ZZK        -0.3858
      4 C04        35.3420  -33.4650   11.5030 C.ar      1 ZZK         0.0478
      5 C05        35.4800  -32.2950   10.7350 C.ar      1 ZZK        -0.0432
      6 C06        36.0680  -32.3520    9.4620 C.ar      1 ZZK        -0.0506
      7 C07        36.5260  -33.5750    8.9420 C.ar      1 ZZK        -0.0128
      8 C08        37.1160  -33.6110    7.6770 C.ar      1 ZZK         0.0307
      9 C09        37.9900  -32.6180    7.2970 C.ar      1 ZZK        -0.0399
     10 C10        38.5700  -32.6180    6.0460 C.ar      1 ZZK        -0.0091
     11 C11        39.4010  -31.5680    5.6530 C.ar      1 ZZK         0.0036
     12 C12        39.4190  -30.3950    6.4270 C.ar      1 ZZK        -0.0742
     13 C13        40.2070  -29.2970    6.0520 C.ar      1 ZZK        -0.0816
     14 C14        40.9470  -29.3520    4.8650 C.ar      1 ZZK        -0.0415
     15 C15        40.9030  -30.4980    4.0580 C.ar      1 ZZK         0.1239
     16 O16        41.5400  -30.8100    2.8090 O.3       1 ZZK        -0.2911
     17 C17        40.9790  -32.0580    2.3890 C.3       1 ZZK         0.1874
     18 O18        40.2450  -32.5520    3.5190 O.3       1 ZZK        -0.2891
     19 C19        40.1150  -31.6030    4.4400 C.ar      1 ZZK         0.1321
     20 C20        38.2510  -33.6440    5.1490 C.ar      1 ZZK         0.0021
     21 N21        37.3750  -34.6300    5.5200 N.ar      1 ZZK        -0.2835
     22 C22        36.7980  -34.6250    6.7620 C.ar      1 ZZK         0.1197
     23 N23        35.8640  -35.6770    7.1120 N.pl3     1 ZZK        -0.3198
     24 C24        36.3890  -34.7400    9.7150 C.ar      1 ZZK        -0.0506
     25 C25        35.8010  -34.6870   10.9880 C.ar      1 ZZK        -0.0432
     26 H1         35.5826  -31.4406   13.3070 H         1 ZZK         0.1807
     27 H2         34.7920  -32.1540   14.6731 H         1 ZZK         0.1807
     28 H3         35.1313  -31.3466   11.1274 H         1 ZZK         0.0664
     29 H4         36.1697  -31.4461    8.8754 H         1 ZZK         0.0622
     30 H5         38.2266  -31.8218    7.9935 H         1 ZZK         0.0697
     31 H6         38.8158  -30.3381    7.3259 H         1 ZZK         0.0494
     32 H7         40.2427  -28.4120    6.6770 H         1 ZZK         0.0497
     33 H8         41.5562  -28.5058    4.5686 H         1 ZZK         0.0506
     34 H9         41.7763  -32.7631    2.1112 H         1 ZZK         0.0975
     35 H10        40.3072  -31.9075    1.5311 H         1 ZZK         0.0975
     36 H11        38.6969  -33.6585    4.1611 H         1 ZZK         0.0778
     37 H12        35.6402  -36.4151    6.4294 H         1 ZZK         0.1786
     38 H13        35.4242  -35.6863    8.0433 H         1 ZZK         0.1786
     39 H14        36.7406  -35.6882    9.3247 H         1 ZZK         0.0622
     40 H15        35.7010  -35.5926   11.5753 H         1 ZZK         0.0664
@<TRIPOS>BOND
     1    1    2 am 
     2    2    3 2  
     3    2    4 1  
     4    4    5 ar 
     5    4   25 ar 
     6    5    6 ar 
     7    6    7 ar 
     8    7    8 1  
     9    7   24 ar 
    10    8    9 ar 
    11    8   22 ar 
    12    9   10 ar 
    13   10   11 1  
    14   10   20 ar 
    15   11   12 ar 
    16   11   19 ar 
    17   12   13 ar 
    18   13   14 ar 
    19   14   15 ar 
    20   15   16 1  
    21   15   19 ar 
    22   16   17 1  
    23   17   18 1  
    24   18   19 1  
    25   20   21 ar 
    26   21   22 ar 
    27   22   23 1  
    28   24   25 ar 
    29    1   26 1  
    30    1   27 1  
    31    5   28 1  
    32    6   29 1  
    33    9   30 1  
    34   12   31 1  
    35   13   32 1  
    36   14   33 1  
    37   17   34 1  
    38   17   35 1  
    39   20   36 1  
    40   23   37 1  
    41   23   38 1  
    42   24   39 1  
    43   25   40 1  
@<TRIPOS>SUBSTRUCTURE
     1 ZZK         1

