### 
### Created by X-TOOL on Mon Sep 10 21:13:04 2018
### 

@<TRIPOS>MOLECULE
2wtw_ligand
   51    55     1     0     0
SMALL
GAST_HUCK


@<TRIPOS>ATOM
      1 C13        14.5600   62.2590   66.3080 C.3       1 ZZL         0.0088
      2 C15        14.7300   63.9070   64.4390 C.3       1 ZZL         0.0501
      3 C17        13.1860   65.4630   63.1600 C.ar      1 ZZL         0.1392
      4 C20        13.4290   67.8730   63.2540 C.ar      1 ZZL        -0.0720
      5 C21        14.5010   67.7200   64.1370 C.ar      1 ZZL        -0.0382
      6 C22        14.9190   66.4440   64.5300 C.ar      1 ZZL         0.1392
      7 C24        15.0540   63.1440   63.1690 C.ar      1 ZZL         0.0283
      8 C26        15.9490   63.0130   60.9110 C.ar      1 ZZL         0.0372
      9 C28        15.6240   61.6470   60.8370 C.ar      1 ZZL        -0.0512
     10 O01        11.9750   56.1880   57.2550 O.co2     1 ZZL        -0.5638
     11 C02        11.6370   55.5830   58.2170 C.2       1 ZZL         0.0552
     12 O03        11.0800   54.3040   58.0790 O.co2     1 ZZL        -0.5638
     13 C04        11.7990   56.1880   59.6090 C.ar      1 ZZL        -0.0018
     14 C05        12.3580   57.4600   59.7660 C.ar      1 ZZL        -0.0573
     15 C06        12.4990   58.0010   61.0480 C.ar      1 ZZL        -0.0347
     16 C07        12.0770   57.2810   62.1720 C.ar      1 ZZL         0.0671
     17 N08        12.3070   57.8330   63.4960 N.pl3     1 ZZL        -0.2437
     18 C09        12.8730   58.9890   64.1720 C.ar      1 ZZL         0.2026
     19 N10        12.7250   59.1440   65.5510 N.ar      1 ZZL        -0.2606
     20 C11        13.2690   60.2140   66.1750 C.ar      1 ZZL         0.0199
     21 C12        13.9510   61.1350   65.4520 C.ar      1 ZZL         0.0458
     22 N14        14.8120   63.5280   65.6510 N.4       1 ZZL         0.2646
     23 C16        14.2630   65.3080   64.0450 C.ar      1 ZZL         0.0836
     24 F18        12.5220   64.3610   62.7010 F         1 ZZL        -0.1895
     25 C19        12.7660   66.7430   62.7660 C.ar      1 ZZL        -0.0382
     26 F23        15.9510   66.3230   65.4120 F         1 ZZL        -0.1895
     27 C25        15.6600   63.7590   62.0710 C.ar      1 ZZL        -0.0354
     28 CL1        16.7310   63.8110   59.5260 Cl        1 ZZL        -0.0698
     29 C29        15.0130   61.0280   61.9330 C.ar      1 ZZL        -0.0550
     30 C30        14.7350   61.7810   63.0920 C.ar      1 ZZL         0.0106
     31 C31        14.1130   60.9670   64.0610 C.ar      1 ZZL         0.0595
     32 N32        13.5840   59.9260   63.4430 N.ar      1 ZZL        -0.2560
     33 C33        11.5330   56.0010   62.0150 C.ar      1 ZZL        -0.0347
     34 C34        11.3850   55.4600   60.7290 C.ar      1 ZZL        -0.0573
     35 H1         15.5200   61.8931   66.7010 H         1 ZZL         0.0984
     36 H2         13.8705   62.4498   67.1436 H         1 ZZL         0.0984
     37 H3         13.7020   63.5158   64.4282 H         1 ZZL         0.1174
     38 H4         13.1127   68.8638   62.9486 H         1 ZZL         0.0542
     39 H5         15.0122   68.5958   64.5201 H         1 ZZL         0.0552
     40 H6         15.8445   61.0794   59.9402 H         1 ZZL         0.0575
     41 H7         12.6805   58.0241   58.8983 H         1 ZZL         0.0621
     42 H8         12.9380   58.9843   61.1721 H         1 ZZL         0.0543
     43 H9         11.9420   57.1770   64.2013 H         1 ZZL         0.2169
     44 H10        13.1600   60.3338   67.2468 H         1 ZZL         0.0827
     45 H11        15.7695   63.7293   65.8933 H         1 ZZL         0.2060
     46 H12        14.2012   64.1665   66.1361 H         1 ZZL         0.2060
     47 H13        11.9299   66.8551   62.0852 H         1 ZZL         0.0552
     48 H14        15.9087   64.8133   62.1114 H         1 ZZL         0.0573
     49 H15        14.7550   59.9760   61.8912 H         1 ZZL         0.0627
     50 H16        11.2271   55.4297   62.8840 H         1 ZZL         0.0543
     51 H17        10.9488   54.4756   60.6033 H         1 ZZL         0.0621
@<TRIPOS>BOND
     1   21    1 1  
     2    1   22 1  
     3    2    7 1  
     4   22    2 1  
     5    2   23 1  
     6   23    3 ar 
     7    3   24 1  
     8    3   25 ar 
     9    5    4 ar 
    10   25    4 ar 
    11    6    5 ar 
    12   23    6 ar 
    13    6   26 1  
    14    7   27 ar 
    15    7   30 ar 
    16    8    9 ar 
    17   27    8 ar 
    18    8   28 1  
    19    9   29 ar 
    20   11   10 ar 
    21   11   12 ar 
    22   13   11 1  
    23   14   13 ar 
    24   13   34 ar 
    25   15   14 ar 
    26   16   15 ar 
    27   17   16 1  
    28   16   33 ar 
    29   18   17 1  
    30   19   18 ar 
    31   18   32 ar 
    32   20   19 ar 
    33   20   21 ar 
    34   21   31 ar 
    35   29   30 ar 
    36   30   31 1  
    37   31   32 ar 
    38   33   34 ar 
    39    1   35 1  
    40    1   36 1  
    41    2   37 1  
    42    4   38 1  
    43    5   39 1  
    44    9   40 1  
    45   14   41 1  
    46   15   42 1  
    47   17   43 1  
    48   20   44 1  
    49   22   45 1  
    50   22   46 1  
    51   25   47 1  
    52   27   48 1  
    53   29   49 1  
    54   33   50 1  
    55   34   51 1  
@<TRIPOS>SUBSTRUCTURE
     1 ZZL         1

