### 
### Created by X-TOOL on Mon Sep 10 21:12:59 2018
### 

@<TRIPOS>MOLECULE
2wu6_ligand
   41    43     1     0     0
SMALL
GAST_HUCK


@<TRIPOS>ATOM
      1 FAF        39.1350   54.6520   17.1200 F         1 DKI        -0.1939
      2 CAU        37.8910   54.3560   17.5690 C.ar      1 DKI         0.1530
      3 CAI        37.7050   53.6480   18.7670 C.ar      1 DKI        -0.0443
      4 CAH        36.4320   53.3260   19.2380 C.ar      1 DKI        -0.0797
      5 CAJ        35.3340   53.7250   18.4960 C.ar      1 DKI        -0.0443
      6 CAV        35.5360   54.4100   17.2970 C.ar      1 DKI         0.1530
      7 FAG        34.4450   54.7620   16.5980 F         1 DKI        -0.1939
      8 CAZ        36.8030   54.7260   16.8050 C.ar      1 DKI         0.1428
      9 NAQ        36.9160   55.4570   15.6400 N.am      1 DKI        -0.2175
     10 CAS        37.2490   55.0050   14.4190 C.2       1 DKI         0.2457
     11 SAE        37.6920   53.3300   14.2740 S.2       1 DKI        -0.2453
     12 NBA        37.1790   55.8520   13.3620 N.am      1 DKI        -0.0786
     13 NAP        36.9440   57.0700   13.5150 N.2       1 DKI        -0.1775
     14 CAT        37.2320   55.5520   12.0420 C.2       1 DKI         0.2583
     15 NAA        37.4320   54.3620   11.4430 N.pl3     1 DKI        -0.2879
     16 NAO        37.0540   56.6710   11.3730 N.2       1 DKI        -0.2712
     17 CAX        36.8680   57.6300   12.3120 C.2       1 DKI         0.1527
     18 NAR        36.6730   58.9320   12.0060 N.pl3     1 DKI        -0.2660
     19 CAW        36.4240   60.0430   12.7330 C.ar      1 DKI         0.0579
     20 CAL        36.5920   60.0880   14.1180 C.ar      1 DKI        -0.0384
     21 CAN        36.3350   61.2660   14.8290 C.ar      1 DKI        -0.0460
     22 CAK        35.9920   61.2080   12.0590 C.ar      1 DKI        -0.0384
     23 CAM        35.7320   62.3990   12.7560 C.ar      1 DKI        -0.0460
     24 CAY        35.9070   62.4140   14.1510 C.ar      1 DKI         0.0953
     25 SBB        35.5680   63.8820   15.1160 S.o2      1 DKI         0.0603
     26 OAC        34.8640   64.8500   14.1930 O.2       1 DKI        -0.1521
     27 OAD        34.7220   63.5070   16.3000 O.2       1 DKI        -0.1521
     28 NAB        36.9390   64.5420   15.5150 N.am      1 DKI        -0.2623
     29 H          38.5777   53.3420   19.3439 H         1 DKI         0.0532
     30 H          36.3051   52.7730   20.1687 H         1 DKI         0.0477
     31 H          34.3242   53.5070   18.8437 H         1 DKI         0.0532
     32 H          36.7246   56.4561   15.7142 H         1 DKI         0.2363
     33 H          37.4505   54.3001   10.4250 H         1 DKI         0.1825
     34 H          37.5650   53.5229   12.0074 H         1 DKI         0.1825
     35 H          36.7255   59.1166   11.0042 H         1 DKI         0.2077
     36 H          36.9263   59.1977   14.6507 H         1 DKI         0.0528
     37 H          36.4681   61.2897   15.9106 H         1 DKI         0.0604
     38 H          35.8581   61.1814   10.9776 H         1 DKI         0.0528
     39 H          35.4016   63.2928   12.2268 H         1 DKI         0.0604
     40 H          37.1885   65.4607   15.1488 H         1 DKI         0.1633
     41 H          37.5785   64.0512   16.1399 H         1 DKI         0.1633
@<TRIPOS>BOND
     1    1    2 1  
     2    2    3 ar 
     3    2    8 ar 
     4    3    4 ar 
     5    4    5 ar 
     6    5    6 ar 
     7    6    7 1  
     8    6    8 ar 
     9    8    9 1  
    10    9   10 am 
    11   10   11 2  
    12   10   12 am 
    13   12   13 1  
    14   12   14 1  
    15   13   17 2  
    16   14   15 1  
    17   14   16 2  
    18   16   17 1  
    19   17   18 1  
    20   18   19 1  
    21   19   20 ar 
    22   19   22 ar 
    23   20   21 ar 
    24   21   24 ar 
    25   22   23 ar 
    26   23   24 ar 
    27   24   25 1  
    28   25   26 2  
    29   25   27 2  
    30   25   28 am 
    31    3   29 1  
    32    4   30 1  
    33    5   31 1  
    34    9   32 1  
    35   15   33 1  
    36   15   34 1  
    37   18   35 1  
    38   20   36 1  
    39   21   37 1  
    40   22   38 1  
    41   23   39 1  
    42   28   40 1  
    43   28   41 1  
@<TRIPOS>SUBSTRUCTURE
     1 DKI         1

