### 
### Created by X-TOOL on Mon Sep 10 21:13:00 2018
### 

@<TRIPOS>MOLECULE
2wu7_ligand
   35    36     1     0     0
SMALL
GAST_HUCK


@<TRIPOS>ATOM
      1 CAA        33.6540   17.4260   20.9730 C.3       1 V25        -0.0374
      2 CAL        34.6880   16.3710   21.2420 C.3       1 V25         0.0721
      3 OAM        35.2090   15.8090   19.9910 O.3       1 V25        -0.2799
      4 CAN        35.3970   16.1370   18.7310 C.2       1 V25         0.2727
      5 OAE        35.7750   17.2310   18.4890 O.2       1 V25        -0.3661
      6 CAS        35.4580   15.3250   17.3800 C.2       1 V25         0.1408
      7 NAV        35.6870   15.7960   15.9550 N.pl3     1 V25        -0.2617
      8 CAB        35.9390   17.1890   15.4380 C.3       1 V25         0.0382
      9 CAU        35.7000   14.7820   15.1310 C.ar      1 V25         0.0827
     10 CAQ        35.8910   14.6820   13.7070 C.ar      1 V25         0.0748
     11 CL1        36.0960   16.1330   12.7270 Cl        1 V25        -0.0771
     12 CAP        35.8730   13.4630   13.0960 C.ar      1 V25         0.0425
     13 CL2        36.0860   13.3560   11.4490 Cl        1 V25        -0.0763
     14 CAJ        35.6500   12.2500   13.8790 C.ar      1 V25        -0.0614
     15 CAK        35.4410   12.2920   15.2890 C.ar      1 V25        -0.0693
     16 CAT        35.4650   13.5460   15.9460 C.ar      1 V25        -0.0100
     17 CAR        35.3220   13.9410   17.2830 C.2       1 V25         0.0076
     18 CAO        35.0620   12.9580   18.1280 C.2       1 V25         0.0917
     19 CAH        35.6880   11.8030   18.6170 C.1       1 V25         0.0496
     20 NAC        35.8220   10.9390   19.1320 N.1       1 V25        -0.3759
     21 CAI        33.8050   13.0350   18.6270 C.2       1 V25         0.0571
     22 NAD        32.7780   13.7800   18.5560 N.pl3     1 V25        -0.3122
     23 H1         33.2830   17.8276   21.9275 H         1 V25         0.0255
     24 H2         32.8176   16.9849   20.4110 H         1 V25         0.0255
     25 H3         34.1038   18.2385   20.3835 H         1 V25         0.0255
     26 H4         34.2323   15.5647   21.8354 H         1 V25         0.0607
     27 H5         35.5185   16.8183   21.8079 H         1 V25         0.0607
     28 H6         35.8885   17.9044   16.2721 H         1 V25         0.0558
     29 H7         35.1760   17.4455   14.6883 H         1 V25         0.0558
     30 H8         36.9364   17.2340   14.9764 H         1 V25         0.0558
     31 H9         35.6432   11.2909   13.3739 H         1 V25         0.0525
     32 H10        35.2668   11.3798   15.8481 H         1 V25         0.0569
     33 H11        33.6157   12.1981   19.2976 H         1 V25         0.1308
     34 H12        31.9321   13.5436   19.0941 H         1 V25         0.1960
     35 H13        32.7915   14.6202   17.9604 H         1 V25         0.1960
@<TRIPOS>BOND
     1    1    2 1  
     2    2    3 1  
     3    3    4 1  
     4    4    5 2  
     5    4    6 1  
     6    6    7 1  
     7    6   17 2  
     8    7    8 1  
     9    7    9 1  
    10    9   10 ar 
    11    9   16 ar 
    12   10   11 1  
    13   10   12 ar 
    14   12   13 1  
    15   12   14 ar 
    16   14   15 ar 
    17   15   16 ar 
    18   16   17 1  
    19   17   18 1  
    20   18   19 1  
    21   18   21 2  
    22   19   20 3  
    23   21   22 1  
    24    1   23 1  
    25    1   24 1  
    26    1   25 1  
    27    2   26 1  
    28    2   27 1  
    29    8   28 1  
    30    8   29 1  
    31    8   30 1  
    32   14   31 1  
    33   15   32 1  
    34   21   33 1  
    35   22   34 1  
    36   22   35 1  
@<TRIPOS>SUBSTRUCTURE
     1 V25         1

