### 
### Created by X-TOOL on Mon Sep 10 21:13:01 2018
### 

@<TRIPOS>MOLECULE
2wuf_ligand
   48    49     1     0     0
SMALL
GAST_HUCK


@<TRIPOS>ATOM
      1 C01         9.8520  -39.5360    9.4710 C.3       1 KEM        -0.0329
      2 C02        10.0020  -40.8720   10.2100 C.3       1 KEM         0.0674
      3 C03         9.3170  -40.9380   11.5830 C.2       1 KEM        -0.0386
      4 C04         9.3580  -39.8410   12.3420 C.2       1 KEM        -0.0063
      5 C05         8.8290  -39.7800   13.7770 C.2       1 KEM         0.1706
      6 O06         8.7710  -40.7940   14.3670 O.2       1 KEM        -0.3644
      7 C07         8.4360  -38.4380   14.4350 C.2       1 KEM         0.1184
      8 O08         8.1160  -37.2910   13.7200 O.co2     1 KEM        -0.5478
      9 O09         8.8250  -38.1850   15.5080 O.co2     1 KEM        -0.5478
     10 C10        11.4110  -41.4270   10.1720 C.2       1 KEM         0.1239
     11 O11        11.7950  -41.8220   11.1990 O.2       1 KEM        -0.3868
     12 C12        12.3530  -40.8410    9.0590 C.3       1 KEM         0.0265
     13 C13        11.8860  -40.7930    7.5550 C.3       1 KEM        -0.0181
     14 C14        13.1880  -40.7600    6.6710 C.3       1 KEM         0.0370
     15 C15        13.1780  -40.5560    5.0860 C.3       1 KEM        -0.0098
     16 C16        13.6170  -39.1350    4.6850 C.3       1 KEM        -0.0330
     17 C17        14.2080  -39.2170    3.2680 C.3       1 KEM         0.0231
     18 C18        14.8770  -40.5890    3.1900 C.2       1 KEM         0.1331
     19 O19        15.3420  -41.0980    2.2260 O.2       1 KEM        -0.3322
     20 C20        14.2690  -41.4080    4.3180 C.3       1 KEM         0.0391
     21 C21        13.7930  -42.7620    3.7230 C.3       1 KEM        -0.0542
     22 C22        15.3830  -41.8210    5.2510 C.3       1 KEM        -0.0265
     23 C23        14.6720  -42.8430    6.1110 C.3       1 KEM         0.0208
     24 C24        13.8430  -42.0530    7.0810 C.2       1 KEM         0.1081
     25 O25        13.5430  -42.5400    8.0880 O.2       1 KEM        -0.3913
     26 H1          8.8087  -39.1943    9.5394 H         1 KEM         0.0287
     27 H2         10.1257  -39.6689    8.4139 H         1 KEM         0.0287
     28 H3         10.5140  -38.7868    9.9298 H         1 KEM         0.0287
     29 H4          9.4227  -41.5788    9.5978 H         1 KEM         0.0747
     30 H5          8.8177  -41.8439   11.9237 H         1 KEM         0.0883
     31 H6          9.7926  -38.9378   11.9161 H         1 KEM         0.0482
     32 H7         13.2766  -41.4379    9.0825 H         1 KEM         0.0498
     33 H8         12.5785  -39.8048    9.3514 H         1 KEM         0.0498
     34 H9         11.2839  -39.8903    7.3748 H         1 KEM         0.0318
     35 H10        11.2893  -41.6856    7.3158 H         1 KEM         0.0318
     36 H11        13.7952  -39.9233    7.0468 H         1 KEM         0.0532
     37 H12        12.1692  -40.7830    4.7108 H         1 KEM         0.0319
     38 H13        14.3773  -38.7642    5.3882 H         1 KEM         0.0292
     39 H14        12.7500  -38.4580    4.6918 H         1 KEM         0.0292
     40 H15        14.9478  -38.4180    3.1120 H         1 KEM         0.0487
     41 H16        13.4125  -39.1326    2.5130 H         1 KEM         0.0487
     42 H17        14.6355  -43.2569    3.2178 H         1 KEM         0.0219
     43 H18        12.9861  -42.5804    2.9978 H         1 KEM         0.0219
     44 H19        13.4204  -43.4074    4.5321 H         1 KEM         0.0219
     45 H20        15.7457  -40.9717    5.8487 H         1 KEM         0.0280
     46 H21        16.2245  -42.2693    4.7025 H         1 KEM         0.0280
     47 H22        15.4019  -43.4657    6.6490 H         1 KEM         0.0492
     48 H23        14.0288  -43.4848    5.4910 H         1 KEM         0.0492
@<TRIPOS>BOND
     1    1    2 1  
     2    2    3 1  
     3    2   10 1  
     4    3    4 2  
     5    4    5 1  
     6    5    6 2  
     7    5    7 1  
     8    7    8 ar 
     9    7    9 ar 
    10   10   11 2  
    11   10   12 1  
    12   12   13 1  
    13   13   14 1  
    14   14   15 1  
    15   14   24 1  
    16   15   16 1  
    17   15   20 1  
    18   16   17 1  
    19   17   18 1  
    20   18   19 2  
    21   18   20 1  
    22   20   21 1  
    23   20   22 1  
    24   22   23 1  
    25   23   24 1  
    26   24   25 2  
    27    1   26 1  
    28    1   27 1  
    29    1   28 1  
    30    2   29 1  
    31    3   30 1  
    32    4   31 1  
    33   12   32 1  
    34   12   33 1  
    35   13   34 1  
    36   13   35 1  
    37   14   36 1  
    38   15   37 1  
    39   16   38 1  
    40   16   39 1  
    41   17   40 1  
    42   17   41 1  
    43   21   42 1  
    44   21   43 1  
    45   21   44 1  
    46   22   45 1  
    47   22   46 1  
    48   23   47 1  
    49   23   48 1  
@<TRIPOS>SUBSTRUCTURE
     1 KEM         1

