### 
### Created by X-TOOL on Mon Sep 10 21:13:04 2018
### 

@<TRIPOS>MOLECULE
2wvt_ligand
   29    29     1     0     0
SMALL
GAST_HUCK


@<TRIPOS>ATOM
      1 O2        -27.7290    0.9920   29.3090 O.3       1 FHN        -0.3835
      2 C2        -27.0330    2.1630   28.8140 C.3       1 FHN         0.1280
      3 C3        -25.6630    1.7410   28.2990 C.3       1 FHN         0.1175
      4 O3        -24.9660    1.1290   29.3780 O.3       1 FHN        -0.3862
      5 C4        -24.9190    2.9610   27.8180 C.3       1 FHN         0.1280
      6 O4        -24.7170    3.8990   28.8960 O.3       1 FHN        -0.3835
      7 C5        -25.7370    3.6090   26.7150 C.3       1 FHN         0.0304
      8 C7        -25.0640    4.9000   26.2620 C.3       1 FHN         0.0893
      9 O7        -25.8680    5.4510   25.2360 O.3       1 FHN        -0.3894
     10 N         -27.1200    3.9780   27.1270 N.4       1 FHN         0.2384
     11 C1        -27.8450    2.8270   27.7290 C.3       1 FHN         0.0304
     12 C6        -28.2960    1.8110   26.6530 C.3       1 FHN         0.0893
     13 O6        -29.0250    2.5480   25.6680 O.3       1 FHN        -0.3894
     14 H1        -27.2266    0.6009   30.0141 H         1 FHN         0.2102
     15 H2        -26.8982    2.8776   29.6393 H         1 FHN         0.0678
     16 H3        -25.7733    1.0256   27.4708 H         1 FHN         0.0649
     17 H4        -24.1054    0.8555   29.0831 H         1 FHN         0.2100
     18 H5        -23.9397    2.6571   27.4197 H         1 FHN         0.0678
     19 H6        -24.2113    3.4840   29.5848 H         1 FHN         0.2102
     20 H7        -25.7936    2.9053   25.8714 H         1 FHN         0.0900
     21 H8        -24.0562    4.6852   25.8771 H         1 FHN         0.0614
     22 H9        -24.9925    5.6039   27.1043 H         1 FHN         0.0614
     23 H10       -25.4767    6.2603   24.9287 H         1 FHN         0.2097
     24 H11       -27.6280    4.2950   26.3161 H         1 FHN         0.2023
     25 H12       -27.0705    4.7224   27.8048 H         1 FHN         0.2023
     26 H13       -28.7546    3.2264   28.2013 H         1 FHN         0.0900
     27 H14       -28.9405    1.0424   27.1045 H         1 FHN         0.0614
     28 H15       -27.4190    1.3309   26.1943 H         1 FHN         0.0614
     29 H16       -28.4611    3.2124   25.2897 H         1 FHN         0.2097
@<TRIPOS>BOND
     1    1    2 1  
     2    2    3 1  
     3    2   11 1  
     4    3    4 1  
     5    3    5 1  
     6    5    6 1  
     7    5    7 1  
     8    7    8 1  
     9    7   10 1  
    10    8    9 1  
    11   10   11 1  
    12   11   12 1  
    13   12   13 1  
    14    1   14 1  
    15    2   15 1  
    16    3   16 1  
    17    4   17 1  
    18    5   18 1  
    19    6   19 1  
    20    7   20 1  
    21    8   21 1  
    22    8   22 1  
    23    9   23 1  
    24   10   24 1  
    25   10   25 1  
    26   11   26 1  
    27   12   27 1  
    28   12   28 1  
    29   13   29 1  
@<TRIPOS>SUBSTRUCTURE
     1 FHN         1

