### 
### Created by X-TOOL on Mon Sep 10 21:13:01 2018
### 

@<TRIPOS>MOLECULE
2wvz_ligand
   28    29     1     0     0
SMALL
GAST_HUCK


@<TRIPOS>ATOM
      1 C4        -15.1620  -21.7940   47.1850 C.3       1 KIF         0.1090
      2 O4        -16.3110  -22.4880   47.6020 O.3       1 KIF        -0.3868
      3 C3        -15.3790  -20.2730   47.4290 C.3       1 KIF         0.1133
      4 O3        -16.0680  -19.6680   46.3000 O.3       1 KIF        -0.3864
      5 C2        -14.0380  -19.5430   47.7070 C.3       1 KIF         0.1280
      6 O2        -14.1070  -18.1820   47.2900 O.3       1 KIF        -0.3847
      7 C1        -12.8710  -20.2760   47.0480 C.3       1 KIF         0.1599
      8 N9        -11.5840  -19.5460   47.3080 N.am      1 KIF        -0.2491
      9 C8        -10.9190  -20.2010   48.2880 C.2       1 KIF         0.2867
     10 O8         -9.8290  -19.8920   48.7910 O.2       1 KIF        -0.3583
     11 C7        -11.6400  -21.3410   48.6720 C.2       1 KIF         0.2894
     12 O7        -11.2800  -22.1100   49.5610 O.2       1 KIF        -0.3581
     13 N         -12.8050  -21.4790   47.8830 N.am      1 KIF        -0.2273
     14 C5        -13.9650  -22.3840   47.9640 C.3       1 KIF         0.0996
     15 C6        -13.6040  -23.7940   47.5100 C.3       1 KIF         0.0701
     16 O6        -13.1980  -23.6940   46.1550 O.3       1 KIF        -0.3926
     17 H1        -14.9990  -21.9551   46.1091 H         1 KIF         0.0644
     18 H2        -17.0608  -22.1852   47.1035 H         1 KIF         0.2100
     19 H3        -16.0161  -20.1603   48.3186 H         1 KIF         0.0647
     20 H4        -16.9134  -20.0860   46.1854 H         1 KIF         0.2100
     21 H5        -13.8677  -19.5521   48.7937 H         1 KIF         0.0665
     22 H6        -13.2775  -17.7547   47.4689 H         1 KIF         0.2101
     23 H7        -13.0308  -20.4743   45.9779 H         1 KIF         0.0861
     24 H8        -11.2728  -18.7197   46.8385 H         1 KIF         0.1890
     25 H9        -14.2622  -22.4501   49.0210 H         1 KIF         0.0610
     26 H10       -14.4786  -24.4556   47.5959 H         1 KIF         0.0581
     27 H11       -12.7821  -24.1912   48.1237 H         1 KIF         0.0581
     28 H12       -13.9128  -23.3439   45.6364 H         1 KIF         0.2095
@<TRIPOS>BOND
     1    1    2 1  
     2    1    3 1  
     3    1   14 1  
     4    3    4 1  
     5    3    5 1  
     6    5    6 1  
     7    5    7 1  
     8    7    8 1  
     9    7   13 1  
    10    8    9 am 
    11    9   10 2  
    12    9   11 1  
    13   11   12 2  
    14   11   13 am 
    15   13   14 1  
    16   14   15 1  
    17   15   16 1  
    18    1   17 1  
    19    2   18 1  
    20    3   19 1  
    21    4   20 1  
    22    5   21 1  
    23    6   22 1  
    24    7   23 1  
    25    8   24 1  
    26   14   25 1  
    27   15   26 1  
    28   15   27 1  
    29   16   28 1  
@<TRIPOS>SUBSTRUCTURE
     1 KIF         1

