### 
### Created by X-TOOL on Mon Sep 10 21:13:00 2018
### 

@<TRIPOS>MOLECULE
2ww0_ligand
   28    29     1     0     0
SMALL
GAST_HUCK


@<TRIPOS>ATOM
      1 C1         45.4520   21.7970  101.7070 C.3       1 SWA         0.1004
      2 O1         46.2560   21.0420  102.5920 O.3       1 SWA        -0.3861
      3 C3         46.3180   22.8660  101.0210 C.3       1 SWA         0.0348
      4 N4         45.6960   23.4080   99.7660 N.4       1 SWA         0.2430
      5 C5         44.8190   22.5630   98.9280 C.3       1 SWA        -0.0313
      6 C6         43.9610   21.6330   99.7790 C.3       1 SWA        -0.0100
      7 C2         44.8410   20.8380  100.7140 C.3       1 SWA        -0.0167
      8 C9         45.1090   24.6990  100.1320 C.3       1 SWA        -0.0021
      9 C8         46.2820   25.2570  100.9330 C.3       1 SWA         0.1259
     10 O13        45.8820   26.4490  101.6080 O.3       1 SWA        -0.3837
     11 C7         46.4970   24.1120  101.9220 C.3       1 SWA         0.1307
     12 O11        45.4540   24.1320  102.9010 O.3       1 SWA        -0.3833
     13 H1         44.6488   22.2965  102.2685 H         1 SWA         0.0651
     14 H2         46.6300   21.6183  103.2481 H         1 SWA         0.2100
     15 H3         47.2977   22.4225  100.7897 H         1 SWA         0.0904
     16 H4         46.4737   23.6128   99.1583 H         1 SWA         0.2039
     17 H5         45.4433   21.9572   98.2548 H         1 SWA         0.0814
     18 H6         44.1602   23.2119   98.3323 H         1 SWA         0.0814
     19 H7         43.4085   20.9439   99.1233 H         1 SWA         0.0318
     20 H8         43.2485   22.2298  100.3673 H         1 SWA         0.0318
     21 H9         44.2388   20.0853  101.2438 H         1 SWA         0.0294
     22 H10        45.6354   20.3359  100.1424 H         1 SWA         0.0294
     23 H11        44.2039   24.5843  100.7465 H         1 SWA         0.0841
     24 H12        44.8780   25.3149   99.2504 H         1 SWA         0.0841
     25 H13        47.1692   25.4460  100.3108 H         1 SWA         0.0675
     26 H14        45.6014   27.0942  100.9696 H         1 SWA         0.2101
     27 H15        47.4878   24.1486  102.3984 H         1 SWA         0.0679
     28 H16        45.5857   23.4208  103.5170 H         1 SWA         0.2102
@<TRIPOS>BOND
     1    1    2 1  
     2    1    3 1  
     3    1    7 1  
     4    3    4 1  
     5    3   11 1  
     6    4    5 1  
     7    4    8 1  
     8    5    6 1  
     9    6    7 1  
    10    8    9 1  
    11    9   10 1  
    12    9   11 1  
    13   11   12 1  
    14    1   13 1  
    15    2   14 1  
    16    3   15 1  
    17    4   16 1  
    18    5   17 1  
    19    5   18 1  
    20    6   19 1  
    21    6   20 1  
    22    7   21 1  
    23    7   22 1  
    24    8   23 1  
    25    8   24 1  
    26    9   25 1  
    27   10   26 1  
    28   11   27 1  
    29   12   28 1  
@<TRIPOS>SUBSTRUCTURE
     1 SWA         1

