### 
### Created by X-TOOL on Mon Sep 10 21:12:59 2018
### 

@<TRIPOS>MOLECULE
2ww2_ligand
   28    29     1     0     0
SMALL
GAST_HUCK


@<TRIPOS>ATOM
      1 C1        -25.3520  -30.6910   88.4460 C.3       1 SWA         0.1004
      2 O1        -25.7860  -31.8930   87.7980 O.3       1 SWA        -0.3861
      3 C3        -26.1290  -29.5160   87.8660 C.3       1 SWA         0.0348
      4 N4        -25.7080  -28.2800   88.5330 N.4       1 SWA         0.2430
      5 C5        -26.1110  -28.3050   89.9520 C.3       1 SWA        -0.0313
      6 C6        -25.3210  -29.4160   90.6620 C.3       1 SWA        -0.0100
      7 C2        -25.5510  -30.7750   89.9740 C.3       1 SWA        -0.0167
      8 C9        -26.3940  -27.2500   87.7290 C.3       1 SWA        -0.0021
      9 C8        -26.2730  -27.7790   86.2790 C.3       1 SWA         0.1259
     10 O13       -25.3690  -26.9640   85.5080 O.3       1 SWA        -0.3837
     11 C7        -25.7280  -29.2110   86.4290 C.3       1 SWA         0.1307
     12 O11       -24.2960  -29.2270   86.3090 O.3       1 SWA        -0.3833
     13 H1        -24.2808  -30.5455   88.2427 H         1 SWA         0.0651
     14 H2        -25.6213  -31.8255   86.8648 H         1 SWA         0.2100
     15 H3        -27.2103  -29.6954   87.9586 H         1 SWA         0.0904
     16 H4        -24.7087  -28.1588   88.4808 H         1 SWA         0.2039
     17 H5        -27.1892  -28.5092   90.0283 H         1 SWA         0.0814
     18 H6        -25.8877  -27.3343   90.4187 H         1 SWA         0.0814
     19 H7        -25.6518  -29.4812   91.7091 H         1 SWA         0.0318
     20 H8        -24.2487  -29.1727   90.6306 H         1 SWA         0.0318
     21 H9        -24.8392  -31.5060   90.3851 H         1 SWA         0.0294
     22 H10       -26.5789  -31.1079   90.1804 H         1 SWA         0.0294
     23 H11       -25.8968  -26.2744   87.8338 H         1 SWA         0.0841
     24 H12       -27.4490  -27.1577   88.0265 H         1 SWA         0.0841
     25 H13       -27.2582  -27.7910   85.7899 H         1 SWA         0.0675
     26 H14       -24.5091  -26.9782   85.9116 H         1 SWA         0.2101
     27 H15       -26.1820  -29.9075   85.7087 H         1 SWA         0.0679
     28 H16       -23.9164  -28.6815   86.9878 H         1 SWA         0.2102
@<TRIPOS>BOND
     1    1    2 1  
     2    1    3 1  
     3    1    7 1  
     4    3    4 1  
     5    3   11 1  
     6    4    5 1  
     7    4    8 1  
     8    5    6 1  
     9    6    7 1  
    10    8    9 1  
    11    9   10 1  
    12    9   11 1  
    13   11   12 1  
    14    1   13 1  
    15    2   14 1  
    16    3   15 1  
    17    4   16 1  
    18    5   17 1  
    19    5   18 1  
    20    6   19 1  
    21    6   20 1  
    22    7   21 1  
    23    7   22 1  
    24    8   23 1  
    25    8   24 1  
    26    9   25 1  
    27   10   26 1  
    28   11   27 1  
    29   12   28 1  
@<TRIPOS>SUBSTRUCTURE
     1 SWA         1

