### 
### Created by X-TOOL on Mon Sep 10 21:13:02 2018
### 

@<TRIPOS>MOLECULE
2wwj_ligand
   40    41     1     0     0
SMALL
GAST_HUCK


@<TRIPOS>ATOM
      1 CAD       -19.7810  -18.4080  -18.9070 C.ar      1 Y28        -0.0578
      2 CAF       -19.7600  -17.0120  -18.7460 C.ar      1 Y28        -0.0685
      3 CAH       -20.5210  -16.3680  -17.7610 C.ar      1 Y28        -0.0687
      4 CAG       -21.3320  -17.1330  -16.9250 C.ar      1 Y28        -0.0685
      5 CAE       -21.3590  -18.5310  -17.0890 C.ar      1 Y28        -0.0578
      6 CAB       -20.5840  -19.1790  -18.0700 C.ar      1 Y28        -0.0131
      7 CAC       -20.6340  -20.5740  -18.2190 C.3       1 Y28         0.1028
      8 OH        -21.9460  -21.2140  -18.1430 O.3       1 Y28        -0.3099
      9 CZ        -22.7590  -20.9480  -19.2460 C.ar      1 Y28         0.0868
     10 CE2       -22.2180  -20.6430  -20.4970 C.ar      1 Y28        -0.0393
     11 CD2       -23.0580  -20.3930  -21.5970 C.ar      1 Y28        -0.0686
     12 CE1       -24.1600  -20.9890  -19.1520 C.ar      1 Y28        -0.0393
     13 CD1       -25.0040  -20.7490  -20.2520 C.ar      1 Y28        -0.0686
     14 CG        -24.4550  -20.4460  -21.5000 C.ar      1 Y28        -0.0499
     15 CB        -25.3590  -20.1970  -22.7460 C.3       1 Y28         0.0110
     16 CA        -25.6550  -21.5450  -23.5030 C.3       1 Y28         0.1033
     17 C         -24.6600  -21.8030  -24.6230 C.2       1 Y28         0.0621
     18 OXT       -23.4800  -22.0650  -24.2950 O.co2     1 Y28        -0.5664
     19 O         -25.1090  -21.7860  -25.7900 O.co2     1 Y28        -0.5664
     20 N         -26.9730  -21.4360  -24.0960 N.am      1 Y28        -0.2616
     21 CAR       -28.0400  -21.4240  -23.3140 C.2       1 Y28         0.2455
     22 OAW       -27.9430  -21.5990  -22.0980 O.2       1 Y28        -0.3655
     23 CAS       -29.4420  -21.1610  -23.9150 C.2       1 Y28         0.1433
     24 OAY       -29.5660  -21.0060  -25.1690 O.co2     1 Y28        -0.5457
     25 OAX       -30.3870  -21.1120  -23.0800 O.co2     1 Y28        -0.5457
     26 H         -19.1751  -18.8824  -19.6790 H         1 Y28         0.0557
     27 H         -19.1335  -16.4126  -19.4066 H         1 Y28         0.0599
     28 H         -20.4791  -15.2844  -17.6504 H         1 Y28         0.0559
     29 H         -21.9373  -16.6555  -16.1545 H         1 Y28         0.0599
     30 H         -21.9977  -19.1285  -16.4384 H         1 Y28         0.0557
     31 H         -20.0612  -20.9790  -17.3848 H         1 Y28         0.0776
     32 H         -20.2673  -20.7750  -19.2256 H         1 Y28         0.0776
     33 H         -21.1361  -20.5984  -20.6218 H         1 Y28         0.0525
     34 H         -22.6065  -20.1495  -22.5588 H         1 Y28         0.0530
     35 H         -24.6122  -21.2162  -18.1866 H         1 Y28         0.0525
     36 H         -26.0860  -20.7995  -20.1302 H         1 Y28         0.0530
     37 H         -24.8412  -19.5198  -23.4252 H         1 Y28         0.0446
     38 H         -26.3037  -19.7668  -22.4135 H         1 Y28         0.0446
     39 H         -25.5832  -22.3644  -22.7878 H         1 Y28         0.0749
     40 H         -27.0771  -21.3691  -25.1085 H         1 Y28         0.1890
@<TRIPOS>BOND
     1    1    2 ar 
     2    1    6 ar 
     3    2    3 ar 
     4    3    4 ar 
     5    4    5 ar 
     6    5    6 ar 
     7    6    7 1  
     8    7    8 1  
     9    8    9 1  
    10    9   10 ar 
    11    9   12 ar 
    12   10   11 ar 
    13   11   14 ar 
    14   12   13 ar 
    15   13   14 ar 
    16   14   15 1  
    17   15   16 1  
    18   16   17 1  
    19   16   20 1  
    20   17   18 ar 
    21   17   19 ar 
    22   20   21 am 
    23   21   22 2  
    24   21   23 1  
    25   23   24 ar 
    26   23   25 ar 
    27    1   26 1  
    28    2   27 1  
    29    3   28 1  
    30    4   29 1  
    31    5   30 1  
    32    7   31 1  
    33    7   32 1  
    34   10   33 1  
    35   11   34 1  
    36   12   35 1  
    37   13   36 1  
    38   15   37 1  
    39   15   38 1  
    40   16   39 1  
    41   20   40 1  
@<TRIPOS>SUBSTRUCTURE
     1 Y28         1

