### 
### Created by X-TOOL on Mon Sep 10 21:13:02 2018
### 

@<TRIPOS>MOLECULE
2wxd_ligand
   38    38     1     0     0
SMALL
GAST_HUCK


@<TRIPOS>ATOM
      1 O20        48.4250  115.6210   46.7350 O.co2     1 E18        -0.4573
      2 S19        47.9040  116.9280   46.7210 S.o2      1 E18        -0.0416
      3 O21        46.5110  116.9750   46.1670 O.co2     1 E18        -0.4573
      4 O22        48.7180  117.9040   45.9910 O.co2     1 E18        -0.4573
      5 O18        47.7430  117.6640   48.1600 O.3       1 E18        -0.1455
      6 N17        46.8930  118.7250   48.2070 N.2       1 E18        -0.1636
      7 C13        47.0640  119.6010   49.1030 C.2       1 E18         0.0964
      8 S1         48.3910  119.3700   50.1930 S.3       1 E18        -0.0755
      9 C1         48.2930  119.8600   51.9440 C.3       1 E18         0.0500
     10 C2         47.7810  121.2840   52.1280 C.3       1 E18        -0.0208
     11 N18        48.4010  122.2200   53.1180 N.4       1 E18         0.2316
     12 C20        48.3140  121.7680   54.5400 C.3       1 E18        -0.0433
     13 C19        47.6230  123.4760   53.0240 C.3       1 E18        -0.0433
     14 CB         46.0100  120.7230   48.9760 C.3       1 E18         0.0383
     15 CG         46.5720  121.9730   48.3900 C.ar      1 E18        -0.0285
     16 CD2        46.4560  123.2070   49.0010 C.ar      1 E18        -0.0580
     17 CE2        47.1160  124.3010   48.5570 C.ar      1 E18        -0.0682
     18 CZ         47.9140  124.1810   47.4230 C.ar      1 E18        -0.0685
     19 CE1        48.0620  122.9620   46.8280 C.ar      1 E18        -0.0682
     20 CD1        47.4340  121.8210   47.3120 C.ar      1 E18        -0.0580
     21 H1         49.2973  119.7871   52.3867 H         1 E18         0.0458
     22 H2         47.6118  119.1710   52.4648 H         1 E18         0.0458
     23 H3         46.7201  121.1981   52.4057 H         1 E18         0.0824
     24 H4         47.8646  121.7724   51.1459 H         1 E18         0.0824
     25 H5         49.3674  122.3730   52.8759 H         1 E18         0.2028
     26 H6         48.7927  122.5138   55.1917 H         1 E18         0.0777
     27 H7         48.8278  120.8016   54.6497 H         1 E18         0.0777
     28 H8         47.2575  121.6561   54.8252 H         1 E18         0.0777
     29 H9         47.6562  123.8514   51.9906 H         1 E18         0.0777
     30 H10        48.0560  124.2271   53.7010 H         1 E18         0.0777
     31 H11        46.5787  123.2828   53.3105 H         1 E18         0.0777
     32 H12        45.6145  120.9499   49.9770 H         1 E18         0.0624
     33 H13        45.1930  120.3677   48.3308 H         1 E18         0.0624
     34 H14        45.8124  123.3018   49.8681 H         1 E18         0.0561
     35 H15        47.0254  125.2501   49.0729 H         1 E18         0.0600
     36 H16        48.4152  125.0512   47.0147 H         1 E18         0.0561
     37 H17        48.6904  122.8811   45.9485 H         1 E18         0.0600
     38 H18        47.6102  120.8492   46.8651 H         1 E18         0.0561
@<TRIPOS>BOND
     1    1    2 ar 
     2    2    3 ar 
     3    2    4 ar 
     4    2    5 1  
     5    5    6 1  
     6    6    7 2  
     7    7    8 1  
     8    7   14 1  
     9    8    9 1  
    10    9   10 1  
    11   10   11 1  
    12   11   12 1  
    13   11   13 1  
    14   14   15 1  
    15   15   16 ar 
    16   15   20 ar 
    17   16   17 ar 
    18   17   18 ar 
    19   18   19 ar 
    20   19   20 ar 
    21    9   21 1  
    22    9   22 1  
    23   10   23 1  
    24   10   24 1  
    25   11   25 1  
    26   12   26 1  
    27   12   27 1  
    28   12   28 1  
    29   13   29 1  
    30   13   30 1  
    31   13   31 1  
    32   14   32 1  
    33   14   33 1  
    34   16   34 1  
    35   17   35 1  
    36   18   36 1  
    37   19   37 1  
    38   20   38 1  
@<TRIPOS>SUBSTRUCTURE
     1 E18         1

