### 
### Created by X-TOOL on Mon Sep 10 21:13:04 2018
### 

@<TRIPOS>MOLECULE
2wxf_ligand
   46    50     1     0     0
SMALL
GAST_HUCK


@<TRIPOS>ATOM
      1 CAU        -2.3240   -2.1270   24.7810 C.3       1 039         0.0573
      2 OAT        -3.3890   -1.8100   23.8370 O.3       1 039        -0.3238
      3 CAP        -4.0460   -2.9650   23.6980 C.ar      1 039         0.1240
      4 CAQ        -3.7200   -4.1220   24.4530 C.ar      1 039        -0.0408
      5 CAR        -4.4650   -5.2750   24.2260 C.ar      1 039        -0.0817
      6 CAJ        -5.4940   -5.3170   23.2680 C.ar      1 039        -0.0815
      7 CAI        -5.7870   -4.1700   22.5440 C.ar      1 039        -0.0375
      8 CAH        -5.0450   -2.9990   22.7830 C.ar      1 039         0.1402
      9 NAG        -5.4260   -1.8730   22.0030 N.am      1 039        -0.1338
     10 CAF        -4.8380   -1.6660   20.7800 C.2       1 039         0.2580
     11 OAB        -3.9150   -2.4190   20.5000 O.2       1 039        -0.3772
     12 CAE        -5.2610   -0.5990   19.9690 C.ar      1 039         0.0779
     13 CAD        -4.6890   -0.2990   18.7210 C.ar      1 039         0.0527
     14 CL         -3.3900   -1.1920   18.0070 Cl        1 039        -0.0673
     15 CAC        -5.1640    0.7740   17.9680 C.ar      1 039        -0.0514
     16 CAK        -6.2100    1.5330   18.4570 C.ar      1 039        -0.0660
     17 CAL        -6.8020    1.2600   19.6930 C.ar      1 039        -0.0536
     18 CAM        -6.3210    0.1860   20.4560 C.ar      1 039         0.0144
     19 NAN        -6.8800   -0.0700   21.6540 N.2       1 039        -0.3025
     20 CAO        -6.4760   -1.0990   22.4200 C.2       1 039         0.1756
     21 CAS        -7.1170   -1.4000   23.7750 C.3       1 039         0.1043
     22 S6         -8.1410    0.0030   24.3990 S.3       1 039        -0.0467
     23 C6         -6.8810    1.0830   25.0350 C.ar      1 039         0.1318
     24 C5         -7.3490    2.2800   25.5610 C.ar      1 039         0.1484
     25 N7         -8.5830    2.7610   25.6980 N.pl3     1 039        -0.2384
     26 C8         -8.4530    3.9680   26.3010 C.2       1 039         0.1132
     27 N9         -7.1760    4.2230   26.5190 N.2       1 039        -0.2819
     28 C4         -6.4530    3.1890   26.0820 C.ar      1 039         0.1098
     29 N3         -5.1270    2.9090   26.0870 N.ar      1 039        -0.2837
     30 C2         -4.6880    1.7640   25.5480 C.ar      1 039         0.0603
     31 N1         -5.5590    0.8560   25.0410 N.ar      1 039        -0.2692
     32 H1         -1.7172   -1.2281   24.9645 H         1 039         0.0574
     33 H2         -1.6871   -2.9202   24.3625 H         1 039         0.0574
     34 H3         -2.7642   -2.4718   25.7282 H         1 039         0.0574
     35 H4         -2.9177   -4.1078   25.1818 H         1 039         0.0508
     36 H5         -4.2463   -6.1658   24.8036 H         1 039         0.0496
     37 H6         -6.0500   -6.2319   23.0978 H         1 039         0.0496
     38 H7         -6.5782   -4.1763   21.8031 H         1 039         0.0515
     39 H8         -4.7174    1.0103   17.0090 H         1 039         0.0560
     40 H9         -6.5813    2.3624   17.8660 H         1 039         0.0626
     41 H10        -7.6212    1.8696   20.0568 H         1 039         0.0557
     42 H11        -6.3199   -1.6067   24.5043 H         1 039         0.0708
     43 H12        -7.7592   -2.2871   23.6723 H         1 039         0.0708
     44 H13        -9.4599    2.3072   25.4048 H         1 039         0.2384
     45 H14        -9.2777    4.6281   26.5658 H         1 039         0.1415
     46 H15        -3.6237    1.5605   25.5166 H         1 039         0.0999
@<TRIPOS>BOND
     1    1    2 1  
     2    2    3 1  
     3    3    4 ar 
     4    3    8 ar 
     5    4    5 ar 
     6    5    6 ar 
     7    6    7 ar 
     8    7    8 ar 
     9    8    9 1  
    10    9   10 am 
    11    9   20 1  
    12   10   11 2  
    13   10   12 1  
    14   12   13 ar 
    15   12   18 ar 
    16   13   14 1  
    17   13   15 ar 
    18   15   16 ar 
    19   16   17 ar 
    20   17   18 ar 
    21   18   19 1  
    22   19   20 2  
    23   20   21 1  
    24   21   22 1  
    25   22   23 1  
    26   23   24 ar 
    27   23   31 ar 
    28   24   25 1  
    29   24   28 ar 
    30   25   26 1  
    31   26   27 2  
    32   27   28 1  
    33   28   29 ar 
    34   29   30 ar 
    35   30   31 ar 
    36    1   32 1  
    37    1   33 1  
    38    1   34 1  
    39    4   35 1  
    40    5   36 1  
    41    6   37 1  
    42    7   38 1  
    43   15   39 1  
    44   16   40 1  
    45   17   41 1  
    46   21   42 1  
    47   21   43 1  
    48   25   44 1  
    49   26   45 1  
    50   30   46 1  
@<TRIPOS>SUBSTRUCTURE
     1 039         1

