### 
### Created by X-TOOL on Mon Sep 10 21:13:03 2018
### 

@<TRIPOS>MOLECULE
2wxg_ligand
   60    65     1     0     0
SMALL
GAST_HUCK


@<TRIPOS>ATOM
      1 CAT         2.8310  -34.0650  -23.9930 C.3       1 ZZN        -0.0324
      2 CAP         3.5990  -35.3540  -23.8360 C.ar      1 ZZN        -0.0127
      3 CAQ         3.2290  -36.4940  -24.6000 C.ar      1 ZZN        -0.0686
      4 CAR         3.9610  -37.6630  -24.4330 C.ar      1 ZZN        -0.0797
      5 CAJ         5.0470  -37.7330  -23.5560 C.ar      1 ZZN        -0.0773
      6 CAI         5.4100  -36.6100  -22.8110 C.ar      1 ZZN        -0.0359
      7 CAH         4.6840  -35.4060  -22.9710 C.ar      1 ZZN         0.1124
      8 NAG         5.1470  -34.3410  -22.1540 N.am      1 ZZN        -0.1334
      9 CAF         4.5900  -34.1750  -20.8630 C.2       1 ZZN         0.2539
     10 OAB         3.6510  -34.8970  -20.5630 O.2       1 ZZN        -0.3803
     11 CAE         5.0650  -33.1690  -20.0020 C.ar      1 ZZN         0.0657
     12 CAD         4.5260  -32.9260  -18.7180 C.ar      1 ZZN        -0.0334
     13 CAA         3.3580  -33.7280  -18.1130 C.3       1 ZZN        -0.0295
     14 CAC         5.0640  -31.8940  -17.9410 C.ar      1 ZZN        -0.0638
     15 CAK         6.1220  -31.1290  -18.4040 C.ar      1 ZZN        -0.0732
     16 CAL         6.6700  -31.3660  -19.6740 C.ar      1 ZZN        -0.0606
     17 CAM         6.1250  -32.3760  -20.4780 C.ar      1 ZZN         0.0080
     18 NAN         6.6610  -32.5940  -21.7140 N.2       1 ZZN        -0.3022
     19 CAO         6.2220  -33.5570  -22.5450 C.2       1 ZZN         0.1955
     20 CAS         6.8590  -33.7510  -23.9670 C.3       1 ZZN         0.1627
     21 NAV         7.3730  -32.4100  -24.3350 N.pl3     1 ZZN        -0.1592
     22 NAU         8.5080  -32.0010  -24.0190 N.2       1 ZZN        -0.1888
     23 C6          6.6760  -31.5020  -24.9840 C.ar      1 ZZN         0.1672
     24 N1          5.4140  -31.5210  -25.4680 N.ar      1 ZZN        -0.2672
     25 C2          4.9410  -30.4420  -26.0760 C.ar      1 ZZN         0.0566
     26 N3          5.7090  -29.3440  -26.2030 N.ar      1 ZZN        -0.2655
     27 C4          6.9540  -29.2530  -25.7460 C.ar      1 ZZN         0.1276
     28 NBK         7.6090  -28.0940  -25.9390 N.pl3     1 ZZN        -0.3125
     29 C5          7.4950  -30.3710  -25.0810 C.ar      1 ZZN         0.0877
     30 CBD         8.6940  -30.7500  -24.4410 C.2       1 ZZN         0.0703
     31 CBC         9.9110  -30.0870  -24.1810 C.ar      1 ZZN        -0.0184
     32 CBB        10.7490  -29.4970  -25.1180 C.ar      1 ZZN        -0.0303
     33 CBJ        10.3450  -30.1110  -22.8350 C.ar      1 ZZN        -0.0317
     34 CBI        11.5560  -29.5270  -22.4490 C.ar      1 ZZN         0.1242
     35 F          11.9560  -29.5350  -21.1680 F         1 ZZN        -0.1865
     36 CBH        12.3820  -28.9170  -23.3940 C.ar      1 ZZN        -0.0005
     37 CBA        11.9550  -28.8900  -24.7140 C.ar      1 ZZN         0.0856
     38 OAZ        12.7760  -28.3020  -25.6170 O.3       1 ZZN        -0.3344
     39 H1          2.0124  -34.2113  -24.7131 H         1 ZZN         0.0371
     40 H2          3.5063  -33.2782  -24.3605 H         1 ZZN         0.0371
     41 H3          2.4143  -33.7656  -23.0200 H         1 ZZN         0.0371
     42 H4          2.3978  -36.4525  -25.2945 H         1 ZZN         0.0525
     43 H5          3.6822  -38.5449  -24.9983 H         1 ZZN         0.0505
     44 H6          5.6055  -38.6565  -23.4548 H         1 ZZN         0.0531
     45 H7          6.2405  -36.6597  -22.1161 H         1 ZZN         0.0527
     46 H8          3.1305  -33.3429  -17.1080 H         1 ZZN         0.0403
     47 H9          3.6388  -34.7893  -18.0440 H         1 ZZN         0.0403
     48 H10         2.4707  -33.6244  -18.7548 H         1 ZZN         0.0403
     49 H11         4.6464  -31.6900  -16.9617 H         1 ZZN         0.0493
     50 H12         6.5297  -30.3414  -17.7806 H         1 ZZN         0.0609
     51 H13         7.5058  -30.7742  -20.0292 H         1 ZZN         0.0498
     52 H14         6.1006  -34.0873  -24.6893 H         1 ZZN         0.0932
     53 H15         7.6788  -34.4834  -23.9283 H         1 ZZN         0.0932
     54 H16         3.9320  -30.4441  -26.4723 H         1 ZZN         0.1030
     55 H17         8.5752  -27.9857  -25.5990 H         1 ZZN         0.1842
     56 H18         7.1443  -27.3149  -26.4268 H         1 ZZN         0.1842
     57 H19        10.4739  -29.5034  -26.1665 H         1 ZZN         0.0505
     58 H20         9.7259  -30.5923  -22.0866 H         1 ZZN         0.0513
     59 H21        13.3297  -28.4770  -23.1053 H         1 ZZN         0.0526
     60 H22        12.3791  -28.3447  -26.4791 H         1 ZZN         0.2478
@<TRIPOS>BOND
     1    1    2 1  
     2    2    3 ar 
     3    2    7 ar 
     4    3    4 ar 
     5    4    5 ar 
     6    5    6 ar 
     7    6    7 ar 
     8    7    8 1  
     9    8    9 am 
    10    8   19 1  
    11    9   10 2  
    12    9   11 1  
    13   11   12 ar 
    14   11   17 ar 
    15   12   13 1  
    16   12   14 ar 
    17   14   15 ar 
    18   15   16 ar 
    19   16   17 ar 
    20   17   18 1  
    21   18   19 2  
    22   19   20 1  
    23   20   21 1  
    24   21   22 1  
    25   21   23 1  
    26   22   30 2  
    27   23   24 ar 
    28   23   29 ar 
    29   24   25 ar 
    30   25   26 ar 
    31   26   27 ar 
    32   27   28 1  
    33   27   29 ar 
    34   29   30 1  
    35   30   31 1  
    36   31   32 ar 
    37   31   33 ar 
    38   32   37 ar 
    39   33   34 ar 
    40   34   35 1  
    41   34   36 ar 
    42   36   37 ar 
    43   37   38 1  
    44    1   39 1  
    45    1   40 1  
    46    1   41 1  
    47    3   42 1  
    48    4   43 1  
    49    5   44 1  
    50    6   45 1  
    51   13   46 1  
    52   13   47 1  
    53   13   48 1  
    54   14   49 1  
    55   15   50 1  
    56   16   51 1  
    57   20   52 1  
    58   20   53 1  
    59   25   54 1  
    60   28   55 1  
    61   28   56 1  
    62   32   57 1  
    63   33   58 1  
    64   36   59 1  
    65   38   60 1  
@<TRIPOS>SUBSTRUCTURE
     1 ZZN         1

