### 
### Created by X-TOOL on Mon Sep 10 21:13:04 2018
### 

@<TRIPOS>MOLECULE
2wxh_ligand
   60    65     1     0     0
SMALL
GAST_HUCK


@<TRIPOS>ATOM
      1 CAT        -3.3030  -33.6830   23.9610 C.3       1 ZZO        -0.0324
      2 CAL        -4.0530  -34.9750   23.8390 C.ar      1 ZZO        -0.0127
      3 CAM        -3.6970  -36.0840   24.6400 C.ar      1 ZZO        -0.0686
      4 CAE        -4.4230  -37.2630   24.5140 C.ar      1 ZZO        -0.0797
      5 CAD        -5.4900  -37.3720   23.6190 C.ar      1 ZZO        -0.0773
      6 CAC        -5.8460  -36.2650   22.8470 C.ar      1 ZZO        -0.0359
      7 CAK        -5.1050  -35.0700   22.9700 C.ar      1 ZZO         0.1124
      8 NAJ        -5.5130  -33.9960   22.1490 N.am      1 ZZO        -0.1334
      9 CAI        -4.9440  -33.8550   20.8740 C.2       1 ZZO         0.2539
     10 OAB        -4.0310  -34.6410   20.5680 O.2       1 ZZO        -0.3803
     11 CAH        -5.3750  -32.7980   20.0500 C.ar      1 ZZO         0.0657
     12 CAG        -4.8390  -32.5590   18.7580 C.ar      1 ZZO        -0.0334
     13 CAA        -3.7060  -33.4080   18.1300 C.3       1 ZZO        -0.0295
     14 CAF        -5.3320  -31.4910   18.0030 C.ar      1 ZZO        -0.0638
     15 CAN        -6.3610  -30.6940   18.4660 C.ar      1 ZZO        -0.0732
     16 CAO        -6.8990  -30.9400   19.7380 C.ar      1 ZZO        -0.0606
     17 CAP        -6.4110  -31.9800   20.5240 C.ar      1 ZZO         0.0080
     18 NAQ        -6.9690  -32.1690   21.7520 N.2       1 ZZO        -0.3022
     19 CAR        -6.5410  -33.1750   22.5490 C.2       1 ZZO         0.1953
     20 CAS        -7.1760  -33.3710   23.9380 C.3       1 ZZO         0.1618
     21 NAV        -7.6400  -32.0110   24.3330 N.pl3     1 ZZO        -0.1623
     22 NAU        -8.7820  -31.5840   24.0580 N.2       1 ZZO        -0.1955
     23 C6         -6.9020  -31.1290   25.0000 C.ar      1 ZZO         0.1657
     24 N1         -5.6290  -31.1670   25.4610 N.ar      1 ZZO        -0.2676
     25 C2         -5.1170  -30.1030   26.0750 C.ar      1 ZZO         0.0564
     26 N3         -5.9100  -29.0170   26.2390 N.ar      1 ZZO        -0.2657
     27 C4         -7.1450  -28.9130   25.8000 C.ar      1 ZZO         0.1272
     28 NBG        -7.8640  -27.7890   26.0190 N.pl3     1 ZZO        -0.3126
     29 C5         -7.7070  -30.0010   25.1410 C.ar      1 ZZO         0.0857
     30 CAZ        -8.9310  -30.3270   24.5270 C.2       1 ZZO         0.0647
     31 CBE       -10.1560  -29.6760   24.3110 C.ar      1 ZZO        -0.0195
     32 CBD       -10.5920  -29.6240   22.9680 C.ar      1 ZZO        -0.0279
     33 CBH       -11.8340  -29.0500   22.7240 C.ar      1 ZZO         0.1607
     34 F         -12.3530  -28.9310   21.4800 F         1 ZZO        -0.1898
     35 CBI       -12.5900  -28.5530   23.7620 C.ar      1 ZZO         0.1227
     36 OBL       -13.7610  -27.9970   23.4750 O.3       1 ZZO        -0.3317
     37 CBJ       -12.1850  -28.5800   25.0680 C.ar      1 ZZO        -0.0330
     38 CBF       -10.9580  -29.1760   25.3180 C.ar      1 ZZO        -0.0653
     39 H1         -2.4974  -33.7952   24.7016 H         1 ZZO         0.0371
     40 H2         -3.9913  -32.8887   24.2855 H         1 ZZO         0.0371
     41 H3         -2.8698  -33.4170   22.9855 H         1 ZZO         0.0371
     42 H4         -2.8723  -36.0164   25.3403 H         1 ZZO         0.0525
     43 H5         -4.1548  -38.1176   25.1245 H         1 ZZO         0.0505
     44 H6         -6.0346  -38.3046   23.5252 H         1 ZZO         0.0531
     45 H7         -6.6827  -36.3224   22.1602 H         1 ZZO         0.0527
     46 H8         -3.4713  -33.0218   17.1271 H         1 ZZO         0.0403
     47 H9         -4.0327  -34.4555   18.0523 H         1 ZZO         0.0403
     48 H10        -2.8093  -33.3496   18.7644 H         1 ZZO         0.0403
     49 H11        -4.8970  -31.2834   17.0321 H         1 ZZO         0.0493
     50 H12        -6.7482  -29.8878   17.8535 H         1 ZZO         0.0609
     51 H13        -7.7017  -30.3148   20.1120 H         1 ZZO         0.0498
     52 H14        -6.4333  -33.7515   24.6546 H         1 ZZO         0.0930
     53 H15        -8.0237  -34.0698   23.8826 H         1 ZZO         0.0930
     54 H16        -4.0941  -30.1053   26.4338 H         1 ZZO         0.1030
     55 H17        -8.8306  -27.7198   25.6700 H         1 ZZO         0.1842
     56 H18        -7.4451  -27.0020   26.5348 H         1 ZZO         0.1842
     57 H19        -9.9829  -30.0156   22.1613 H         1 ZZO         0.0580
     58 H20       -14.1739  -27.6990   24.2770 H         1 ZZO         0.2477
     59 H21       -12.7894  -28.1590   25.8634 H         1 ZZO         0.0536
     60 H22       -10.6152  -29.2524   26.3435 H         1 ZZO         0.0564
@<TRIPOS>BOND
     1    1    2 1  
     2    2    3 ar 
     3    2    7 ar 
     4    3    4 ar 
     5    4    5 ar 
     6    5    6 ar 
     7    6    7 ar 
     8    7    8 1  
     9    8    9 am 
    10    8   19 1  
    11    9   10 2  
    12    9   11 1  
    13   11   12 ar 
    14   11   17 ar 
    15   12   13 1  
    16   12   14 ar 
    17   14   15 ar 
    18   15   16 ar 
    19   16   17 ar 
    20   17   18 1  
    21   18   19 2  
    22   19   20 1  
    23   20   21 1  
    24   21   22 1  
    25   21   23 1  
    26   22   30 2  
    27   23   24 ar 
    28   23   29 ar 
    29   24   25 ar 
    30   25   26 ar 
    31   26   27 ar 
    32   27   28 1  
    33   27   29 ar 
    34   29   30 1  
    35   30   31 1  
    36   31   32 ar 
    37   31   38 ar 
    38   32   33 ar 
    39   33   34 1  
    40   33   35 ar 
    41   35   36 1  
    42   35   37 ar 
    43   37   38 ar 
    44    1   39 1  
    45    1   40 1  
    46    1   41 1  
    47    3   42 1  
    48    4   43 1  
    49    5   44 1  
    50    6   45 1  
    51   13   46 1  
    52   13   47 1  
    53   13   48 1  
    54   14   49 1  
    55   15   50 1  
    56   16   51 1  
    57   20   52 1  
    58   20   53 1  
    59   25   54 1  
    60   28   55 1  
    61   28   56 1  
    62   32   57 1  
    63   36   58 1  
    64   37   59 1  
    65   38   60 1  
@<TRIPOS>SUBSTRUCTURE
     1 ZZO         1

