### 
### Created by X-TOOL on Mon Sep 10 21:13:03 2018
### 

@<TRIPOS>MOLECULE
2wxi_ligand
   55    59     1     0     0
SMALL
GAST_HUCK


@<TRIPOS>ATOM
      1 CAT        -3.0690   -0.3840   23.6990 C.3       1 S30        -0.0324
      2 CAL        -3.9430   -1.5950   23.7250 C.ar      1 S30        -0.0127
      3 CAM        -3.5360   -2.6450   24.5200 C.ar      1 S30        -0.0686
      4 CAE        -4.3770   -3.7620   24.5220 C.ar      1 S30        -0.0797
      5 CAD        -5.5650   -3.8720   23.7640 C.ar      1 S30        -0.0773
      6 CAC        -5.9380   -2.8180   22.9420 C.ar      1 S30        -0.0359
      7 CAK        -5.1240   -1.6700   22.9590 C.ar      1 S30         0.1124
      8 NAJ        -5.5670   -0.6420   22.1230 N.am      1 S30        -0.1334
      9 CAI        -4.9880   -0.5260   20.8570 C.2       1 S30         0.2539
     10 OAB        -4.0720   -1.3320   20.6260 O.2       1 S30        -0.3803
     11 CAH        -5.4390    0.4730   19.9790 C.ar      1 S30         0.0657
     12 CAG        -4.8920    0.7000   18.6800 C.ar      1 S30        -0.0334
     13 CAA        -3.7230   -0.1380   18.0630 C.3       1 S30        -0.0295
     14 CAF        -5.4080    1.7400   17.8700 C.ar      1 S30        -0.0638
     15 CAN        -6.4600    2.5350   18.3350 C.ar      1 S30        -0.0732
     16 CAO        -6.9750    2.3240   19.6140 C.ar      1 S30        -0.0606
     17 CAP        -6.4750    1.3000   20.4400 C.ar      1 S30         0.0080
     18 NAQ        -7.0410    1.1460   21.6650 N.2       1 S30        -0.3022
     19 CAR        -6.6160    0.1860   22.5200 C.2       1 S30         0.1954
     20 CAS        -7.2160   -0.0090   23.9270 C.3       1 S30         0.1625
     21 NAV        -7.5330    1.3440   24.4570 N.pl3     1 S30        -0.1591
     22 NAU        -8.6920    1.7350   24.3600 N.2       1 S30        -0.1806
     23 C6         -6.7400    2.2710   25.0190 C.ar      1 S30         0.1675
     24 N1         -5.4500    2.3510   25.3370 N.ar      1 S30        -0.2674
     25 C2         -4.8830    3.4070   25.9270 C.ar      1 S30         0.0565
     26 N3         -5.6070    4.4760   26.2180 N.ar      1 S30        -0.2655
     27 C4         -6.9230    4.4800   25.9180 C.ar      1 S30         0.1283
     28 NBE        -7.5910    5.5730   26.2480 N.pl3     1 S30        -0.3124
     29 C5         -7.5280    3.3560   25.3060 C.ar      1 S30         0.0955
     30 CAZ        -8.7900    2.9470   24.8490 C.2       1 S30         0.1163
     31 CBD       -10.0230    3.6400   24.8510 C.1       1 S30        -0.0534
     32 CBF       -11.0590    4.1600   24.8430 C.1       1 S30        -0.0701
     33 CBG       -12.3610    4.8130   24.8400 C.3       1 S30         0.1045
     34 OBH       -13.4010    3.8280   25.0160 O.3       1 S30        -0.3827
     35 H          -2.9873    0.0252   24.7060 H         1 S30         0.0371
     36 H          -2.0789   -0.6598   23.3361 H         1 S30         0.0371
     37 H          -3.5052    0.3632   23.0360 H         1 S30         0.0371
     38 H          -2.6191   -2.6070   25.1082 H         1 S30         0.0525
     39 H          -4.0971   -4.6065   25.1517 H         1 S30         0.0505
     40 H          -6.1787   -4.7708   23.8242 H         1 S30         0.0531
     41 H          -6.8240   -2.8767   22.3098 H         1 S30         0.0527
     42 H          -2.8401   -0.0485   18.6959 H         1 S30         0.0403
     43 H          -4.0217   -1.1844   17.9998 H         1 S30         0.0403
     44 H          -3.4959    0.2373   17.0651 H         1 S30         0.0403
     45 H          -4.9845    1.9213   16.8821 H         1 S30         0.0493
     46 H          -6.8763    3.3171   17.7001 H         1 S30         0.0609
     47 H          -7.7785    2.9631   19.9801 H         1 S30         0.0498
     48 H          -6.5097   -0.5225   24.5793 H         1 S30         0.0931
     49 H          -8.1141   -0.6249   23.8809 H         1 S30         0.0931
     50 H          -3.8205    3.3881   26.1695 H         1 S30         0.1029
     51 H          -8.5922    5.6341   26.0631 H         1 S30         0.1843
     52 H          -7.1049    6.3547   26.6874 H         1 S30         0.1843
     53 H         -12.5059    5.3246   23.8885 H         1 S30         0.0693
     54 H         -12.4050    5.5340   25.6563 H         1 S30         0.0693
     55 H         -14.2565    4.2636   25.0133 H         1 S30         0.2107
@<TRIPOS>BOND
     1    1    2 1  
     2    2    3 ar 
     3    2    7 ar 
     4    3    4 ar 
     5    4    5 ar 
     6    5    6 ar 
     7    6    7 ar 
     8    7    8 1  
     9    8    9 am 
    10    8   19 1  
    11    9   10 2  
    12    9   11 1  
    13   11   12 ar 
    14   11   17 ar 
    15   12   13 1  
    16   12   14 ar 
    17   14   15 ar 
    18   15   16 ar 
    19   16   17 ar 
    20   17   18 1  
    21   18   19 2  
    22   19   20 1  
    23   20   21 1  
    24   21   22 1  
    25   21   23 1  
    26   22   30 2  
    27   23   24 ar 
    28   23   29 ar 
    29   24   25 ar 
    30   25   26 ar 
    31   26   27 ar 
    32   27   28 1  
    33   27   29 ar 
    34   29   30 1  
    35   30   31 1  
    36   31   32 3  
    37   32   33 1  
    38   33   34 1  
    39    1   35 1  
    40    1   36 1  
    41    1   37 1  
    42    3   38 1  
    43    4   39 1  
    44    5   40 1  
    45    6   41 1  
    46   13   42 1  
    47   13   43 1  
    48   13   44 1  
    49   14   45 1  
    50   15   46 1  
    51   16   47 1  
    52   20   48 1  
    53   20   49 1  
    54   25   50 1  
    55   28   51 1  
    56   28   52 1  
    57   33   53 1  
    58   33   54 1  
    59   34   55 1  
@<TRIPOS>SUBSTRUCTURE
     1 S30         1

