### 
### Created by X-TOOL on Mon Sep 10 21:13:04 2018
### 

@<TRIPOS>MOLECULE
2wxl_ligand
   51    55     1     0     0
SMALL
GAST_HUCK


@<TRIPOS>ATOM
      1 CAQ        -7.5110  -28.0780   25.9180 C.3       1 ZS4         0.0590
      2 CAR        -7.0300  -27.9800   27.3500 C.3       1 ZS4         0.0688
      3 OAW        -5.5830  -28.2150   27.5130 O.3       1 ZS4        -0.3756
      4 CBB        -5.2460  -29.5300   27.1160 C.3       1 ZS4         0.0688
      5 CBA        -5.5840  -29.6670   25.6300 C.3       1 ZS4         0.0590
      6 NAV        -6.9920  -29.3460   25.3590 N.pl3     1 ZS4        -0.2699
      7 CAU        -7.7880  -30.1570   24.5430 C.ar      1 ZS4         0.1800
      8 NAP        -9.0290  -29.7930   24.1990 N.ar      1 ZS4        -0.2204
      9 NAT        -7.2810  -31.3140   24.0760 N.ar      1 ZS4        -0.2307
     10 CAS        -8.0340  -32.0800   23.2730 C.ar      1 ZS4         0.1800
     11 NAY        -7.5150  -33.2950   22.8330 N.pl3     1 ZS4        -0.2699
     12 CAZ        -6.1660  -33.7130   23.2380 C.3       1 ZS4         0.0590
     13 CAI        -6.1750  -35.1530   23.7390 C.3       1 ZS4         0.0688
     14 OBD        -7.2780  -35.9880   23.2920 O.3       1 ZS4        -0.3756
     15 CBC        -8.5400  -35.4890   22.7600 C.3       1 ZS4         0.0688
     16 CAX        -8.3580  -34.1780   22.0260 C.3       1 ZS4         0.0590
     17 NAN        -9.2780  -31.7070   22.9160 N.ar      1 ZS4        -0.2204
     18 CAO        -9.7640  -30.5370   23.3770 C.ar      1 ZS4         0.2301
     19 NAJ       -10.9950  -30.1820   23.0430 N.pl3     1 ZS4        -0.1474
     20 CAK       -11.8090  -29.4450   23.7730 C.ar      1 ZS4         0.1067
     21 CAL       -11.6630  -28.7950   24.9980 C.ar      1 ZS4        -0.0369
     22 CAM       -12.7350  -28.0540   25.4820 C.ar      1 ZS4        -0.0748
     23 CAH       -13.9300  -27.9690   24.7660 C.ar      1 ZS4        -0.0771
     24 CAG       -14.0570  -28.6190   23.5370 C.ar      1 ZS4        -0.0635
     25 CAF       -12.9940  -29.3580   23.0570 C.ar      1 ZS4         0.0284
     26 NAE       -12.8620  -30.0320   21.9300 N.2       1 ZS4        -0.3052
     27 CAD       -11.6590  -30.5610   21.9540 C.2       1 ZS4         0.2160
     28 CAC       -11.0970  -31.3580   20.8130 C.3       1 ZS4         0.3248
     29 FA        -11.9900  -31.4910   19.8050 F         1 ZS4        -0.1820
     30 FB        -10.2510  -30.4460   20.2820 F         1 ZS4        -0.1820
     31 H1         -7.1296  -27.2268   25.3348 H         1 ZS4         0.0554
     32 H2         -8.6106  -28.0780   25.8906 H         1 ZS4         0.0554
     33 H3         -7.5715  -28.7270   27.9489 H         1 ZS4         0.0581
     34 H4         -7.2613  -26.9720   27.7246 H         1 ZS4         0.0581
     35 H5         -5.8263  -30.2586   27.7011 H         1 ZS4         0.0581
     36 H6         -4.1716  -29.7055   27.2737 H         1 ZS4         0.0581
     37 H7         -5.3877  -30.7022   25.3141 H         1 ZS4         0.0554
     38 H8         -4.9453  -28.9807   25.0548 H         1 ZS4         0.0554
     39 H9         -5.8100  -33.0531   24.0428 H         1 ZS4         0.0554
     40 H10        -5.4895  -33.6356   22.3741 H         1 ZS4         0.0554
     41 H11        -6.2016  -35.1243   24.8383 H         1 ZS4         0.0581
     42 H12        -5.2402  -35.6283   23.4071 H         1 ZS4         0.0581
     43 H13        -9.2427  -35.3370   23.5925 H         1 ZS4         0.0581
     44 H14        -8.9525  -36.2335   22.0632 H         1 ZS4         0.0581
     45 H15        -7.8756  -34.3627   21.0548 H         1 ZS4         0.0554
     46 H16        -9.3385  -33.7062   21.8646 H         1 ZS4         0.0554
     47 H17       -10.7377  -28.8657   25.5583 H         1 ZS4         0.0556
     48 H18       -12.6414  -27.5348   26.4290 H         1 ZS4         0.0533
     49 H19       -14.7605  -27.3976   25.1646 H         1 ZS4         0.0525
     50 H20       -14.9766  -28.5446   22.9679 H         1 ZS4         0.0542
     51 H21       -10.6437  -32.3108   21.1238 H         1 ZS4         0.1307
@<TRIPOS>BOND
     1    1    2 1  
     2    1    6 1  
     3    2    3 1  
     4    3    4 1  
     5    4    5 1  
     6    5    6 1  
     7    6    7 1  
     8    7    8 ar 
     9    7    9 ar 
    10    8   18 ar 
    11    9   10 ar 
    12   10   11 1  
    13   10   17 ar 
    14   11   12 1  
    15   11   16 1  
    16   12   13 1  
    17   13   14 1  
    18   14   15 1  
    19   15   16 1  
    20   17   18 ar 
    21   18   19 1  
    22   19   20 1  
    23   19   27 1  
    24   20   21 ar 
    25   20   25 ar 
    26   21   22 ar 
    27   22   23 ar 
    28   23   24 ar 
    29   24   25 ar 
    30   25   26 1  
    31   26   27 2  
    32   27   28 1  
    33   28   29 1  
    34   28   30 1  
    35    1   31 1  
    36    1   32 1  
    37    2   33 1  
    38    2   34 1  
    39    4   35 1  
    40    4   36 1  
    41    5   37 1  
    42    5   38 1  
    43   12   39 1  
    44   12   40 1  
    45   13   41 1  
    46   13   42 1  
    47   15   43 1  
    48   15   44 1  
    49   16   45 1  
    50   16   46 1  
    51   21   47 1  
    52   22   48 1  
    53   23   49 1  
    54   24   50 1  
    55   28   51 1  
@<TRIPOS>SUBSTRUCTURE
     1 ZS4         1

