### 
### Created by X-TOOL on Mon Sep 10 21:13:04 2018
### 

@<TRIPOS>MOLECULE
2wxm_ligand
   35    37     1     0     0
SMALL
GAST_HUCK


@<TRIPOS>ATOM
      1 CAA        -4.4840   -2.3900   24.1090 C.3       1 ZZM        -0.0337
      2 CAB        -5.9100   -2.0270   23.6960 C.3       1 ZZM         0.0760
      3 CAC        -6.8930   -3.1060   24.1140 C.3       1 ZZM        -0.0337
      4 NAE        -6.4190   -0.6920   24.1920 N.pl3     1 ZZM        -0.1788
      5 NAD        -7.5620   -0.3290   23.8730 N.2       1 ZZM        -0.1821
      6 C6         -5.8250    0.2810   24.9200 C.ar      1 ZZM         0.1648
      7 N1         -4.6230    0.4490   25.5040 N.ar      1 ZZM        -0.2673
      8 C2         -4.2880    1.5470   26.1820 C.ar      1 ZZM         0.0566
      9 N3         -5.1380    2.5370   26.3280 N.ar      1 ZZM        -0.2655
     10 C4         -6.3750    2.4660   25.7580 C.ar      1 ZZM         0.1283
     11 NAN        -7.2180    3.4860   25.8750 N.pl3     1 ZZM        -0.3125
     12 C5         -6.7310    1.3200   25.0380 C.ar      1 ZZM         0.0959
     13 CAI        -7.8080    0.8930   24.3130 C.2       1 ZZM         0.1182
     14 CAM        -9.0470    1.5480   24.1570 C.1       1 ZZM        -0.0469
     15 CAO       -10.1100    1.9990   23.9460 C.1       1 ZZM        -0.0536
     16 CAP       -11.3890    2.4550   23.6400 C.ar      1 ZZM         0.0516
     17 CAQ       -11.9760    3.4370   24.4120 C.ar      1 ZZM        -0.0277
     18 CAR       -13.2480    3.8660   24.0550 C.ar      1 ZZM        -0.0335
     19 CAU       -13.8810    3.2860   22.9650 C.ar      1 ZZM         0.0106
     20 NAT       -13.2930    2.3490   22.2520 N.ar      1 ZZM        -0.2960
     21 CAS       -12.0790    1.9050   22.5670 C.ar      1 ZZM         0.0260
     22 H          -3.7937   -1.6385   23.7258 H         1 ZZM         0.0259
     23 H          -4.4195   -2.4236   25.1966 H         1 ZZM         0.0259
     24 H          -4.2254   -3.3659   23.6981 H         1 ZZM         0.0259
     25 H          -5.8467   -1.9457   22.6109 H         1 ZZM         0.0656
     26 H          -6.9748   -3.1199   25.2008 H         1 ZZM         0.0259
     27 H          -7.8693   -2.8951   23.6776 H         1 ZZM         0.0259
     28 H          -6.5382   -4.0749   23.7626 H         1 ZZM         0.0259
     29 H          -3.2936    1.6240   26.6217 H         1 ZZM         0.1030
     30 H          -8.1380    3.4401   25.4371 H         1 ZZM         0.1842
     31 H          -6.9452    4.3151   26.4028 H         1 ZZM         0.1842
     32 H         -11.4590    3.8615   25.2726 H         1 ZZM         0.0745
     33 H         -13.7442    4.6509   24.6258 H         1 ZZM         0.0708
     34 H         -14.8849    3.6128   22.6939 H         1 ZZM         0.0817
     35 H         -11.6240    1.1066   21.9809 H         1 ZZM         0.0835
@<TRIPOS>BOND
     1    1    2 1  
     2    2    3 1  
     3    2    4 1  
     4    4    5 1  
     5    4    6 1  
     6    5   13 2  
     7    6    7 ar 
     8    6   12 ar 
     9    7    8 ar 
    10    8    9 ar 
    11    9   10 ar 
    12   10   11 1  
    13   10   12 ar 
    14   12   13 1  
    15   13   14 1  
    16   14   15 3  
    17   15   16 1  
    18   16   17 ar 
    19   16   21 ar 
    20   17   18 ar 
    21   18   19 ar 
    22   19   20 ar 
    23   20   21 ar 
    24    1   22 1  
    25    1   23 1  
    26    1   24 1  
    27    2   25 1  
    28    3   26 1  
    29    3   27 1  
    30    3   28 1  
    31    8   29 1  
    32   11   30 1  
    33   11   31 1  
    34   17   32 1  
    35   18   33 1  
    36   19   34 1  
    37   21   35 1  
@<TRIPOS>SUBSTRUCTURE
     1 ZZM         1

