### 
### Created by X-TOOL on Mon Sep 10 21:13:04 2018
### 

@<TRIPOS>MOLECULE
2wxn_ligand
   37    39     1     0     0
SMALL
GAST_HUCK


@<TRIPOS>ATOM
      1 C20         6.9700   -3.0320  -23.8510 C.3       1 DLN        -0.0337
      2 C19         5.8570   -1.9700  -23.8410 C.3       1 DLN         0.0758
      3 C21         4.5950   -2.4140  -24.5800 C.3       1 DLN        -0.0337
      4 N7          6.3940   -0.6710  -24.3200 N.pl3     1 DLN        -0.1793
      5 N8          7.5340   -0.3280  -23.9720 N.2       1 DLN        -0.1832
      6 C3          5.7880    0.3200  -25.0250 C.ar      1 DLN         0.1646
      7 N2          4.5650    0.5180  -25.5790 N.ar      1 DLN        -0.2674
      8 C1          4.2970    1.6600  -26.2690 C.ar      1 DLN         0.0566
      9 N6          5.1800    2.6850  -26.3400 N.ar      1 DLN        -0.2655
     10 C5          6.4050    2.5200  -25.7720 C.ar      1 DLN         0.1282
     11 N10         7.3300    3.4240  -25.8510 N.pl3     1 DLN        -0.3125
     12 C4          6.7170    1.3510  -25.1220 C.ar      1 DLN         0.0955
     13 C11        10.0730    2.1020  -24.1050 C.1       1 DLN        -0.0649
     14 C12        11.4180    2.5300  -24.0440 C.ar      1 DLN         0.0154
     15 C13        12.1460    2.2050  -22.9390 C.ar      1 DLN        -0.0189
     16 C17        12.0050    3.1930  -25.1250 C.ar      1 DLN        -0.0577
     17 C16        13.3420    3.6060  -25.0980 C.ar      1 DLN        -0.0693
     18 C15        14.0580    3.3080  -23.9720 C.ar      1 DLN        -0.0333
     19 C14        13.4720    2.6040  -22.9060 C.ar      1 DLN         0.0883
     20 O18        14.2300    2.2930  -21.7910 O.3       1 DLN        -0.3333
     21 CAI         7.8070    0.9000  -24.4410 C.2       1 DLN         0.1165
     22 CAM         8.9980    1.6130  -24.2600 C.1       1 DLN        -0.0503
     23 H           7.3479   -3.1508  -24.8665 H         1 DLN         0.0259
     24 H           7.7804   -2.7134  -23.1953 H         1 DLN         0.0259
     25 H           6.5675   -3.9816  -23.4983 H         1 DLN         0.0259
     26 H           5.5281   -1.8355  -22.8106 H         1 DLN         0.0656
     27 H           3.8139   -1.6659  -24.4444 H         1 DLN         0.0259
     28 H           4.8163   -2.5218  -25.6419 H         1 DLN         0.0259
     29 H           4.2579   -3.3698  -24.1789 H         1 DLN         0.0259
     30 H           3.3397    1.7531  -26.7818 H         1 DLN         0.1030
     31 H           8.2472    3.2525  -25.4391 H         1 DLN         0.1842
     32 H           7.1409    4.3071  -26.3251 H         1 DLN         0.1842
     33 H          11.7014    1.6516  -22.1118 H         1 DLN         0.0547
     34 H          11.4056    3.3939  -26.0130 H         1 DLN         0.0536
     35 H          13.7913    4.1401  -25.9353 H         1 DLN         0.0590
     36 H          15.0995    3.6213  -23.8999 H         1 DLN         0.0543
     37 H          14.9739    1.7460  -22.0536 H         1 DLN         0.2480
@<TRIPOS>BOND
     1    2    1 1  
     2    2    3 1  
     3    4    2 1  
     4    5    4 1  
     5    6    4 1  
     6   21    5 2  
     7    6    7 ar 
     8   12    6 ar 
     9    7    8 ar 
    10    9    8 ar 
    11   10    9 ar 
    12   10   11 1  
    13   12   10 ar 
    14   21   12 1  
    15   13   14 1  
    16   22   13 3  
    17   14   15 ar 
    18   14   16 ar 
    19   15   19 ar 
    20   16   17 ar 
    21   17   18 ar 
    22   19   18 ar 
    23   19   20 1  
    24   21   22 1  
    25    1   23 1  
    26    1   24 1  
    27    1   25 1  
    28    2   26 1  
    29    3   27 1  
    30    3   28 1  
    31    3   29 1  
    32    8   30 1  
    33   11   31 1  
    34   11   32 1  
    35   15   33 1  
    36   16   34 1  
    37   17   35 1  
    38   18   36 1  
    39   20   37 1  
@<TRIPOS>SUBSTRUCTURE
     1 DLN         1

