### 
### Created by X-TOOL on Mon Sep 10 21:13:04 2018
### 

@<TRIPOS>MOLECULE
2wxo_ligand
   51    54     1     0     0
SMALL
GAST_HUCK


@<TRIPOS>ATOM
      1 CAY        -7.5640    4.0520   27.5910 C.3       1 ZZP         0.0589
      2 OBE        -6.2560    3.4840   27.4510 O.3       1 ZZP        -0.3268
      3 CAK        -6.1360    2.4880   26.5310 C.ar      1 ZZP         0.0731
      4 CBF        -7.1620    2.1520   25.6350 C.ar      1 ZZP        -0.0217
      5 CAW        -4.9130    1.8030   26.5050 C.ar      1 ZZP        -0.0169
      6 CBB        -4.7100    0.7750   25.5730 C.ar      1 ZZP         0.0731
      7 OBC        -3.5200    0.0980   25.5300 O.3       1 ZZP        -0.3268
      8 CBD        -3.5840   -1.1230   24.7280 C.3       1 ZZP         0.0589
      9 CBA        -5.7340    0.4440   24.6840 C.ar      1 ZZP        -0.0217
     10 CAZ        -6.9550    1.1210   24.7050 C.ar      1 ZZP         0.0463
     11 NAX        -7.8420    0.7120   23.7990 N.pl3     1 ZZP        -0.2561
     12 CAR        -9.1350    1.0590   23.6740 C.ar      1 ZZP         0.1917
     13 NAS        -9.7420    1.9390   24.5120 N.ar      1 ZZP        -0.2725
     14 CAT       -11.0500    2.2330   24.3620 C.ar      1 ZZP         0.0389
     15 CAU       -11.6910    3.1200   25.2240 C.ar      1 ZZP        -0.0484
     16 CAV       -13.0420    3.4370   25.0460 C.ar      1 ZZP        -0.0633
     17 CAQ       -13.7580    2.8620   24.0050 C.ar      1 ZZP        -0.0635
     18 CAP       -13.1290    1.9600   23.1390 C.ar      1 ZZP        -0.0495
     19 CAO       -11.7750    1.6560   23.3280 C.ar      1 ZZP         0.0338
     20 NAN       -11.1610    0.8080   22.4940 N.ar      1 ZZP        -0.2815
     21 CAM        -9.8770    0.4930   22.6270 C.ar      1 ZZP         0.1978
     22 NAL        -9.3400   -0.3710   21.7620 N.am      1 ZZP        -0.1574
     23 SAI       -10.2620   -1.1940   20.6460 S.o2      1 ZZP         0.0938
     24 OAJ        -9.3680   -1.9230   19.7110 O.2       1 ZZP        -0.1437
     25 OAH       -11.1650   -0.2160   19.8920 O.2       1 ZZP        -0.1437
     26 CAG       -11.2530   -2.3360   21.5280 C.ar      1 ZZP         0.1115
     27 CAF       -12.6140   -2.4320   21.2520 C.ar      1 ZZP        -0.0363
     28 CAE       -13.3940   -3.3340   21.9640 C.ar      1 ZZP        -0.0263
     29 CAB       -12.7940   -4.1360   22.9450 C.ar      1 ZZP         0.1325
     30 FAA       -13.5550   -5.0060   23.6260 F         1 ZZP        -0.1834
     31 CAC       -11.4260   -4.0570   23.2190 C.ar      1 ZZP        -0.0263
     32 CAD       -10.6560   -3.1410   22.5020 C.ar      1 ZZP        -0.0363
     33 H1         -7.5409    4.8413   28.3568 H         1 ZZP         0.0577
     34 H2         -8.2737    3.2681   27.8938 H         1 ZZP         0.0577
     35 H3         -7.8815    4.4827   26.6300 H         1 ZZP         0.0577
     36 H4         -8.1062    2.6838   25.6606 H         1 ZZP         0.0369
     37 H5         -4.1269    2.0671   27.2031 H         1 ZZP         0.0373
     38 H6         -2.6014   -1.6174   24.7338 H         1 ZZP         0.0577
     39 H7         -3.8603   -0.8686   23.6941 H         1 ZZP         0.0577
     40 H8         -4.3384   -1.8016   25.1527 H         1 ZZP         0.0577
     41 H9         -5.5786   -0.3522   23.9650 H         1 ZZP         0.0369
     42 H10        -7.4905    0.0406   23.1015 H         1 ZZP         0.2158
     43 H11       -11.1375    3.5690   26.0408 H         1 ZZP         0.0611
     44 H12       -13.5295    4.1314   25.7208 H         1 ZZP         0.0602
     45 H13       -14.8033    3.1113   23.8629 H         1 ZZP         0.0612
     46 H14       -13.6848    1.5009   22.3294 H         1 ZZP         0.0598
     47 H15        -8.3528   -0.5288   21.7851 H         1 ZZP         0.2299
     48 H16       -13.0616   -1.8076   20.4873 H         1 ZZP         0.0627
     49 H17       -14.4560   -3.4171   21.7632 H         1 ZZP         0.0604
     50 H18       -10.9736   -4.6929   23.9714 H         1 ZZP         0.0604
     51 H19        -9.5939   -3.0536   22.7005 H         1 ZZP         0.0627
@<TRIPOS>BOND
     1    1    2 1  
     2    2    3 1  
     3    3    4 ar 
     4    3    5 ar 
     5    4   10 ar 
     6    5    6 ar 
     7    6    7 1  
     8    6    9 ar 
     9    7    8 1  
    10    9   10 ar 
    11   10   11 1  
    12   11   12 1  
    13   12   13 ar 
    14   12   21 ar 
    15   13   14 ar 
    16   14   15 ar 
    17   14   19 ar 
    18   15   16 ar 
    19   16   17 ar 
    20   17   18 ar 
    21   18   19 ar 
    22   19   20 ar 
    23   20   21 ar 
    24   21   22 1  
    25   22   23 am 
    26   23   24 2  
    27   23   25 2  
    28   23   26 1  
    29   26   27 ar 
    30   26   32 ar 
    31   27   28 ar 
    32   28   29 ar 
    33   29   30 1  
    34   29   31 ar 
    35   31   32 ar 
    36    1   33 1  
    37    1   34 1  
    38    1   35 1  
    39    4   36 1  
    40    5   37 1  
    41    8   38 1  
    42    8   39 1  
    43    8   40 1  
    44    9   41 1  
    45   11   42 1  
    46   15   43 1  
    47   16   44 1  
    48   17   45 1  
    49   18   46 1  
    50   22   47 1  
    51   27   48 1  
    52   28   49 1  
    53   31   50 1  
    54   32   51 1  
@<TRIPOS>SUBSTRUCTURE
     1 ZZP         1

