### 
### Created by X-TOOL on Mon Sep 10 21:13:04 2018
### 

@<TRIPOS>MOLECULE
2wxp_ligand
   63    68     1     0     0
SMALL
GAST_HUCK


@<TRIPOS>ATOM
      1 O3         -5.9970    2.5050   27.6560 O.3       1 GD9        -0.3757
      2 C4         -7.9800    0.5790   24.6830 C.ar      1 GD9         0.1357
      3 C5         -6.7160   -2.9640   23.8270 C.2       1 GD9         0.0737
      4 C6         -7.9350   -2.7570   23.3360 C.2       1 GD9        -0.0388
      5 N1         -9.6310   -1.0480   23.2290 N.ar      1 GD9        -0.3043
      6 C7         -5.8510   -4.2110   23.7280 C.3       1 GD9         0.0228
      7 C8        -11.2320    0.6570   23.2190 C.ar      1 GD9         0.0255
      8 N2         -9.1600    1.0030   24.2860 N.ar      1 GD9        -0.2680
      9 C9         -5.7630   -5.9570   22.1500 C.3       1 GD9        -0.0124
     10 C10        -5.8460   -6.2710   20.6410 C.3       1 GD9         0.0695
     11 C11        -3.9580   -4.6730   20.5110 C.3       1 GD9         0.0695
     12 C12        -4.2790   -4.0140   21.8760 C.3       1 GD9        -0.0124
     13 N3         -7.1840    1.4710   25.3990 N.pl3     1 GD9        -0.2854
     14 C13        -4.1790   -7.3910   18.2580 C.3       1 GD9         0.0734
     15 C14        -5.7460    1.2460   25.5190 C.3       1 GD9         0.0548
     16 C15        -5.1950    1.5730   26.9190 C.3       1 GD9         0.0681
     17 N4         -5.5780   -4.5120   22.3420 N.4       1 GD9         0.2545
     18 O2         -6.1870   -5.7400   17.5140 O.2       1 GD9        -0.1556
     19 S2         -4.8840   -5.7400   18.2520 S.o2      1 GD9         0.0388
     20 O1         -3.9200   -4.8000   17.5660 O.2       1 GD9        -0.1556
     21 N5         -5.1730   -5.2130   19.8460 N.am      1 GD9        -0.2285
     22 S1         -6.1620   -1.6210   24.6140 S.3       1 GD9        -0.0086
     23 C2         -8.4340   -1.5370   23.5720 C.ar      1 GD9         0.0277
     24 C1         -7.5790   -0.7110   24.3300 C.ar      1 GD9         0.0994
     25 C3         -9.9740    0.2100   23.5640 C.ar      1 GD9         0.0882
     26 C18       -11.8750    0.0980   22.1160 C.ar      1 GD9        -0.0470
     27 C19       -13.1780    0.5240   21.7810 C.ar      1 GD9        -0.0579
     28 C20       -13.8210    1.4830   22.5740 C.ar      1 GD9        -0.0559
     29 C21       -13.1820    2.0130   23.7010 C.ar      1 GD9        -0.0100
     30 N6        -13.5510    2.9060   24.6310 N.2       1 GD9        -0.3335
     31 C22       -11.9050    1.5970   24.0170 C.ar      1 GD9         0.0465
     32 C23       -11.6100    2.2800   25.1200 C.2       1 GD9         0.1117
     33 N7        -12.6470    3.0590   25.4530 N.pl3     1 GD9        -0.2443
     34 C16        -6.8560    3.3550   26.9210 C.3       1 GD9         0.0681
     35 C17        -7.7840    2.7040   25.9460 C.3       1 GD9         0.0548
     36 H1         -8.4838   -3.5197   22.7855 H         1 GD9         0.0317
     37 H2         -6.3797   -5.0589   24.1879 H         1 GD9         0.1055
     38 H3         -4.9022   -4.0396   24.2575 H         1 GD9         0.1055
     39 H4         -4.9118   -6.4969   22.5903 H         1 GD9         0.0831
     40 H5         -6.6936   -6.2757   22.6422 H         1 GD9         0.0831
     41 H6         -6.9030   -6.3296   20.3421 H         1 GD9         0.0531
     42 H7         -5.3556   -7.2361   20.4457 H         1 GD9         0.0531
     43 H8         -3.2482   -5.4973   20.6743 H         1 GD9         0.0531
     44 H9         -3.5001   -3.9195   19.8533 H         1 GD9         0.0531
     45 H10        -4.3214   -2.9211   21.7591 H         1 GD9         0.0831
     46 H11        -3.4986   -4.2747   22.6061 H         1 GD9         0.0831
     47 H12        -4.8732   -8.0843   18.7555 H         1 GD9         0.0482
     48 H13        -3.2217   -7.3790   18.7997 H         1 GD9         0.0482
     49 H14        -4.0102   -7.7214   17.2225 H         1 GD9         0.0482
     50 H15        -5.2303    1.8809   24.7835 H         1 GD9         0.0547
     51 H16        -5.5383    0.1882   25.3000 H         1 GD9         0.0547
     52 H17        -5.1343    0.6375   27.4944 H         1 GD9         0.0580
     53 H18        -4.1873    1.9986   26.8038 H         1 GD9         0.0580
     54 H19        -6.2763   -4.0421   21.7874 H         1 GD9         0.2056
     55 H20       -11.3778   -0.6585   21.5198 H         1 GD9         0.0652
     56 H21       -13.6793    0.1107   20.9133 H         1 GD9         0.0625
     57 H22       -14.8190    1.8166   22.3135 H         1 GD9         0.0641
     58 H23       -10.6707    2.2155   25.6672 H         1 GD9         0.1375
     59 H24       -12.6829    3.6873   26.2684 H         1 GD9         0.2935
     60 H25        -6.2248    4.0590   26.3589 H         1 GD9         0.0580
     61 H26        -7.4711    3.9108   27.6440 H         1 GD9         0.0580
     62 H27        -8.7253    2.4521   26.4563 H         1 GD9         0.0547
     63 H28        -7.9894    3.4024   25.1214 H         1 GD9         0.0547
@<TRIPOS>BOND
     1   16    1 1  
     2    1   34 1  
     3    8    2 ar 
     4    2   13 1  
     5    2   24 ar 
     6    3    4 2  
     7    6    3 1  
     8    3   22 1  
     9    4   23 1  
    10   23    5 ar 
    11    5   25 ar 
    12   17    6 1  
    13   25    7 1  
    14    7   26 ar 
    15    7   31 ar 
    16   25    8 ar 
    17   10    9 1  
    18    9   17 1  
    19   21   10 1  
    20   11   12 1  
    21   21   11 1  
    22   12   17 1  
    23   13   15 1  
    24   13   35 1  
    25   19   14 1  
    26   15   16 1  
    27   19   18 2  
    28   19   20 2  
    29   19   21 am 
    30   22   24 1  
    31   23   24 ar 
    32   26   27 ar 
    33   27   28 ar 
    34   28   29 ar 
    35   29   30 2  
    36   29   31 ar 
    37   30   33 1  
    38   31   32 2  
    39   32   33 1  
    40   34   35 1  
    41    4   36 1  
    42    6   37 1  
    43    6   38 1  
    44    9   39 1  
    45    9   40 1  
    46   10   41 1  
    47   10   42 1  
    48   11   43 1  
    49   11   44 1  
    50   12   45 1  
    51   12   46 1  
    52   14   47 1  
    53   14   48 1  
    54   14   49 1  
    55   15   50 1  
    56   15   51 1  
    57   16   52 1  
    58   16   53 1  
    59   17   54 1  
    60   26   55 1  
    61   27   56 1  
    62   28   57 1  
    63   32   58 1  
    64   33   59 1  
    65   34   60 1  
    66   34   61 1  
    67   35   62 1  
    68   35   63 1  
@<TRIPOS>SUBSTRUCTURE
     1 GD9         1

