### 
### Created by X-TOOL on Mon Sep 10 21:13:04 2018
### 

@<TRIPOS>MOLECULE
2wxq_ligand
   57    61     1     0     0
SMALL
GAST_HUCK


@<TRIPOS>ATOM
      1 CBC        -8.3510   -3.5750   18.4390 C.3       1 ZZQ         0.0574
      2 OBB        -7.8410   -4.1670   19.6450 O.3       1 ZZQ        -0.3235
      3 CBG        -7.5720   -5.4930   19.4000 C.ar      1 ZZQ         0.1249
      4 CBH        -8.5970   -6.4330   19.1520 C.ar      1 ZZQ        -0.0402
      5 CBE        -8.2660   -7.7640   18.9310 C.ar      1 ZZQ        -0.0812
      6 CBD        -6.9320   -8.1620   18.9570 C.ar      1 ZZQ        -0.0809
      7 CAU        -5.9090   -7.2400   19.1850 C.ar      1 ZZQ        -0.0366
      8 CBF        -6.2320   -5.8900   19.3820 C.ar      1 ZZQ         0.1416
      9 NAT        -5.1820   -4.9780   19.6640 N.am      1 ZZQ        -0.1318
     10 CAS        -4.2650   -4.4410   18.7240 C.2       1 ZZQ         0.2243
     11 OBA        -4.3200   -4.7050   17.5130 O.2       1 ZZQ        -0.4085
     12 CAR        -3.2670   -3.5800   19.1830 C.2       1 ZZQ         0.0193
     13 CAQ        -2.2940   -2.9860   18.1920 C.3       1 ZZQ        -0.0295
     14 CAP        -1.0580   -2.3920   18.8880 C.3       1 ZZQ        -0.0470
     15 CAB        -1.3140   -1.5980   20.1910 C.3       1 ZZQ        -0.0413
     16 CAC        -2.1390   -2.3540   21.2460 C.3       1 ZZQ        -0.0152
     17 CAD        -3.2010   -3.2800   20.5650 C.2       1 ZZQ        -0.0088
     18 NAE        -4.0930   -3.8290   21.4000 N.2       1 ZZQ        -0.2911
     19 CAF        -5.0520   -4.6420   20.9870 C.2       1 ZZQ         0.2306
     20 SAG        -6.2110   -5.3170   22.0980 S.3       1 ZZQ         0.0000
     21 CAH        -5.9950   -4.2380   23.5960 C.3       1 ZZQ         0.1143
     22 CAI        -7.2030   -3.3310   23.3650 C.2       1 ZZQ         0.2200
     23 OAA        -8.1870   -3.7290   22.7120 O.2       1 ZZQ        -0.3821
     24 NAJ        -7.1450   -2.0800   23.6940 N.am      1 ZZQ        -0.2274
     25 CAK        -6.3590   -1.2370   24.3270 C.ar      1 ZZQ         0.0792
     26 CAL        -7.1070   -0.1110   24.6810 C.ar      1 ZZQ        -0.0158
     27 CAM        -6.5770    0.9620   25.3200 C.ar      1 ZZQ         0.0571
     28 NAN        -7.3760    2.0090   25.6340 N.ar      1 ZZQ        -0.2812
     29 CAO        -6.8800    3.0740   26.2550 C.ar      1 ZZQ         0.0355
     30 CAZ        -5.5190    3.0480   26.5740 C.ar      1 ZZQ         0.0372
     31 NAY        -4.7330    2.0030   26.2580 N.ar      1 ZZQ        -0.2766
     32 CAX        -5.2220    0.9250   25.6080 C.ar      1 ZZQ         0.0653
     33 CAW        -4.4320   -0.1910   25.2600 C.ar      1 ZZQ        -0.0345
     34 CAV        -4.9990   -1.3110   24.5980 C.ar      1 ZZQ        -0.0221
     35 H          -7.6057   -3.6642   17.6486 H         1 ZZQ         0.0574
     36 H          -9.2632   -4.0913   18.1399 H         1 ZZQ         0.0574
     37 H          -8.5695   -2.5221   18.6169 H         1 ZZQ         0.0574
     38 H          -9.6398   -6.1163   19.1342 H         1 ZZQ         0.0510
     39 H          -9.0500   -8.4961   18.7374 H         1 ZZQ         0.0499
     40 H          -6.6824   -9.2108   18.7967 H         1 ZZQ         0.0497
     41 H          -4.8693   -7.5664   19.2096 H         1 ZZQ         0.0519
     42 H          -2.8008   -2.1854   17.6532 H         1 ZZQ         0.0346
     43 H          -1.9612   -3.7790   17.5223 H         1 ZZQ         0.0346
     44 H          -0.6262   -1.6824   18.1822 H         1 ZZQ         0.0281
     45 H          -0.4334   -3.2399   19.1691 H         1 ZZQ         0.0281
     46 H          -1.8832   -0.7098   19.9170 H         1 ZZQ         0.0290
     47 H          -0.3404   -1.3911   20.6353 H         1 ZZQ         0.0290
     48 H          -2.6570   -1.6279   21.8726 H         1 ZZQ         0.0440
     49 H          -1.4660   -2.9709   21.8415 H         1 ZZQ         0.0440
     50 H          -5.0328   -3.7329   23.6812 H         1 ZZQ         0.0661
     51 H          -5.9688   -4.7573   24.5540 H         1 ZZQ         0.0661
     52 H          -7.9738   -1.5928   23.3533 H         1 ZZQ         0.2297
     53 H          -8.1679   -0.0939   24.4316 H         1 ZZQ         0.0482
     54 H          -7.5067    3.9302   26.5047 H         1 ZZQ         0.0928
     55 H          -5.0817    3.9001   27.0944 H         1 ZZQ         0.0896
     56 H          -3.3695   -0.1930   25.5034 H         1 ZZQ         0.0666
     57 H          -4.4017   -2.1789   24.3185 H         1 ZZQ         0.0634
@<TRIPOS>BOND
     1    1    2 1  
     2    2    3 1  
     3    3    4 ar 
     4    3    8 ar 
     5    4    5 ar 
     6    5    6 ar 
     7    6    7 ar 
     8    7    8 ar 
     9    8    9 1  
    10    9   10 am 
    11    9   19 1  
    12   10   11 2  
    13   10   12 1  
    14   12   13 1  
    15   12   17 2  
    16   13   14 1  
    17   14   15 1  
    18   15   16 1  
    19   16   17 1  
    20   17   18 1  
    21   18   19 2  
    22   19   20 1  
    23   20   21 1  
    24   21   22 1  
    25   22   23 2  
    26   22   24 am 
    27   24   25 1  
    28   25   26 ar 
    29   25   34 ar 
    30   26   27 ar 
    31   27   28 ar 
    32   27   32 ar 
    33   28   29 ar 
    34   29   30 ar 
    35   30   31 ar 
    36   31   32 ar 
    37   32   33 ar 
    38   33   34 ar 
    39    1   35 1  
    40    1   36 1  
    41    1   37 1  
    42    4   38 1  
    43    5   39 1  
    44    6   40 1  
    45    7   41 1  
    46   13   42 1  
    47   13   43 1  
    48   14   44 1  
    49   14   45 1  
    50   15   46 1  
    51   15   47 1  
    52   16   48 1  
    53   16   49 1  
    54   21   50 1  
    55   21   51 1  
    56   24   52 1  
    57   26   53 1  
    58   29   54 1  
    59   30   55 1  
    60   33   56 1  
    61   34   57 1  
@<TRIPOS>SUBSTRUCTURE
     1 ZZQ         1

