### 
### Created by X-TOOL on Mon Sep 10 21:13:04 2018
### 

@<TRIPOS>MOLECULE
2wxv_ligand
   54    57     1     0     0
SMALL
GAST_HUCK


@<TRIPOS>ATOM
      1 C1        -34.8740  176.8460   87.2740 C.3       1 WXV        -0.0075
      2 C2        -33.8890  176.7910   86.0680 C.3       1 WXV        -0.0140
      3 C3        -33.9760  174.2220   86.1400 C.2       1 WXV         0.1140
      4 C4        -33.3770  175.4130   85.6700 C.2       1 WXV         0.0105
      5 C5        -32.2930  174.9140   84.8170 C.2       1 WXV         0.1244
      6 N6        -32.2560  173.6190   84.7850 N.2       1 WXV        -0.1840
      7 N7        -33.2560  173.1910   85.5690 N.pl3     1 WXV        -0.1981
      8 C8        -33.4890  171.7570   85.7440 C.3       1 WXV         0.0599
      9 C9        -31.3100  175.7330   84.0440 C.2       1 WXV         0.2105
     10 O10       -31.3200  176.9640   84.0550 O.2       1 WXV        -0.3871
     11 C11       -35.6020  175.5360   87.6290 C.ar      1 WXV         0.0015
     12 C12       -35.1410  174.1950   87.0540 C.ar      1 WXV         0.0749
     13 N13       -35.6980  173.0590   87.3140 N.ar      1 WXV        -0.2636
     14 C14       -36.8210  173.0910   88.2030 C.ar      1 WXV         0.1764
     15 N15       -37.3130  174.1810   88.7570 N.ar      1 WXV        -0.2692
     16 C16       -36.7000  175.3980   88.4660 C.ar      1 WXV         0.0103
     17 N17       -37.4030  171.9080   88.4800 N.pl3     1 WXV        -0.2907
     18 N18       -30.4490  174.9560   83.3560 N.am      1 WXV        -0.2895
     19 C19       -37.0000  170.6100   87.9670 C.3       1 WXV         0.0435
     20 C20       -37.1990  170.4150   86.4180 C.3       1 WXV        -0.0127
     21 C21       -38.2320  169.3560   86.0680 C.3       1 WXV         0.0313
     22 N22       -37.9700  168.0610   86.7580 N.am      1 WXV        -0.2385
     23 C23       -37.5530  168.0890   88.1970 C.3       1 WXV         0.0313
     24 C24       -37.7220  169.5000   88.8200 C.3       1 WXV        -0.0127
     25 S25       -38.1570  166.6640   85.9450 S.o2      1 WXV         0.0385
     26 C26       -36.5000  166.2200   85.5180 C.3       1 WXV         0.0734
     27 O27       -38.6390  165.6370   86.8380 O.2       1 WXV        -0.1556
     28 O28       -38.8850  166.9340   84.7270 O.2       1 WXV        -0.1556
     29 C29       -29.3900  175.4380   82.5120 C.3       1 WXV         0.0190
     30 H         -35.6518  177.5570   86.9955 H         1 WXV         0.0446
     31 H         -34.2700  177.1006   88.1449 H         1 WXV         0.0446
     32 H         -33.0115  177.3633   86.3690 H         1 WXV         0.0414
     33 H         -34.4438  177.1664   85.2082 H         1 WXV         0.0414
     34 H         -33.7014  171.3039   84.7757 H         1 WXV         0.0600
     35 H         -32.6006  171.2958   86.1754 H         1 WXV         0.0600
     36 H         -34.3380  171.6069   86.4109 H         1 WXV         0.0600
     37 H         -37.1088  176.2983   88.9248 H         1 WXV         0.0808
     38 H         -38.2042  171.9254   89.1110 H         1 WXV         0.1843
     39 H         -30.5579  173.9454   83.4413 H         1 WXV         0.1841
     40 H         -35.9189  170.5286   88.0793 H         1 WXV         0.0558
     41 H         -36.2444  170.0913   86.0032 H         1 WXV         0.0303
     42 H         -37.5508  171.3630   86.0109 H         1 WXV         0.0303
     43 H         -38.1870  169.1817   84.9930 H         1 WXV         0.0478
     44 H         -39.2092  169.7180   86.3875 H         1 WXV         0.0478
     45 H         -36.4998  167.8140   88.2534 H         1 WXV         0.0478
     46 H         -38.1842  167.3931   88.7497 H         1 WXV         0.0478
     47 H         -38.7862  169.7333   88.8533 H         1 WXV         0.0303
     48 H         -37.2761  169.4898   89.8146 H         1 WXV         0.0303
     49 H         -35.8933  166.1730   86.4223 H         1 WXV         0.0482
     50 H         -36.5008  165.2461   85.0285 H         1 WXV         0.0482
     51 H         -36.0878  166.9681   84.8409 H         1 WXV         0.0482
     52 H         -29.8129  176.0448   81.7113 H         1 WXV         0.0483
     53 H         -28.7024  176.0426   83.1034 H         1 WXV         0.0483
     54 H         -28.8545  174.5908   82.0835 H         1 WXV         0.0483
@<TRIPOS>BOND
     1    1    2 1  
     2    1   11 1  
     3    2    4 1  
     4    4    3 2  
     5    3    7 1  
     6    3   12 1  
     7    4    5 1  
     8    5    6 2  
     9    5    9 1  
    10    6    7 1  
    11    7    8 1  
    12    9   10 2  
    13    9   18 am 
    14   11   12 ar 
    15   11   16 ar 
    16   12   13 ar 
    17   13   14 ar 
    18   14   15 ar 
    19   14   17 1  
    20   15   16 ar 
    21   17   19 1  
    22   18   29 1  
    23   19   20 1  
    24   19   24 1  
    25   20   21 1  
    26   21   22 1  
    27   22   23 1  
    28   22   25 am 
    29   23   24 1  
    30   25   26 1  
    31   25   27 2  
    32   25   28 2  
    33    1   30 1  
    34    1   31 1  
    35    2   32 1  
    36    2   33 1  
    37    8   34 1  
    38    8   35 1  
    39    8   36 1  
    40   16   37 1  
    41   17   38 1  
    42   18   39 1  
    43   19   40 1  
    44   20   41 1  
    45   20   42 1  
    46   21   43 1  
    47   21   44 1  
    48   23   45 1  
    49   23   46 1  
    50   24   47 1  
    51   24   48 1  
    52   26   49 1  
    53   26   50 1  
    54   26   51 1  
    55   29   52 1  
    56   29   53 1  
    57   29   54 1  
@<TRIPOS>SUBSTRUCTURE
     1 WXV         1

