### 
### Created by X-TOOL on Mon Sep 10 21:13:02 2018
### 

@<TRIPOS>MOLECULE
2wyf_ligand
   48    49     1     0     0
SMALL
GAST_HUCK


@<TRIPOS>ATOM
      1 C1         13.6330   18.1100   76.1820 C.3       1 GLA         0.1885
      2 C2         13.0000   19.3730   75.6300 C.3       1 GLA         0.1341
      3 C3         11.7170   19.0370   74.8800 C.3       1 GLA         0.1141
      4 C4         12.0300   18.0270   73.7820 C.3       1 GLA         0.1119
      5 C5         12.7060   16.7730   74.3500 C.3       1 GLA         0.1130
      6 C6         13.2730   15.8920   73.2570 C.3       1 GLA         0.0730
      7 O2         12.7450   20.2520   76.6990 O.3       1 GLA        -0.3841
      8 O3         11.1800   20.2170   74.3000 O.3       1 GLA        -0.3864
      9 O4         12.8470   18.6840   72.8310 O.3       1 GLA        -0.3865
     10 O5         13.7930   17.0740   75.2180 O.3       1 GLA        -0.3405
     11 O6         13.5870   14.6450   73.8240 O.3       1 GLA        -0.3924
     12 C1         14.3580   17.2600   79.1750 C.3       1 MBG         0.1880
     13 C2         13.3610   16.7000   78.1350 C.3       1 MBG         0.1406
     14 C3         12.1570   15.9910   78.7600 C.3       1 MBG         0.1144
     15 C4         12.5200   15.1220   79.9630 C.3       1 MBG         0.1119
     16 C5         13.4790   15.8630   80.8970 C.3       1 MBG         0.1130
     17 C6         13.9070   15.0270   82.1050 C.3       1 MBG         0.0730
     18 C7         16.7560   17.0150   78.7720 C.3       1 MBG         0.0395
     19 O1         15.5590   17.7730   78.5520 O.3       1 MBG        -0.3519
     20 O2         12.8050   17.7390   77.3330 O.3       1 MBG        -0.3378
     21 O3         11.5250   15.1960   77.7410 O.3       1 MBG        -0.3864
     22 O4         13.1260   13.9170   79.4780 O.3       1 MBG        -0.3865
     23 O5         14.6410   16.2370   80.1440 O.3       1 MBG        -0.3405
     24 O6         13.9590   15.8540   83.2710 O.3       1 MBG        -0.3924
     25 H1         14.6406   18.3581   76.5469 H         1 GLA         0.0938
     26 H2         13.7012   19.8526   74.9313 H         1 GLA         0.0671
     27 H3         10.9847   18.6063   75.5787 H         1 GLA         0.0648
     28 H4         11.0916   17.7205   73.2968 H         1 GLA         0.0647
     29 H5         11.9476   16.2076   74.9113 H         1 GLA         0.0647
     30 H6         14.1812   16.3519   72.8402 H         1 GLA         0.0584
     31 H7         12.5281   15.7619   72.4582 H         1 GLA         0.0584
     32 H8         13.5588   20.4455   77.1494 H         1 GLA         0.2101
     33 H9         11.8137   20.5894   73.6982 H         1 GLA         0.2100
     34 H10        13.0305   18.0926   72.1104 H         1 GLA         0.2100
     35 H11        14.2277   14.7649   74.5151 H         1 GLA         0.2095
     36 H12        13.8733   18.0985   79.6964 H         1 GLA         0.0937
     37 H13        13.9044   15.9904   77.4938 H         1 GLA         0.0675
     38 H14        11.4468   16.7581   79.1024 H         1 GLA         0.0648
     39 H15        11.6049   14.8713   80.5194 H         1 GLA         0.0647
     40 H16        12.9771   16.7701   81.2648 H         1 GLA         0.0647
     41 H17        14.9018   14.5966   81.9176 H         1 GLA         0.0584
     42 H18        13.1808   14.2163   82.2642 H         1 GLA         0.0584
     43 H19        17.5968   17.4987   78.2533 H         1 GLA         0.0525
     44 H20        16.6216   15.9957   78.3810 H         1 GLA         0.0525
     45 H21        16.9680   16.9691   79.8504 H         1 GLA         0.0525
     46 H22        12.1205   14.5110   77.4606 H         1 GLA         0.2100
     47 H23        13.9187   14.1324   79.0008 H         1 GLA         0.2100
     48 H24        13.0997   16.2251   83.4332 H         1 GLA         0.2095
@<TRIPOS>BOND
     1    1    2 1  
     2    1   10 1  
     3   20    1 1  
     4    2    3 1  
     5    2    7 1  
     6    3    4 1  
     7    3    8 1  
     8    5    4 1  
     9    4    9 1  
    10    5    6 1  
    11   10    5 1  
    12    6   11 1  
    13   13   12 1  
    14   12   19 1  
    15   12   23 1  
    16   13   14 1  
    17   13   20 1  
    18   14   15 1  
    19   14   21 1  
    20   15   16 1  
    21   15   22 1  
    22   16   17 1  
    23   16   23 1  
    24   17   24 1  
    25   19   18 1  
    26    1   25 1  
    27    2   26 1  
    28    3   27 1  
    29    4   28 1  
    30    5   29 1  
    31    6   30 1  
    32    6   31 1  
    33    7   32 1  
    34    8   33 1  
    35    9   34 1  
    36   11   35 1  
    37   12   36 1  
    38   13   37 1  
    39   14   38 1  
    40   15   39 1  
    41   16   40 1  
    42   17   41 1  
    43   17   42 1  
    44   18   43 1  
    45   18   44 1  
    46   18   45 1  
    47   21   46 1  
    48   22   47 1  
    49   24   48 1  
@<TRIPOS>SUBSTRUCTURE
     1 GLA         1

