### 
### Created by X-TOOL on Mon Sep 10 21:13:03 2018
### 

@<TRIPOS>MOLECULE
2wyg_ligand
   54    56     1     0     0
SMALL
GAST_HUCK


@<TRIPOS>ATOM
      1 CL1        13.8360    7.4200   26.2020 Cl        1 461        -0.0541
      2 C1         12.1090    7.5820   26.3260 C.2       1 461         0.0969
      3 C2         11.3530    7.1170   27.3520 C.2       1 461        -0.0580
      4 C3         10.0030    7.4060   27.1510 C.2       1 461        -0.0663
      5 S2         11.2190    8.3990   25.1020 S.3       1 461        -0.0265
      6 C4          9.7450    8.0980   25.9730 C.2       1 461         0.0287
      7 C5          8.4190    8.5290   25.5310 C.2       1 461        -0.0314
      8 C6          8.0760    8.9630   24.3060 C.2       1 461         0.0664
      9 S1          6.4100    9.4180   24.0470 S.o2      1 461         0.0601
     10 O2          6.3680   10.6590   23.3320 O.2       1 461        -0.1518
     11 O1          5.7020    9.2010   25.2630 O.2       1 461        -0.1518
     12 N1          5.8200    8.3890   22.9490 N.am      1 461        -0.2263
     13 C12         5.9590    6.9700   23.1630 C.3       1 461         0.1339
     14 C13         4.6400    6.2160   22.9360 C.3       1 461         0.0097
     15 C14         4.9490    5.0760   21.9490 C.3       1 461         0.0574
     16 C50         6.8880    6.4160   22.0980 C.2       1 461         0.2252
     17 O3          7.9940    6.8560   21.8050 O.2       1 461        -0.3840
     18 N2          6.3140    5.3380   21.5090 N.am      1 461        -0.2214
     19 C15         7.0050    4.5440   20.5530 C.ar      1 461         0.0963
     20 C21         7.5520    5.1550   19.4430 C.ar      1 461         0.1460
     21 F1          7.4000    6.4750   19.2900 F         1 461        -0.1953
     22 C22         7.1680    3.1740   20.7270 C.ar      1 461        -0.0484
     23 C26         7.8690    2.4530   19.7590 C.ar      1 461        -0.0720
     24 C27         8.4210    3.0820   18.6320 C.ar      1 461        -0.0123
     25 C24         8.2510    4.4560   18.4800 C.ar      1 461        -0.0342
     26 C28         9.1680    2.3280   17.5470 C.3       1 461         0.0020
     27 C7         10.0600    1.1850   18.0630 C.3       1 461        -0.0136
     28 N3          8.2200    1.8630   16.5040 N.4       1 461         0.2429
     29 C11         7.2120    0.8780   16.9330 C.3       1 461        -0.0419
     30 C10         7.6100    2.9150   15.6690 C.3       1 461        -0.0419
     31 H1         11.7478    6.5880   28.2182 H         1 461         0.0442
     32 H2          9.2224    7.1160   27.8528 H         1 461         0.0457
     33 H3          7.6240    8.4946   26.2745 H         1 461         0.0624
     34 H4          8.8102    9.0285   23.5043 H         1 461         0.0767
     35 H5          5.3629    8.7334   22.1290 H         1 461         0.1705
     36 H6          6.3464    6.7804   24.1749 H         1 461         0.0759
     37 H7          3.8846    6.8926   22.5098 H         1 461         0.0333
     38 H8          4.2694    5.8049   23.8866 H         1 461         0.0333
     39 H9          4.2540    5.0998   21.0968 H         1 461         0.0583
     40 H10         4.8822    4.0988   22.4496 H         1 461         0.0583
     41 H11         6.7584    2.6754   21.5980 H         1 461         0.0474
     42 H12         7.9899    1.3826   19.8803 H         1 461         0.0488
     43 H13         8.6618    4.9689   17.6178 H         1 461         0.0507
     44 H14         9.8434    3.0531   17.0694 H         1 461         0.0984
     45 H15        10.7447    1.5727   18.8316 H         1 461         0.0303
     46 H16        10.6434    0.7697   17.2281 H         1 461         0.0303
     47 H17         9.4295    0.3957   18.4982 H         1 461         0.0303
     48 H18         8.8102    1.3515   15.8667 H         1 461         0.2042
     49 H19         6.5722    0.6122   16.0786 H         1 461         0.0778
     50 H20         6.5938    1.3108   17.7333 H         1 461         0.0778
     51 H21         7.7173   -0.0245   17.3074 H         1 461         0.0778
     52 H22         8.3834    3.6351   15.3635 H         1 461         0.0778
     53 H23         6.8316    3.4357   16.2459 H         1 461         0.0778
     54 H24         7.1602    2.4587   14.7749 H         1 461         0.0778
@<TRIPOS>BOND
     1    1    2 1  
     2    2    3 2  
     3    2    5 1  
     4    3    4 1  
     5    4    6 2  
     6    5    6 1  
     7    6    7 1  
     8    7    8 2  
     9    8    9 1  
    10    9   10 2  
    11    9   11 2  
    12    9   12 am 
    13   12   13 1  
    14   13   14 1  
    15   13   16 1  
    16   14   15 1  
    17   15   18 1  
    18   16   17 2  
    19   16   18 am 
    20   18   19 1  
    21   19   20 ar 
    22   19   22 ar 
    23   20   21 1  
    24   20   25 ar 
    25   22   23 ar 
    26   23   24 ar 
    27   24   25 ar 
    28   24   26 1  
    29   26   27 1  
    30   26   28 1  
    31   28   29 1  
    32   28   30 1  
    33    3   31 1  
    34    4   32 1  
    35    7   33 1  
    36    8   34 1  
    37   12   35 1  
    38   13   36 1  
    39   14   37 1  
    40   14   38 1  
    41   15   39 1  
    42   15   40 1  
    43   22   41 1  
    44   23   42 1  
    45   25   43 1  
    46   26   44 1  
    47   27   45 1  
    48   27   46 1  
    49   27   47 1  
    50   28   48 1  
    51   29   49 1  
    52   29   50 1  
    53   29   51 1  
    54   30   52 1  
    55   30   53 1  
    56   30   54 1  
@<TRIPOS>SUBSTRUCTURE
     1 461         1

