### 
### Created by X-TOOL on Mon Sep 10 21:13:01 2018
### 

@<TRIPOS>MOLECULE
2wzs_ligand
   26    27     1     0     0
SMALL
GAST_HUCK


@<TRIPOS>ATOM
      1 C1         44.1390   24.4400  100.9170 C.2       1 MVL         0.1465
      2 N10        43.9610   23.2130  100.4380 N.pl3     1 MVL        -0.2404
      3 C3         44.9420   23.5900  103.1260 C.3       1 MVL         0.1253
      4 C4         44.3010   22.2600  102.6430 C.3       1 MVL         0.1183
      5 C5         44.4460   21.9950  101.1340 C.3       1 MVL         0.1196
      6 C6         43.6280   20.7630  100.7080 C.3       1 MVL         0.0773
      7 C7         42.8970   24.6140   99.1410 C.2       1 MVL        -0.0364
      8 C8         43.1670   23.2840   99.3620 C.2       1 MVL         0.0285
      9 N1         43.5100   25.3170  100.1180 N.2       1 MVL        -0.3367
     10 O3         44.2360   24.0740  104.2650 O.3       1 MVL        -0.3839
     11 O2         44.4740   25.9530  102.7150 O.3       1 MVL        -0.3699
     12 O4         44.8530   21.1480  103.3700 O.3       1 MVL        -0.3858
     13 C2         44.9620   24.7450  102.1150 C.3       1 MVL         0.1586
     14 O6         42.2720   20.8240  101.1890 O.3       1 MVL        -0.3918
     15 H1         45.9818   23.3684  103.4084 H         1 MVL         0.0675
     16 H2         43.2253   22.3176  102.8657 H         1 MVL         0.0654
     17 H3         45.5042   21.8225  100.8880 H         1 MVL         0.0704
     18 H4         44.1083   19.8602  101.1131 H         1 MVL         0.0589
     19 H5         43.6131   20.7089   99.6094 H         1 MVL         0.0589
     20 H6         42.2994   25.0247   98.3285 H         1 MVL         0.0408
     21 H7         42.8028   22.4444   98.7717 H         1 MVL         0.0796
     22 H8         44.2812   23.4296  104.9616 H         1 MVL         0.2103
     23 H9         43.5815   25.8197  103.0119 H         1 MVL         0.2138
     24 H10        44.7661   21.3064  104.3027 H         1 MVL         0.2100
     25 H11        46.0023   24.9037  101.7948 H         1 MVL         0.0858
     26 H12        42.2754   20.8651  102.1381 H         1 MVL         0.2095
@<TRIPOS>BOND
     1    1    2 1  
     2    1    9 2  
     3   13    1 1  
     4    2    5 1  
     5    2    8 1  
     6    3    4 1  
     7    3   10 1  
     8    3   13 1  
     9    4    5 1  
    10    4   12 1  
    11    5    6 1  
    12    6   14 1  
    13    8    7 2  
    14    7    9 1  
    15   13   11 1  
    16    3   15 1  
    17    4   16 1  
    18    5   17 1  
    19    6   18 1  
    20    6   19 1  
    21    7   20 1  
    22    8   21 1  
    23   10   22 1  
    24   11   23 1  
    25   12   24 1  
    26   13   25 1  
    27   14   26 1  
@<TRIPOS>SUBSTRUCTURE
     1 MVL         1

