### 
### Created by X-TOOL on Mon Sep 10 21:13:03 2018
### 

@<TRIPOS>MOLECULE
2wzx_ligand
   44    45     1     0     0
SMALL
GAST_HUCK


@<TRIPOS>ATOM
      1 S1          1.5440   10.3330   18.3910 S.o2      1 ZX0        -0.1197
      2 O2          1.4390   10.6630   16.9810 O.co2     1 ZX0        -0.4676
      3 O3          0.8170   11.2230   19.2770 O.co2     1 ZX0        -0.4676
      4 O4          1.2900    8.9240   18.6310 O.co2     1 ZX0        -0.4676
      5 N5          3.2010   10.5340   18.7750 N.am      1 ZX0        -0.2733
      6 C6          3.6880   11.9020   19.0510 C.3       1 ZX0         0.0753
      7 C7          3.5840   12.8210   17.8470 C.3       1 ZX0        -0.0085
      8 C8          4.8330   13.6880   17.9030 C.3       1 ZX0         0.0391
      9 N9          5.7500   12.9350   18.7230 N.am      1 ZX0        -0.2374
     10 C10         5.1640   11.7600   19.2810 C.3       1 ZX0         0.1352
     11 C11         5.5880   10.6090   18.4220 C.2       1 ZX0         0.1263
     12 O12         5.7170   10.5370   17.2020 O.2       1 ZX0        -0.3724
     13 C13         7.1050   13.1330   18.8430 C.2       1 ZX0         0.2626
     14 O14         7.8410   12.2520   19.2660 O.2       1 ZX0        -0.4005
     15 N15         7.5180   14.3820   18.4660 N.am      1 ZX0        -0.2697
     16 C16         8.9240   14.6670   18.3420 C.3       1 ZX0         0.0474
     17 C17         9.1900   14.9820   16.8870 C.3       1 ZX0        -0.0251
     18 C18        10.6540   15.2690   16.6460 C.3       1 ZX0        -0.0105
     19 C19        10.9320   16.7590   16.7380 C.3       1 ZX0        -0.0336
     20 N20        10.8090   17.2620   18.1370 N.4       1 ZX0         0.2270
     21 C21        10.7110   16.2300   19.2050 C.3       1 ZX0        -0.0316
     22 C22         9.2590   15.8100   19.2850 C.3       1 ZX0         0.0102
     23 H           3.8326    9.7339   18.8121 H         1 ZX0         0.1646
     24 H           3.1048   12.3151   19.8740 H         1 ZX0         0.0560
     25 H           2.6745   13.4212   17.8748 H         1 ZX0         0.0305
     26 H           3.5240   12.2595   16.9147 H         1 ZX0         0.0305
     27 H           4.6294   14.6764   18.3149 H         1 ZX0         0.0522
     28 H           5.2384   13.8898   16.9115 H         1 ZX0         0.0522
     29 H           5.4352   11.6200   20.3274 H         1 ZX0         0.0809
     30 H           5.8182    9.6915   18.9636 H         1 ZX0         0.1374
     31 H           6.8305   15.1104   18.2730 H         1 ZX0         0.1848
     32 H           9.5615   13.8286   18.6226 H         1 ZX0         0.0555
     33 H           8.6135   15.8653   16.6122 H         1 ZX0         0.0289
     34 H           8.9023   14.1187   16.2869 H         1 ZX0         0.0289
     35 H          10.9211   14.9220   15.6478 H         1 ZX0         0.0317
     36 H          11.2433   14.7534   17.4043 H         1 ZX0         0.0317
     37 H          10.2012   17.2819   16.1211 H         1 ZX0         0.0814
     38 H          11.9522   16.9381   16.3987 H         1 ZX0         0.0814
     39 H           9.9371   17.7901   18.1725 H         1 ZX0         0.2013
     40 H          11.6640   17.7851   18.3261 H         1 ZX0         0.2013
     41 H          11.0490   16.6313   20.1604 H         1 ZX0         0.0814
     42 H          11.3469   15.3753   18.9741 H         1 ZX0         0.0814
     43 H           9.0652   15.4709   20.3026 H         1 ZX0         0.0339
     44 H           8.6476   16.6667   19.0016 H         1 ZX0         0.0339
@<TRIPOS>BOND
     1    1    2 ar 
     2    1    3 ar 
     3    1    4 ar 
     4    1    5 am 
     5    5    6 1  
     6    6    7 1  
     7    6   10 1  
     8    7    8 1  
     9    8    9 1  
    10    9   10 1  
    11    9   13 am 
    12   10   11 1  
    13   11   12 2  
    14   13   14 2  
    15   13   15 am 
    16   15   16 1  
    17   16   17 1  
    18   16   22 1  
    19   17   18 1  
    20   18   19 1  
    21   19   20 1  
    22   20   21 1  
    23   21   22 1  
    24    5   23 1  
    25    6   24 1  
    26    7   25 1  
    27    7   26 1  
    28    8   27 1  
    29    8   28 1  
    30   10   29 1  
    31   11   30 1  
    32   15   31 1  
    33   16   32 1  
    34   17   33 1  
    35   17   34 1  
    36   18   35 1  
    37   18   36 1  
    38   19   37 1  
    39   19   38 1  
    40   20   39 1  
    41   20   40 1  
    42   21   41 1  
    43   21   42 1  
    44   22   43 1  
    45   22   44 1  
@<TRIPOS>SUBSTRUCTURE
     1 ZX0         1

