### 
### Created by X-TOOL on Mon Sep 10 21:13:02 2018
### 

@<TRIPOS>MOLECULE
2wzy_ligand
  113   119     1     0     0
SMALL
GAST_HUCK


@<TRIPOS>ATOM
      1 O6        -35.4230    6.1550   44.4510 O.2       1 SQX        -0.3700
      2 C5        -34.2720    5.9160   44.1320 C.2       1 SQX         0.2385
      3 O1        -33.9120    4.6890   43.4650 O.3       1 SQX        -0.2655
      4 C2        -32.4900    4.6640   43.3580 C.3       1 SQX         0.1059
      5 C3        -31.9570    5.8360   44.1870 C.3       1 SQX         0.0041
      6 C4        -33.1150    6.8160   44.3510 C.3       1 SQX         0.0613
      7 C7        -33.1970    7.5490   45.6840 C.3       1 SQX        -0.0438
      8 C8        -32.0610    3.3120   43.8620 C.2       1 SQX        -0.0559
      9 C13       -31.4840    2.4130   43.0290 C.2       1 SQX        -0.0876
     10 C14       -31.0390    2.8320   41.6540 C.3       1 SQX        -0.0498
     11 C12       -31.2590    0.9690   43.4230 C.3       1 SQX        -0.0250
     12 C27       -32.0660    0.5360   44.6650 C.3       1 SQX         0.0149
     13 C10       -31.9850    1.6010   45.7510 C.3       1 SQX        -0.0494
     14 C9        -32.3460    3.0150   45.3230 C.3       1 SQX        -0.0395
     15 C15       -31.5910    0.0750   42.2390 C.2       1 SQX        -0.1023
     16 C16       -30.7280   -0.6100   41.4680 C.2       1 SQX        -0.0547
     17 C19       -29.2300   -0.5690   41.6400 C.3       1 SQX        -0.0377
     18 C17       -31.3520   -1.4040   40.3650 C.3       1 SQX         0.0827
     19 O20       -30.5690   -1.2320   39.1870 O.3       1 SQX        -0.3806
     20 C18       -31.4530   -2.8760   40.7260 C.3       1 SQX         0.0083
     21 C21       -32.1510   -3.6620   39.6230 C.3       1 SQX         0.0662
     22 O48       -31.8890   -5.0550   39.8080 O.3       1 SQX        -0.3450
     23 C81       -33.6710   -3.4880   39.6540 C.3       1 SQX        -0.0214
     24 C80       -34.2330   -4.8900   39.4560 C.3       1 SQX         0.0039
     25 C23       -33.1070   -5.7940   39.9430 C.3       1 SQX         0.1739
     26 O44       -33.3180   -6.0990   41.3090 O.3       1 SQX        -0.3145
     27 C55       -32.9880   -7.1610   39.2860 C.3       1 SQX         0.0065
     28 C42       -32.5950   -8.1150   40.4140 C.3       1 SQX         0.0092
     29 C43       -32.6630   -7.2920   41.7080 C.3       1 SQX         0.2021
     30 C51       -33.4380   -7.9840   42.8460 C.3       1 SQX         0.1170
     31 C53       -32.8820   -9.3690   43.1660 C.3       1 SQX        -0.0310
     32 O52       -34.7870   -8.1600   42.4110 O.3       1 SQX        -0.3835
     33 C50       -33.4420   -7.1110   44.1070 C.3       1 SQX        -0.0167
     34 C49       -32.0830   -6.4750   44.4290 C.3       1 SQX        -0.0215
     35 O47       -31.3510   -6.8740   42.1100 O.3       1 SQX        -0.3402
     36 C48       -31.2930   -5.9590   43.2150 C.3       1 SQX         0.0736
     37 C37       -29.8070   -5.8250   43.5680 C.3       1 SQX         0.0085
     38 C36       -29.5570   -4.7790   44.6290 C.2       1 SQX        -0.0708
     39 C38       -28.9150   -5.1220   45.7380 C.2       1 SQX        -0.1289
     40 C35       -30.0540   -3.3750   44.3980 C.3       1 SQX        -0.0155
     41 C34       -29.4740   -2.3930   45.3960 C.3       1 SQX        -0.0257
     42 C33       -29.9120   -0.9700   45.0710 C.3       1 SQX         0.0090
     43 C32       -31.3860   -0.6640   45.3050 C.2       1 SQX         0.0373
     44 N31       -32.0450   -1.4200   46.0920 N.2       1 SQX        -0.2720
     45 C30       -33.4550   -1.3900   46.5270 C.3       1 SQX         0.0464
     46 C29       -34.3190   -1.8920   45.3710 C.3       1 SQX        -0.0222
     47 C6        -34.2510   -3.4170   45.2960 C.3       1 SQX        -0.0605
     48 C46       -33.9390   -1.1940   44.0620 C.3       1 SQX        -0.0438
     49 C22       -35.0570   -1.2520   43.0350 C.3       1 SQX        -0.0626
     50 C28       -33.5390    0.2690   44.2920 C.3       1 SQX        -0.0517
     51 H         -32.1029    4.7866   42.3464 H         1 SQX         0.0753
     52 H         -31.1116    6.3118   43.6900 H         1 SQX         0.0338
     53 H         -31.5957    5.4943   45.1570 H         1 SQX         0.0338
     54 H         -33.0318    7.6619   43.6687 H         1 SQX         0.0553
     55 H         -33.3018    6.8232   46.4904 H         1 SQX         0.0258
     56 H         -32.2878    8.1313   45.8335 H         1 SQX         0.0258
     57 H         -34.0598    8.2150   45.6785 H         1 SQX         0.0258
     58 H         -31.8980    3.1972   41.0911 H         1 SQX         0.0329
     59 H         -30.2956    3.6245   41.7399 H         1 SQX         0.0329
     60 H         -30.6022    1.9767   41.1385 H         1 SQX         0.0329
     61 H         -30.2094    0.8683   43.6993 H         1 SQX         0.0417
     62 H         -30.9438    1.6338   46.0717 H         1 SQX         0.0226
     63 H         -32.7095    1.3169   46.5142 H         1 SQX         0.0226
     64 H         -33.4192    3.1332   45.4728 H         1 SQX         0.0362
     65 H         -31.7362    3.6969   45.9156 H         1 SQX         0.0362
     66 H         -32.6470   -0.0216   41.9867 H         1 SQX         0.0252
     67 H         -28.8790    0.4553   41.5144 H         1 SQX         0.0377
     68 H         -28.9702   -0.9237   42.6374 H         1 SQX         0.0377
     69 H         -28.7620   -1.2091   40.8921 H         1 SQX         0.0377
     70 H         -32.3678   -1.0459   40.1975 H         1 SQX         0.0743
     71 H         -30.5481   -0.3017   38.9510 H         1 SQX         0.2129
     72 H         -32.0325   -2.9719   41.6442 H         1 SQX         0.0337
     73 H         -30.4466   -3.2741   40.8559 H         1 SQX         0.0337
     74 H         -31.7685   -3.2871   38.6736 H         1 SQX         0.0599
     75 H         -34.0148   -2.8021   38.8797 H         1 SQX         0.0292
     76 H         -34.0078   -3.0468   40.5921 H         1 SQX         0.0292
     77 H         -34.5103   -5.0875   38.4205 H         1 SQX         0.0318
     78 H         -35.1632   -5.0491   40.0015 H         1 SQX         0.0318
     79 H         -32.2487   -7.1592   38.4850 H         1 SQX         0.0319
     80 H         -33.9222   -7.4620   38.8120 H         1 SQX         0.0319
     81 H         -31.5959   -8.5214   40.2569 H         1 SQX         0.0320
     82 H         -33.2656   -8.9732   40.4565 H         1 SQX         0.0320
     83 H         -32.9482   -9.9995   42.2793 H         1 SQX         0.0259
     84 H         -31.8398   -9.2789   43.4723 H         1 SQX         0.0259
     85 H         -33.4623   -9.8143   43.9741 H         1 SQX         0.0259
     86 H         -35.1684   -7.3045   42.2006 H         1 SQX         0.2104
     87 H         -33.7047   -7.7554   44.9460 H         1 SQX         0.0295
     88 H         -34.1474   -6.2979   43.9355 H         1 SQX         0.0295
     89 H         -31.4750   -7.2547   44.8878 H         1 SQX         0.0293
     90 H         -32.2858   -5.6093   45.0596 H         1 SQX         0.0293
     91 H         -31.7412   -5.0028   42.9448 H         1 SQX         0.0624
     92 H         -29.2728   -5.5244   42.6667 H         1 SQX         0.0485
     93 H         -29.4651   -6.7850   43.9548 H         1 SQX         0.0485
     94 H         -28.5747   -6.1483   45.8755 H         1 SQX         0.0075
     95 H         -28.7278   -4.3775   46.5118 H         1 SQX         0.0075
     96 H         -31.1380   -3.3752   44.5121 H         1 SQX         0.0462
     97 H         -29.7466   -3.0657   43.3990 H         1 SQX         0.0462
     98 H         -28.3863   -2.4455   45.3496 H         1 SQX         0.0322
     99 H         -29.8313   -2.6520   46.3927 H         1 SQX         0.0322
    100 H         -29.7320   -0.8269   44.0055 H         1 SQX         0.0508
    101 H         -29.3507   -0.3142   45.7366 H         1 SQX         0.0508
    102 H         -33.7431   -0.3743   46.7979 H         1 SQX         0.0510
    103 H         -33.5919   -2.0255   47.4020 H         1 SQX         0.0510
    104 H         -35.3624   -1.6324   45.5501 H         1 SQX         0.0318
    105 H         -33.2182   -3.7259   45.1347 H         1 SQX         0.0233
    106 H         -34.6169   -3.8421   46.2306 H         1 SQX         0.0233
    107 H         -34.8695   -3.7668   44.4695 H         1 SQX         0.0233
    108 H         -33.0801   -1.7399   43.6717 H         1 SQX         0.0296
    109 H         -35.2879   -2.2931   42.8096 H         1 SQX         0.0232
    110 H         -35.9433   -0.7607   43.4365 H         1 SQX         0.0232
    111 H         -34.7391   -0.7437   42.1247 H         1 SQX         0.0232
    112 H         -33.7045    0.7777   43.3423 H         1 SQX         0.0212
    113 H         -34.1300    0.6112   45.1416 H         1 SQX         0.0212
@<TRIPOS>BOND
     1    1    2 2  
     2    2    3 1  
     3    2    6 1  
     4    3    4 1  
     5    4    5 1  
     6    4    8 1  
     7    5    6 1  
     8    6    7 1  
     9    8    9 2  
    10    8   14 1  
    11    9   10 1  
    12    9   11 1  
    13   11   12 1  
    14   11   15 1  
    15   12   13 1  
    16   12   43 1  
    17   12   50 1  
    18   13   14 1  
    19   15   16 2  
    20   16   17 1  
    21   16   18 1  
    22   18   19 1  
    23   18   20 1  
    24   20   21 1  
    25   21   22 1  
    26   21   23 1  
    27   22   25 1  
    28   23   24 1  
    29   24   25 1  
    30   25   26 1  
    31   25   27 1  
    32   26   29 1  
    33   27   28 1  
    34   28   29 1  
    35   29   30 1  
    36   29   35 1  
    37   30   31 1  
    38   30   32 1  
    39   30   33 1  
    40   33   34 1  
    41   34   36 1  
    42   35   36 1  
    43   36   37 1  
    44   37   38 1  
    45   38   39 2  
    46   38   40 1  
    47   40   41 1  
    48   41   42 1  
    49   42   43 1  
    50   43   44 2  
    51   44   45 1  
    52   45   46 1  
    53   46   47 1  
    54   46   48 1  
    55   48   49 1  
    56   48   50 1  
    57    4   51 1  
    58    5   52 1  
    59    5   53 1  
    60    6   54 1  
    61    7   55 1  
    62    7   56 1  
    63    7   57 1  
    64   10   58 1  
    65   10   59 1  
    66   10   60 1  
    67   11   61 1  
    68   13   62 1  
    69   13   63 1  
    70   14   64 1  
    71   14   65 1  
    72   15   66 1  
    73   17   67 1  
    74   17   68 1  
    75   17   69 1  
    76   18   70 1  
    77   19   71 1  
    78   20   72 1  
    79   20   73 1  
    80   21   74 1  
    81   23   75 1  
    82   23   76 1  
    83   24   77 1  
    84   24   78 1  
    85   27   79 1  
    86   27   80 1  
    87   28   81 1  
    88   28   82 1  
    89   31   83 1  
    90   31   84 1  
    91   31   85 1  
    92   32   86 1  
    93   33   87 1  
    94   33   88 1  
    95   34   89 1  
    96   34   90 1  
    97   36   91 1  
    98   37   92 1  
    99   37   93 1  
   100   39   94 1  
   101   39   95 1  
   102   40   96 1  
   103   40   97 1  
   104   41   98 1  
   105   41   99 1  
   106   42  100 1  
   107   42  101 1  
   108   45  102 1  
   109   45  103 1  
   110   46  104 1  
   111   47  105 1  
   112   47  106 1  
   113   47  107 1  
   114   48  108 1  
   115   49  109 1  
   116   49  110 1  
   117   49  111 1  
   118   50  112 1  
   119   50  113 1  
@<TRIPOS>SUBSTRUCTURE
     1 SQX         1

