### 
### Created by X-TOOL on Mon Sep 10 21:13:02 2018
### 

@<TRIPOS>MOLECULE
2wzz_ligand
   44    45     1     0     0
SMALL
GAST_HUCK


@<TRIPOS>ATOM
      1 S1          1.5880   10.3640   18.4360 S.o2      1 ZX1        -0.1197
      2 O2          1.5560   10.6450   17.0140 O.co2     1 ZX1        -0.4676
      3 O3          0.8620   11.3130   19.2630 O.co2     1 ZX1        -0.4676
      4 O4          1.3150    8.9720   18.7560 O.co2     1 ZX1        -0.4676
      5 N5          3.2260   10.5980   18.8580 N.am      1 ZX1        -0.2733
      6 C6          3.6870   11.9850   19.0960 C.3       1 ZX1         0.0753
      7 C7          3.5670   12.9030   17.8920 C.3       1 ZX1        -0.0085
      8 C8          4.7940   13.8020   17.9480 C.3       1 ZX1         0.0391
      9 N9          5.7340   13.0670   18.7610 N.am      1 ZX1        -0.2374
     10 C10         5.1640   11.8880   19.3320 C.3       1 ZX1         0.1352
     11 C11         5.6420   10.7470   18.4870 C.2       1 ZX1         0.1263
     12 O12         5.7090   10.6310   17.2650 O.2       1 ZX1        -0.3724
     13 C13         7.0810   13.3490   18.9080 C.2       1 ZX1         0.2626
     14 O14         7.8710   12.5290   19.3640 O.2       1 ZX1        -0.4005
     15 N15         7.4480   14.6140   18.5170 N.am      1 ZX1        -0.2697
     16 C16         8.8310   15.0070   18.6520 C.3       1 ZX1         0.0474
     17 C17         8.9030   16.1480   19.6510 C.3       1 ZX1        -0.0251
     18 C18        10.3160   16.3560   20.1500 C.3       1 ZX1        -0.0105
     19 C19        11.0640   17.3930   19.3340 C.3       1 ZX1        -0.0336
     20 N20        10.9100   17.1790   17.8650 N.4       1 ZX1         0.2270
     21 C21        10.8700   15.7690   17.3910 C.3       1 ZX1        -0.0316
     22 C22         9.4050   15.3770   17.2960 C.3       1 ZX1         0.0102
     23 H           3.8659    9.8083   18.9433 H         1 ZX1         0.1646
     24 H           3.0809   12.3893   19.9067 H         1 ZX1         0.0560
     25 H           2.6440   13.4821   17.9196 H         1 ZX1         0.0305
     26 H           3.5253   12.3390   16.9602 H         1 ZX1         0.0305
     27 H           4.5669   14.7827   18.3662 H         1 ZX1         0.0522
     28 H           5.1901   14.0200   16.9562 H         1 ZX1         0.0522
     29 H           5.4153   11.7674   20.3858 H         1 ZX1         0.0809
     30 H           5.9866    9.8778   19.0472 H         1 ZX1         0.1374
     31 H           6.7574   15.2625   18.1389 H         1 ZX1         0.1848
     32 H           9.4378   14.1826   19.0266 H         1 ZX1         0.0555
     33 H           8.2676   15.9035   20.5023 H         1 ZX1         0.0289
     34 H           8.5720   17.0618   19.1574 H         1 ZX1         0.0289
     35 H          10.8487   15.4088   20.0656 H         1 ZX1         0.0317
     36 H          10.2638   16.7079   21.1803 H         1 ZX1         0.0317
     37 H          12.1235   17.3140   19.5774 H         1 ZX1         0.0814
     38 H          10.6545   18.3735   19.5771 H         1 ZX1         0.0814
     39 H          11.7354   17.5954   17.4340 H         1 ZX1         0.2013
     40 H          10.0068   17.5829   17.6170 H         1 ZX1         0.2013
     41 H          11.4018   15.1138   18.0809 H         1 ZX1         0.0814
     42 H          11.3598   15.6726   16.4220 H         1 ZX1         0.0814
     43 H           8.8468   16.2294   16.9088 H         1 ZX1         0.0339
     44 H           9.3244   14.5091   16.6416 H         1 ZX1         0.0339
@<TRIPOS>BOND
     1    1    2 ar 
     2    1    3 ar 
     3    1    4 ar 
     4    1    5 am 
     5    5    6 1  
     6    6    7 1  
     7    6   10 1  
     8    7    8 1  
     9    8    9 1  
    10    9   10 1  
    11    9   13 am 
    12   10   11 1  
    13   11   12 2  
    14   13   14 2  
    15   13   15 am 
    16   15   16 1  
    17   16   17 1  
    18   16   22 1  
    19   17   18 1  
    20   18   19 1  
    21   19   20 1  
    22   20   21 1  
    23   21   22 1  
    24    5   23 1  
    25    6   24 1  
    26    7   25 1  
    27    7   26 1  
    28    8   27 1  
    29    8   28 1  
    30   10   29 1  
    31   11   30 1  
    32   15   31 1  
    33   16   32 1  
    34   17   33 1  
    35   17   34 1  
    36   18   35 1  
    37   18   36 1  
    38   19   37 1  
    39   19   38 1  
    40   20   39 1  
    41   20   40 1  
    42   21   41 1  
    43   21   42 1  
    44   22   43 1  
    45   22   44 1  
@<TRIPOS>SUBSTRUCTURE
     1 ZX1         1

