### 
### Created by X-TOOL on Mon Sep 10 21:13:02 2018
### 

@<TRIPOS>MOLECULE
2x09_ligand
   31    32     1     0     0
SMALL
GAST_HUCK


@<TRIPOS>ATOM
      1 OAC        48.8940   41.8300   74.1300 O.3       1 X09        -0.3832
      2 CAI        49.0490   41.8200   72.7020 C.3       1 X09         0.1336
      3 CAJ        49.6870   43.0950   72.1610 C.3       1 X09         0.1312
      4 OAD        48.8250   44.2140   72.2750 O.3       1 X09        -0.3833
      5 CAL        49.7900   42.6640   70.6810 C.3       1 X09         0.0355
      6 CAH        50.8100   43.4110   69.7920 C.3       1 X09         0.1050
      7 OAB        51.7910   44.1020   70.5730 O.3       1 X09        -0.3859
      8 CAF        51.4760   42.2690   69.0480 C.3       1 X09         0.0189
      9 CAG        51.6060   41.2390   70.1670 C.3       1 X09        -0.0283
     10 NAM        50.2700   41.2520   70.7650 N.4       1 X09         0.2490
     11 CAK        50.2020   40.9020   72.2150 C.3       1 X09         0.0494
     12 CAE        49.9310   39.4130   72.3150 C.3       1 X09         0.0112
     13 NAA        49.3620   39.0310   73.5960 N.4       1 X09         0.2226
     14 H1         48.4936   41.0152   74.4097 H         1 X09         0.2102
     15 H2         48.0830   41.5861   72.2307 H         1 X09         0.0680
     16 H3         50.6624   43.3123   72.6207 H         1 X09         0.0679
     17 H4         49.2598   44.9840   71.9278 H         1 X09         0.2102
     18 H5         48.7967   42.7287   70.2128 H         1 X09         0.0904
     19 H6         50.3101   44.1126   69.1080 H         1 X09         0.0653
     20 H7         51.3592   44.7380   71.1312 H         1 X09         0.2100
     21 H8         52.4591   42.5625   68.6513 H         1 X09         0.0344
     22 H9         50.8452   41.8978   68.2269 H         1 X09         0.0344
     23 H10        52.3715   41.5398   70.8974 H         1 X09         0.0815
     24 H11        51.8524   40.2449   69.7658 H         1 X09         0.0815
     25 H12        49.6705   40.6307   70.2447 H         1 X09         0.2044
     26 H13        51.1361   41.1402   72.7447 H         1 X09         0.0932
     27 H14        50.8790   38.8727   72.1760 H         1 X09         0.0870
     28 H15        49.2271   39.1292   71.5188 H         1 X09         0.0870
     29 H16        49.2022   38.0358   73.6093 H         1 X09         0.1996
     30 H17        48.4876   39.5135   73.7326 H         1 X09         0.1996
     31 H18        50.0014   39.2785   74.3349 H         1 X09         0.1996
@<TRIPOS>BOND
     1    1    2 1  
     2    2    3 1  
     3    2   11 1  
     4    3    4 1  
     5    3    5 1  
     6    5    6 1  
     7    5   10 1  
     8    6    7 1  
     9    6    8 1  
    10    8    9 1  
    11    9   10 1  
    12   10   11 1  
    13   11   12 1  
    14   12   13 1  
    15    1   14 1  
    16    2   15 1  
    17    3   16 1  
    18    4   17 1  
    19    5   18 1  
    20    6   19 1  
    21    7   20 1  
    22    8   21 1  
    23    8   22 1  
    24    9   23 1  
    25    9   24 1  
    26   10   25 1  
    27   11   26 1  
    28   12   27 1  
    29   12   28 1  
    30   13   29 1  
    31   13   30 1  
    32   13   31 1  
@<TRIPOS>SUBSTRUCTURE
     1 X09         1

