### 
### Created by X-TOOL on Mon Sep 10 21:13:03 2018
### 

@<TRIPOS>MOLECULE
2x0y_ligand
   32    33     1     0     0
SMALL
GAST_HUCK


@<TRIPOS>ATOM
      1 CAB        35.6110   47.2310   22.1750 C.3       1 X0T         0.0446
      2 N3         35.2800   45.7690   22.2350 N.am      1 X0T        -0.2025
      3 C2         36.2860   44.8090   22.1740 C.2       1 X0T         0.3177
      4 O2         37.4510   45.2020   22.0710 O.2       1 X0T        -0.3873
      5 N1         35.9690   43.4200   22.2160 N.am      1 X0T        -0.1740
      6 CAA        37.0540   42.4090   22.1670 C.3       1 X0T         0.0477
      7 C6         34.6280   43.0120   22.3280 C.2       1 X0T         0.2297
      8 O6         34.3300   41.8080   22.3740 O.2       1 X0T        -0.4007
      9 C5         33.6310   43.9970   22.3900 C.2       1 X0T         0.1627
     10 C4         33.9440   45.3540   22.3460 C.2       1 X0T         0.1377
     11 N9         32.8030   46.0490   22.4350 N.2       1 X0T        -0.2858
     12 C8         31.7940   45.1740   22.5430 C.2       1 X0T         0.0978
     13 N7         32.3080   43.9460   22.5120 N.pl3     1 X0T        -0.2487
     14 CAI        31.5640   42.6810   22.5950 C.3       1 X0T         0.0817
     15 CAO        30.0650   42.8360   22.6760 C.3       1 X0T         0.1052
     16 OAF        29.7180   43.4200   23.9320 O.3       1 X0T        -0.3868
     17 CAH        29.4630   41.4380   22.5790 C.3       1 X0T         0.0728
     18 OAE        28.1560   41.5710   22.0600 O.3       1 X0T        -0.3924
     19 H1         36.7004   47.3571   22.0896 H         1 X0T         0.0548
     20 H2         35.2554   47.7254   23.0911 H         1 X0T         0.0548
     21 H3         35.1200   47.6826   21.3004 H         1 X0T         0.0548
     22 H4         38.0254   42.9176   22.0793 H         1 X0T         0.0539
     23 H5         36.9042   41.7522   21.2974 H         1 X0T         0.0539
     24 H6         37.0368   41.8078   23.0880 H         1 X0T         0.0539
     25 H7         30.7383   45.4235   22.6393 H         1 X0T         0.1263
     26 H8         31.9019   42.1428   23.4929 H         1 X0T         0.0638
     27 H9         31.7992   42.0857   21.7004 H         1 X0T         0.0638
     28 H10        29.6991   43.4687   21.8539 H         1 X0T         0.0644
     29 H11        28.7746   43.5182   23.9844 H         1 X0T         0.2100
     30 H12        29.4252   40.9758   23.5765 H         1 X0T         0.0584
     31 H13        30.0712   40.8134   21.9082 H         1 X0T         0.0584
     32 H14        27.6390   42.1151   22.6425 H         1 X0T         0.2095
@<TRIPOS>BOND
     1    1    2 1  
     2    2    3 am 
     3    2   10 1  
     4    3    4 2  
     5    3    5 am 
     6    5    6 1  
     7    5    7 am 
     8    7    8 2  
     9    7    9 1  
    10    9   10 2  
    11    9   13 1  
    12   10   11 1  
    13   11   12 2  
    14   12   13 1  
    15   13   14 1  
    16   14   15 1  
    17   15   16 1  
    18   15   17 1  
    19   17   18 1  
    20    1   19 1  
    21    1   20 1  
    22    1   21 1  
    23    6   22 1  
    24    6   23 1  
    25    6   24 1  
    26   12   25 1  
    27   14   26 1  
    28   14   27 1  
    29   15   28 1  
    30   16   29 1  
    31   17   30 1  
    32   17   31 1  
    33   18   32 1  
@<TRIPOS>SUBSTRUCTURE
     1 X0T         1

