### 
### Created by X-TOOL on Mon Sep 10 21:13:08 2018
### 

@<TRIPOS>MOLECULE
2x24_ligand
   76    79     1     0     0
SMALL
GAST_HUCK


@<TRIPOS>ATOM
      1 C1          3.8420   20.6240   41.0310 C.3       1 X24        -0.0320
      2 C2          4.6080   20.8640   42.3340 C.3       1 X24         0.0905
      3 C3          3.9380   22.0270   43.0770 C.3       1 X24        -0.0320
      4 C4          4.5250   19.5990   43.1870 C.3       1 X24        -0.0320
      5 O5          6.0200   21.0720   42.0460 O.3       1 X24        -0.2581
      6 C6          6.8480   22.0010   42.5930 C.2       1 X24         0.3200
      7 O7          6.8030   22.3250   43.7690 O.2       1 X24        -0.3775
      8 N8          7.7770   22.5630   41.7900 N.am      1 X24        -0.2623
      9 C9          7.8850   22.1230   40.3880 C.3       1 X24         0.0356
     10 C10         7.8500   23.2710   39.3830 C.3       1 X24        -0.0208
     11 C11         6.5150   24.0390   39.4130 C.3       1 X24        -0.0481
     12 C12         6.4720   25.0100   38.2270 C.3       1 X24        -0.0481
     13 C13         7.7260   25.9090   38.2080 C.3       1 X24        -0.0208
     14 C14         7.6900   26.7980   36.9700 C.3       1 X24         0.0334
     15 N15         6.8650   27.9380   37.3730 N.am      1 X24        -0.2842
     16 C16         6.2420   28.7640   36.5120 C.2       1 X24         0.2157
     17 O17         6.4120   28.7080   35.3070 O.2       1 X24        -0.3790
     18 C18         5.4610   29.8480   37.1270 C.ar      1 X24         0.0747
     19 C19         6.2100   30.8570   37.6780 C.ar      1 X24        -0.0067
     20 C20         5.6190   31.9530   38.3150 C.ar      1 X24         0.0532
     21 N21         4.3000   32.0320   38.4490 N.ar      1 X24        -0.2895
     22 C22         3.4900   31.0610   37.9650 C.ar      1 X24         0.0474
     23 C23         2.0790   31.1450   38.1130 C.ar      1 X24        -0.0393
     24 C24         1.2700   30.1540   37.6030 C.ar      1 X24        -0.0560
     25 C25         1.8130   29.0470   36.9300 C.ar      1 X24        -0.0560
     26 C26         3.1770   28.9150   36.7750 C.ar      1 X24        -0.0452
     27 C27         4.0440   29.9150   37.2840 C.ar      1 X24         0.0221
     28 C28         6.6000   32.9440   38.8090 C.ar      1 X24        -0.0029
     29 C29         7.8960   32.4640   39.0700 C.ar      1 X24        -0.0549
     30 C30         8.8930   33.3110   39.5070 C.ar      1 X24        -0.0509
     31 C31         8.6260   34.6670   39.6350 C.ar      1 X24         0.0050
     32 C32         9.7320   35.5840   40.0910 C.3       1 X24         0.0001
     33 N33        10.9730   35.2590   39.3730 N.4       1 X24         0.2315
     34 C34         7.3390   35.1600   39.3690 C.ar      1 X24        -0.0509
     35 C35         6.3230   34.3090   38.9380 C.ar      1 X24        -0.0549
     36 C36         9.0810   25.1650   38.3230 C.3       1 X24        -0.0481
     37 C37         9.0720   24.2030   39.5270 C.3       1 X24        -0.0481
     38 H1          2.7766   20.4677   41.2555 H         1 X24         0.0260
     39 H2          4.2451   19.7330   40.5274 H         1 X24         0.0260
     40 H3          3.9536   21.4988   40.3736 H         1 X24         0.0260
     41 H4          4.4734   22.2174   44.0188 H         1 X24         0.0260
     42 H5          2.8916   21.7680   43.2960 H         1 X24         0.0260
     43 H6          3.9686   22.9296   42.4490 H         1 X24         0.0260
     44 H7          5.0055   18.7653   42.6541 H         1 X24         0.0260
     45 H8          3.4697   19.3533   43.3768 H         1 X24         0.0260
     46 H9          5.0401   19.7677   44.1442 H         1 X24         0.0260
     47 H10         8.3867   23.2721   42.1441 H         1 X24         0.1867
     48 H11         7.0465   21.4450   40.1707 H         1 X24         0.0522
     49 H12         8.8351   21.5824   40.2654 H         1 X24         0.0522
     50 H13         7.9224   22.8142   38.3850 H         1 X24         0.0320
     51 H14         6.4346   24.6025   40.3543 H         1 X24         0.0269
     52 H15         5.6787   23.3283   39.3385 H         1 X24         0.0269
     53 H16         5.5762   25.6427   38.3114 H         1 X24         0.0269
     54 H17         6.4272   24.4340   37.2909 H         1 X24         0.0269
     55 H18         7.6577   26.5645   39.0887 H         1 X24         0.0320
     56 H19         7.2345   26.2671   36.1211 H         1 X24         0.0522
     57 H20         8.7032   27.1269   36.6958 H         1 X24         0.0522
     58 H21         6.7573   28.1146   38.3514 H         1 X24         0.1847
     59 H22         7.2910   30.8032   37.6179 H         1 X24         0.0760
     60 H23         1.6386   31.9909   38.6284 H         1 X24         0.0643
     61 H24         0.1953   30.2296   37.7230 H         1 X24         0.0650
     62 H25         1.1522   28.2876   36.5278 H         1 X24         0.0643
     63 H26         3.5851   28.0495   36.2656 H         1 X24         0.0649
     64 H27         8.1147   31.4122   38.9255 H         1 X24         0.0634
     65 H28         9.8754   32.9215   39.7481 H         1 X24         0.0570
     66 H29         9.8908   35.4560   41.1719 H         1 X24         0.0988
     67 H30         9.4515   36.6270   39.8826 H         1 X24         0.0988
     68 H31        11.7100   35.8741   39.6805 H         1 X24         0.2009
     69 H32        10.8287   35.3766   38.3823 H         1 X24         0.2009
     70 H33        11.2313   34.3035   39.5639 H         1 X24         0.2009
     71 H34         7.1327   36.2160   39.5005 H         1 X24         0.0570
     72 H35         5.3375   34.6972   38.7073 H         1 X24         0.0634
     73 H36         9.8875   25.9013   38.4548 H         1 X24         0.0269
     74 H37         9.2567   24.5896   37.4021 H         1 X24         0.0269
     75 H38         9.9968   23.6075   39.5360 H         1 X24         0.0269
     76 H39         8.9960   24.7765   40.4626 H         1 X24         0.0269
@<TRIPOS>BOND
     1    1    2 1  
     2    2    3 1  
     3    2    4 1  
     4    2    5 1  
     5    5    6 1  
     6    6    7 2  
     7    6    8 am 
     8    8    9 1  
     9    9   10 1  
    10   10   11 1  
    11   10   37 1  
    12   11   12 1  
    13   12   13 1  
    14   13   14 1  
    15   13   36 1  
    16   14   15 1  
    17   15   16 am 
    18   16   17 2  
    19   16   18 1  
    20   18   19 ar 
    21   18   27 ar 
    22   19   20 ar 
    23   20   21 ar 
    24   20   28 1  
    25   21   22 ar 
    26   22   23 ar 
    27   22   27 ar 
    28   23   24 ar 
    29   24   25 ar 
    30   25   26 ar 
    31   26   27 ar 
    32   28   29 ar 
    33   28   35 ar 
    34   29   30 ar 
    35   30   31 ar 
    36   31   32 1  
    37   31   34 ar 
    38   32   33 1  
    39   34   35 ar 
    40   36   37 1  
    41    1   38 1  
    42    1   39 1  
    43    1   40 1  
    44    3   41 1  
    45    3   42 1  
    46    3   43 1  
    47    4   44 1  
    48    4   45 1  
    49    4   46 1  
    50    8   47 1  
    51    9   48 1  
    52    9   49 1  
    53   10   50 1  
    54   11   51 1  
    55   11   52 1  
    56   12   53 1  
    57   12   54 1  
    58   13   55 1  
    59   14   56 1  
    60   14   57 1  
    61   15   58 1  
    62   19   59 1  
    63   23   60 1  
    64   24   61 1  
    65   25   62 1  
    66   26   63 1  
    67   29   64 1  
    68   30   65 1  
    69   32   66 1  
    70   32   67 1  
    71   33   68 1  
    72   33   69 1  
    73   33   70 1  
    74   34   71 1  
    75   35   72 1  
    76   36   73 1  
    77   36   74 1  
    78   37   75 1  
    79   37   76 1  
@<TRIPOS>SUBSTRUCTURE
     1 X24         1

