### 
### Created by X-TOOL on Mon Sep 10 21:13:08 2018
### 

@<TRIPOS>MOLECULE
2x2i_ligand
   88    91     1     0     0
SMALL
GAST_HUCK


@<TRIPOS>ATOM
      1 C1A        24.9240    1.6930   65.9570 C.3       1 QPS         0.0141
      2 C2A        25.9790    0.5910   65.9420 C.3       1 QPS         0.1303
      3 C3A        26.0680   -0.1140   64.6020 C.3       1 QPS         0.1215
      4 C4A        24.7240   -0.7420   64.2270 C.3       1 QPS         0.1112
      5 C5A        23.5460    0.1240   64.5520 C.2       1 QPS        -0.0200
      6 C6A        22.2020   -0.2470   63.9790 C.3       1 QPS         0.0719
      7 C7A        23.6390    1.2110   65.3250 C.2       1 QPS        -0.0543
      8 O2A        27.2630    1.0790   66.3560 O.3       1 QPS        -0.3821
      9 O3A        26.9730   -1.1900   64.8180 O.3       1 QPS        -0.3843
     10 O4A        24.6960   -1.0010   62.8270 O.3       1 QPS        -0.3780
     11 O6A        21.5800   -1.2120   64.8300 O.3       1 QPS        -0.3839
     12 C1B        23.1740    6.5900   65.4520 C.3       1 QPS         0.1886
     13 C2B        23.5940    5.9140   66.7620 C.3       1 QPS         0.1370
     14 C3B        24.7910    5.0060   66.5300 C.3       1 QPS         0.1304
     15 C4B        24.3750    4.0010   65.4740 C.3       1 QPS         0.0341
     16 C5B        23.9670    4.7360   64.1960 C.3       1 QPS         0.1038
     17 C6B        23.5730    3.8080   63.0670 C.3       1 QPS        -0.0332
     18 N4B        25.3570    2.9330   65.3450 N.4       1 QPS         0.2433
     19 O2B        23.9210    6.8600   67.7800 O.3       1 QPS        -0.3840
     20 O3B        25.1050    4.3240   67.7390 O.3       1 QPS        -0.3834
     21 O5B        22.8350    5.5430   64.5380 O.3       1 QPS        -0.3401
     22 C1C        24.5080   11.3120   63.2590 C.3       1 QPS         0.1884
     23 C2C        24.5190   11.1600   64.7660 C.3       1 QPS         0.1341
     24 C3C        24.8270    9.7260   65.1980 C.3       1 QPS         0.1144
     25 C4C        23.9010    8.7390   64.4990 C.3       1 QPS         0.1184
     26 C5C        23.9670    8.9930   62.9840 C.3       1 QPS         0.1134
     27 C6C        23.0670    8.0570   62.1720 C.3       1 QPS         0.0730
     28 O2C        25.5420   12.0240   65.2540 O.3       1 QPS        -0.3841
     29 O3C        24.6620    9.5680   66.6130 O.3       1 QPS        -0.3864
     30 O4C        24.2480    7.3910   64.8980 O.3       1 QPS        -0.3401
     31 O5C        23.6270   10.3590   62.6890 O.3       1 QPS        -0.3405
     32 O6C        23.4160    8.1940   60.7850 O.3       1 QPS        -0.3924
     33 C1D        28.7270   12.9720   60.6790 C.3       1 QPS         0.1854
     34 C2D        27.8880   13.9550   61.4810 C.3       1 QPS         0.1339
     35 C3D        27.0650   13.1460   62.4860 C.3       1 QPS         0.1144
     36 C4D        26.3100   11.9860   61.8240 C.3       1 QPS         0.1184
     37 C5D        27.2640   11.2300   60.9040 C.3       1 QPS         0.1134
     38 C6D        26.6490   10.0630   60.1490 C.3       1 QPS         0.0730
     39 O1D        29.6640   13.6030   59.7870 O.3       1 QPS        -0.3649
     40 O2D        28.7500   14.8770   62.1570 O.3       1 QPS        -0.3841
     41 O3D        26.1490   13.9960   63.1780 O.3       1 QPS        -0.3864
     42 O4D        25.8340   11.0620   62.8090 O.3       1 QPS        -0.3401
     43 O5D        27.7960   12.1550   59.9730 O.3       1 QPS        -0.3407
     44 O6D        27.6550    9.4970   59.2820 O.3       1 QPS        -0.3924
     45 H1         24.7108    1.9156   67.0129 H         1 QPS         0.0950
     46 H2         25.6647   -0.1614   66.6803 H         1 QPS         0.0694
     47 H3         26.4162    0.5693   63.8134 H         1 QPS         0.0671
     48 H4         24.6230   -1.6901   64.7756 H         1 QPS         0.0769
     49 H5         22.3354   -0.6740   62.9741 H         1 QPS         0.0706
     50 H6         21.5686    0.6501   63.9152 H         1 QPS         0.0706
     51 H7         22.7321    1.7846   65.5106 H         1 QPS         0.0299
     52 H8         27.5902    1.6939   65.7100 H         1 QPS         0.2103
     53 H9         27.8251   -0.8430   65.0545 H         1 QPS         0.2102
     54 H10        23.8865   -1.4456   62.6045 H         1 QPS         0.2130
     55 H11        21.4666   -0.8414   65.6973 H         1 QPS         0.2125
     56 H12        22.2998    7.2333   65.6305 H         1 QPS         0.0938
     57 H13        22.7506    5.3028   67.1157 H         1 QPS         0.0672
     58 H14        25.6595    5.5886   66.1889 H         1 QPS         0.0679
     59 H15        23.4601    3.5128   65.8409 H         1 QPS         0.0903
     60 H16        24.8003    5.3707   63.8603 H         1 QPS         0.0652
     61 H17        23.2932    4.4023   62.1847 H         1 QPS         0.0257
     62 H18        22.7174    3.1918   63.3804 H         1 QPS         0.0257
     63 H19        24.4221    3.1556   62.8153 H         1 QPS         0.0257
     64 H20        25.5247    2.7668   64.3651 H         1 QPS         0.2029
     65 H21        26.2134    3.2282   65.7872 H         1 QPS         0.2029
     66 H22        24.1350    6.3987   68.5825 H         1 QPS         0.2101
     67 H23        25.3654    4.9556   68.3992 H         1 QPS         0.2102
     68 H24        24.1924   12.3277   62.9784 H         1 QPS         0.0938
     69 H25        23.5421   11.4578   65.1747 H         1 QPS         0.0671
     70 H26        25.8685    9.4955   64.9294 H         1 QPS         0.0648
     71 H27        22.8681    8.9281   64.8267 H         1 QPS         0.0651
     72 H28        25.0051    8.8192   62.6643 H         1 QPS         0.0647
     73 H29        22.0124    8.3326   62.3200 H         1 QPS         0.0584
     74 H30        23.2230    7.0170   62.4947 H         1 QPS         0.0584
     75 H31        25.3548   12.9165   64.9879 H         1 QPS         0.2101
     76 H32        24.8859    8.6782   66.8594 H         1 QPS         0.2100
     77 H33        22.8674    7.6200   60.2634 H         1 QPS         0.2095
     78 H34        29.3017   12.3453   61.3768 H         1 QPS         0.0935
     79 H35        27.2150   14.5096   60.8106 H         1 QPS         0.0671
     80 H36        27.7609   12.7181   63.2226 H         1 QPS         0.0648
     81 H37        25.4623   12.3827   61.2460 H         1 QPS         0.0651
     82 H38        28.0822   10.8317   61.5219 H         1 QPS         0.0647
     83 H39        25.7981   10.4168   59.5484 H         1 QPS         0.0584
     84 H40        26.3026    9.3007   60.8624 H         1 QPS         0.0584
     85 H41        30.2672   14.1378   60.2897 H         1 QPS         0.2126
     86 H42        29.2510   15.3682   61.5166 H         1 QPS         0.2101
     87 H43        25.6974   13.4950   63.8469 H         1 QPS         0.2100
     88 H44        27.9526   10.1594   58.6695 H         1 QPS         0.2095
@<TRIPOS>BOND
     1    1    2 1  
     2    1    7 1  
     3   18    1 1  
     4    2    3 1  
     5    2    8 1  
     6    3    4 1  
     7    3    9 1  
     8    5    4 1  
     9    4   10 1  
    10    5    6 1  
    11    7    5 2  
    12    6   11 1  
    13   12   13 1  
    14   12   21 1  
    15   30   12 1  
    16   13   14 1  
    17   13   19 1  
    18   14   15 1  
    19   14   20 1  
    20   16   15 1  
    21   15   18 1  
    22   16   17 1  
    23   21   16 1  
    24   22   23 1  
    25   22   31 1  
    26   42   22 1  
    27   23   24 1  
    28   23   28 1  
    29   24   25 1  
    30   24   29 1  
    31   26   25 1  
    32   25   30 1  
    33   26   27 1  
    34   31   26 1  
    35   27   32 1  
    36   34   33 1  
    37   33   39 1  
    38   33   43 1  
    39   35   34 1  
    40   34   40 1  
    41   36   35 1  
    42   35   41 1  
    43   36   37 1  
    44   36   42 1  
    45   37   38 1  
    46   37   43 1  
    47   38   44 1  
    48    1   45 1  
    49    2   46 1  
    50    3   47 1  
    51    4   48 1  
    52    6   49 1  
    53    6   50 1  
    54    7   51 1  
    55    8   52 1  
    56    9   53 1  
    57   10   54 1  
    58   11   55 1  
    59   12   56 1  
    60   13   57 1  
    61   14   58 1  
    62   15   59 1  
    63   16   60 1  
    64   17   61 1  
    65   17   62 1  
    66   17   63 1  
    67   18   64 1  
    68   18   65 1  
    69   19   66 1  
    70   20   67 1  
    71   22   68 1  
    72   23   69 1  
    73   24   70 1  
    74   25   71 1  
    75   26   72 1  
    76   27   73 1  
    77   27   74 1  
    78   28   75 1  
    79   29   76 1  
    80   32   77 1  
    81   33   78 1  
    82   34   79 1  
    83   35   80 1  
    84   36   81 1  
    85   37   82 1  
    86   38   83 1  
    87   38   84 1  
    88   39   85 1  
    89   40   86 1  
    90   41   87 1  
    91   44   88 1  
@<TRIPOS>SUBSTRUCTURE
     1 QPS         1

