### 
### Created by X-TOOL on Mon Sep 10 21:13:03 2018
### 

@<TRIPOS>MOLECULE
2x2k_ligand
   34    36     1     0     0
SMALL
GAST_HUCK


@<TRIPOS>ATOM
      1 CAB        -7.9550   10.6140   10.7070 C.3       1 X2K        -0.0410
      2 CAN        -9.3340   11.1530   11.2050 C.2       1 X2K        -0.0481
      3 CAH        -9.5600   12.4320   11.5350 C.2       1 X2K        -0.0567
      4 CAL       -10.8510   12.4830   11.9000 C.2       1 X2K         0.0461
      5 CAA       -11.5500   13.7780   12.3660 C.3       1 X2K        -0.0032
      6 NAJ       -11.4450   11.2750   11.8050 N.pl3     1 X2K        -0.2781
      7 CAO       -10.5230   10.4010   11.3670 C.2       1 X2K         0.0587
      8 CAE       -10.5470    9.0240   11.0560 C.2       1 X2K        -0.0357
      9 CAQ       -11.6100    8.1100   11.1920 C.2       1 X2K         0.0266
     10 CAS       -11.5590    6.7460   10.8190 C.ar      1 X2K        -0.0213
     11 CAI       -10.5820    5.8950   10.2480 C.ar      1 X2K        -0.0599
     12 CAM       -10.8990    4.5230   10.0220 C.ar      1 X2K         0.0137
     13 NAC       -10.0160    3.6230    9.4830 N.pl3     1 X2K        -0.3461
     14 CAF       -12.1770    4.0350   10.3460 C.ar      1 X2K        -0.0625
     15 CAG       -13.1300    4.8780   10.9040 C.ar      1 X2K        -0.0567
     16 CAR       -12.8440    6.2290   11.1470 C.ar      1 X2K         0.0525
     17 NAK       -13.6150    7.2060   11.6800 N.am      1 X2K        -0.2488
     18 CAP       -12.9000    8.3410   11.7170 C.2       1 X2K         0.2017
     19 OAD       -13.3370    9.4080   12.1600 O.2       1 X2K        -0.3928
     20 H          -7.6055    9.8339   11.3834 H         1 X2K         0.0366
     21 H          -8.0678   10.2031    9.7038 H         1 X2K         0.0366
     22 H          -7.2328   11.4302   10.6876 H         1 X2K         0.0366
     23 H          -8.8470   13.2561   11.5120 H         1 X2K         0.0251
     24 H         -11.0446   14.1638   13.2514 H         1 X2K         0.0448
     25 H         -11.5062   14.5201   11.5688 H         1 X2K         0.0448
     26 H         -12.5910   13.5614   12.6057 H         1 X2K         0.0448
     27 H         -12.4181   11.0635   12.0258 H         1 X2K         0.2280
     28 H          -9.6192    8.6135   10.6575 H         1 X2K         0.0689
     29 H          -9.5986    6.2841    9.9841 H         1 X2K         0.0412
     30 H         -10.3007    2.6546    9.3362 H         1 X2K         0.1673
     31 H          -9.0745    3.9219    9.2289 H         1 X2K         0.1673
     32 H         -12.4215    2.9895   10.1584 H         1 X2K         0.0439
     33 H         -14.1142    4.4835   11.1565 H         1 X2K         0.0460
     34 H         -14.5775    7.0976   11.9997 H         1 X2K         0.2197
@<TRIPOS>BOND
     1    1    2 1  
     2    2    3 1  
     3    2    7 2  
     4    3    4 2  
     5    4    5 1  
     6    4    6 1  
     7    6    7 1  
     8    7    8 1  
     9    8    9 2  
    10    9   10 1  
    11    9   18 1  
    12   10   11 ar 
    13   10   16 ar 
    14   11   12 ar 
    15   12   13 1  
    16   12   14 ar 
    17   14   15 ar 
    18   15   16 ar 
    19   16   17 1  
    20   17   18 am 
    21   18   19 2  
    22    1   20 1  
    23    1   21 1  
    24    1   22 1  
    25    3   23 1  
    26    5   24 1  
    27    5   25 1  
    28    5   26 1  
    29    6   27 1  
    30    8   28 1  
    31   11   29 1  
    32   13   30 1  
    33   13   31 1  
    34   14   32 1  
    35   15   33 1  
    36   17   34 1  
@<TRIPOS>SUBSTRUCTURE
     1 X2K         1

