### 
### Created by X-TOOL on Mon Sep 10 21:13:04 2018
### 

@<TRIPOS>MOLECULE
2x2l_ligand
   34    36     1     0     0
SMALL
GAST_HUCK


@<TRIPOS>ATOM
      1 CAH        -9.5690  -23.8960   11.0240 C.ar      1 X2L        -0.0570
      2 CAO        -9.3310  -22.5630   11.3760 C.ar      1 X2L        -0.0269
      3 CAM       -10.3100  -21.8630   12.0870 C.ar      1 X2L         0.0973
      4 OAB       -10.0260  -20.5570   12.4200 O.3       1 X2L        -0.3169
      5 CAP       -11.5240  -22.5030   12.4110 C.ar      1 X2L        -0.0269
      6 CAI       -11.7420  -23.8410   12.0380 C.ar      1 X2L        -0.0570
      7 CAQ       -10.7600  -24.5710   11.3370 C.ar      1 X2L        -0.0248
      8 CAF       -10.8820  -25.9190   10.8840 C.2       1 X2L        -0.0410
      9 CAS       -11.8860  -26.9070   11.0450 C.2       1 X2L         0.0454
     10 CAU       -11.7210  -28.2440   10.6730 C.ar      1 X2L        -0.0059
     11 CAK       -10.6670  -28.9520   10.0970 C.ar      1 X2L        -0.0530
     12 CAN       -10.8060  -30.3170    9.8550 C.ar      1 X2L         0.0188
     13 CAG       -11.9620  -31.0210   10.1590 C.ar      1 X2L        -0.0577
     14 CAJ       -13.0120  -30.3170   10.7400 C.ar      1 X2L        -0.0516
     15 CAT       -12.9030  -28.9380   10.9970 C.ar      1 X2L         0.0596
     16 CAA       -10.6720  -19.9110   13.5880 C.3       1 X2L         0.0611
     17 NAL       -13.7610  -28.0740   11.5550 N.am      1 X2L        -0.2424
     18 CAR       -13.1930  -26.8610   11.5620 C.2       1 X2L         0.2210
     19 NAB        -9.7800  -30.9630    9.3060 N.pl3     1 X2L        -0.3452
     20 OAA       -13.7740  -25.8940   12.0100 O.2       1 X2L        -0.3773
     21 H          -8.7933  -24.4361   10.4812 H         1 X2L         0.0629
     22 H          -8.3952  -22.0771   11.0997 H         1 X2L         0.0562
     23 H         -12.2969  -21.9580   12.9530 H         1 X2L         0.0562
     24 H         -12.6858  -24.3220   12.2950 H         1 X2L         0.0629
     25 H         -10.0301  -26.2577   10.2944 H         1 X2L         0.0715
     26 H          -9.7399  -28.4407    9.8376 H         1 X2L         0.0453
     27 H         -12.0447  -32.0876    9.9501 H         1 X2L         0.0477
     28 H         -13.9318  -30.8410   10.9997 H         1 X2L         0.0474
     29 H         -11.7531  -19.9095   13.4489 H         1 X2L         0.0581
     30 H         -10.4216  -20.4651   14.4926 H         1 X2L         0.0581
     31 H         -10.3145  -18.8852   13.6780 H         1 X2L         0.0581
     32 H         -14.6886  -28.3010   11.9134 H         1 X2L         0.2212
     33 H          -9.8502  -31.9624    9.1143 H         1 X2L         0.1674
     34 H          -8.9235  -30.4587    9.0769 H         1 X2L         0.1674
@<TRIPOS>BOND
     1    1    2 ar 
     2    1    7 ar 
     3    2    3 ar 
     4    3    4 1  
     5    3    5 ar 
     6    4   16 1  
     7    5    6 ar 
     8    6    7 ar 
     9    7    8 1  
    10    8    9 2  
    11    9   10 1  
    12    9   18 1  
    13   10   11 ar 
    14   10   15 ar 
    15   11   12 ar 
    16   12   13 ar 
    17   12   19 1  
    18   13   14 ar 
    19   14   15 ar 
    20   15   17 1  
    21   17   18 am 
    22   18   20 2  
    23    1   21 1  
    24    2   22 1  
    25    5   23 1  
    26    6   24 1  
    27    8   25 1  
    28   11   26 1  
    29   13   27 1  
    30   14   28 1  
    31   16   29 1  
    32   16   30 1  
    33   16   31 1  
    34   17   32 1  
    35   19   33 1  
    36   19   34 1  
@<TRIPOS>SUBSTRUCTURE
     1 X2L         1

