### 
### Created by X-TOOL on Mon Sep 10 21:13:03 2018
### 

@<TRIPOS>MOLECULE
2x2m_ligand
   32    34     1     0     0
SMALL
GAST_HUCK


@<TRIPOS>ATOM
      1 C3         -0.9450   11.1850    5.1790 C.2       1 X2M         0.2050
      2 C5         -1.5970   10.0670    5.7170 C.2       1 X2M         0.0303
      3 C6          0.6240    9.7170    5.5610 C.ar      1 X2M         0.0646
      4 C7         -0.5990    9.1270    5.9690 C.ar      1 X2M        -0.0100
      5 C8         -0.6210    7.8150    6.4890 C.ar      1 X2M        -0.0767
      6 C9          0.5680    7.1050    6.5920 C.ar      1 X2M        -0.0833
      7 C10         1.7780    7.6840    6.1870 C.ar      1 X2M        -0.0814
      8 C11         1.8190    8.9880    5.6670 C.ar      1 X2M        -0.0473
      9 C19        -2.9670    9.8750    5.9700 C.2       1 X2M        -0.0355
     10 C21        -4.0160   10.7400    5.6280 C.2       1 X2M         0.0586
     11 O4         -1.4870   12.2500    4.8350 O.2       1 X2M        -0.3914
     12 N1          0.3780   10.9370    5.0840 N.am      1 X2M        -0.2419
     13 C26        -5.3660   10.3610    5.8290 C.2       1 X2M        -0.0481
     14 C25        -6.1920   11.3600    5.4660 C.2       1 X2M        -0.0568
     15 C24        -5.3680   12.3370    5.0510 C.2       1 X2M         0.0460
     16 N22        -4.0670   11.9880    5.1420 N.pl3     1 X2M        -0.2781
     17 CAB        -5.8390    8.9930    6.4000 C.3       1 X2M        -0.0410
     18 CAA        -5.8480   13.6920    4.5230 C.3       1 X2M        -0.0033
     19 H          -1.5612    7.3639    6.8063 H         1 X2M         0.0521
     20 H           0.5600    6.0905    6.9906 H         1 X2M         0.0475
     21 H           2.7022    7.1132    6.2770 H         1 X2M         0.0526
     22 H           2.7648    9.4276    5.3504 H         1 X2M         0.0485
     23 H          -3.2426    8.9559    6.4870 H         1 X2M         0.0688
     24 H           1.0762   11.5787    4.7083 H         1 X2M         0.2238
     25 H          -7.2814   11.3734    5.5008 H         1 X2M         0.0251
     26 H          -3.2680   12.5686    4.8872 H         1 X2M         0.2279
     27 H          -5.4886    8.1896    5.7521 H         1 X2M         0.0366
     28 H          -5.4307    8.8580    7.4016 H         1 X2M         0.0366
     29 H          -6.9279    8.9765    6.4449 H         1 X2M         0.0366
     30 H          -6.4737   13.5370    3.6440 H         1 X2M         0.0447
     31 H          -6.4252   14.1982    5.2967 H         1 X2M         0.0447
     32 H          -4.9856   14.3018    4.2538 H         1 X2M         0.0447
@<TRIPOS>BOND
     1    1    2 1  
     2    1   11 2  
     3    1   12 am 
     4    2    4 1  
     5    2    9 2  
     6    4    3 ar 
     7    3    8 ar 
     8    3   12 1  
     9    4    5 ar 
    10    5    6 ar 
    11    6    7 ar 
    12    7    8 ar 
    13    9   10 1  
    14   10   13 2  
    15   10   16 1  
    16   13   14 1  
    17   13   17 1  
    18   14   15 2  
    19   15   16 1  
    20   15   18 1  
    21    5   19 1  
    22    6   20 1  
    23    7   21 1  
    24    8   22 1  
    25    9   23 1  
    26   12   24 1  
    27   14   25 1  
    28   16   26 1  
    29   17   27 1  
    30   17   28 1  
    31   17   29 1  
    32   18   30 1  
    33   18   31 1  
    34   18   32 1  
@<TRIPOS>SUBSTRUCTURE
     1 X2M         1

