### 
### Created by X-TOOL on Mon Sep 10 21:13:05 2018
### 

@<TRIPOS>MOLECULE
2x2r_ligand
   49    50     1     0     0
SMALL
GAST_HUCK


@<TRIPOS>ATOM
      1 CAL        54.4910   10.9610   -1.2200 C.ar      1 X2O        -0.0489
      2 CAH        54.5020    9.9070   -2.1230 C.ar      1 X2O        -0.0391
      3 CAF        54.4670    8.6000   -1.6390 C.ar      1 X2O        -0.0398
      4 CAI        54.4340    8.3490   -0.2670 C.ar      1 X2O        -0.0391
      5 CAM        54.4200    9.4060    0.6360 C.ar      1 X2O        -0.0489
      6 CAT        54.4680   10.7150    0.1500 C.ar      1 X2O        -0.0589
      7 CAX        54.4250   11.8880    1.1300 C.3       1 X2O         0.0131
      8 SAR        52.6770   11.9680    1.6670 S.3       1 X2O        -0.2074
      9 CB         51.8290   12.3840    0.0980 C.3       1 X2O         0.0364
     10 CA         50.3180   12.5750    0.3160 C.3       1 X2O         0.0363
     11 C          49.6570   13.0000   -1.0020 C.2       1 X2O         0.0852
     12 OXT        50.1160   14.0210   -1.5510 O.co2     1 X2O        -0.5642
     13 O          48.7190   12.2940   -1.4340 O.co2     1 X2O        -0.5642
     14 N          49.7170   11.3290    0.8390 N.4       1 X2O         0.2332
     15 CAW        54.8450   13.2180    0.4540 C.3       1 X2O        -0.0649
     16 CAB        56.2850   13.2070   -0.0870 C.3       1 X2O        -0.0725
     17 CAP        54.7270   14.4000    1.3940 C.3       1 X2O        -0.0633
     18 CAA        55.1510   15.6670    0.6510 C.3       1 X2O        -0.0661
     19 CAU        55.2980   11.6430    2.3760 C.ar      1 X2O        -0.0589
     20 CAN        54.8180   12.0150    3.6340 C.ar      1 X2O        -0.0489
     21 CAJ        55.5880   11.8190    4.7750 C.ar      1 X2O        -0.0391
     22 CAG        56.8510   11.2430    4.6670 C.ar      1 X2O        -0.0398
     23 CAK        57.3350   10.8720    3.4140 C.ar      1 X2O        -0.0391
     24 CAO        56.5640   11.0680    2.2700 C.ar      1 X2O        -0.0489
     25 H1         54.5004   11.9821   -1.5838 H         1 X2O         0.0796
     26 H2         54.5373   10.0974   -3.1896 H         1 X2O         0.0681
     27 H3         54.4654    7.7699   -2.3362 H         1 X2O         0.0805
     28 H4         54.4192    7.3276    0.0957 H         1 X2O         0.0681
     29 H5         54.3725    9.2171    1.7024 H         1 X2O         0.0796
     30 H6         51.9872   11.5682   -0.6227 H         1 X2O         0.0439
     31 H7         52.2541   13.3156   -0.3036 H         1 X2O         0.0439
     32 H8         50.1654   13.3730    1.0575 H         1 X2O         0.1032
     33 H9         48.7280   11.4656    0.9779 H         1 X2O         0.2010
     34 H10        50.1498   11.0901    1.7175 H         1 X2O         0.2010
     35 H11        49.8635   10.5821    0.1781 H         1 X2O         0.2010
     36 H12        54.1630   13.3799   -0.3938 H         1 X2O         0.0166
     37 H13        56.5101   14.1791   -0.5501 H         1 X2O         0.0221
     38 H14        56.3884   12.4103   -0.8383 H         1 X2O         0.0221
     39 H15        56.9862   13.0239    0.7405 H         1 X2O         0.0221
     40 H16        55.3812   14.2462    2.2648 H         1 X2O         0.0254
     41 H17        53.6849   14.5010    1.7314 H         1 X2O         0.0254
     42 H18        55.0690   16.5322    1.3253 H         1 X2O         0.0229
     43 H19        54.4964   15.8177   -0.2201 H         1 X2O         0.0229
     44 H20        56.1927   15.5628    0.3133 H         1 X2O         0.0229
     45 H21        53.8341   12.4615    3.7216 H         1 X2O         0.0796
     46 H22        55.2062   12.1138    5.7458 H         1 X2O         0.0681
     47 H23        57.4548   11.0840    5.5531 H         1 X2O         0.0805
     48 H24        58.3198   10.4271    3.3285 H         1 X2O         0.0681
     49 H25        56.9475   10.7741    1.2996 H         1 X2O         0.0796
@<TRIPOS>BOND
     1    1    2 ar 
     2    1    6 ar 
     3    2    3 ar 
     4    3    4 ar 
     5    4    5 ar 
     6    5    6 ar 
     7    6    7 1  
     8    7    8 1  
     9    7   15 1  
    10    7   19 1  
    11    8    9 1  
    12    9   10 1  
    13   10   11 1  
    14   10   14 1  
    15   11   12 ar 
    16   11   13 ar 
    17   15   16 1  
    18   15   17 1  
    19   17   18 1  
    20   19   20 ar 
    21   19   24 ar 
    22   20   21 ar 
    23   21   22 ar 
    24   22   23 ar 
    25   23   24 ar 
    26    1   25 1  
    27    2   26 1  
    28    3   27 1  
    29    4   28 1  
    30    5   29 1  
    31    9   30 1  
    32    9   31 1  
    33   10   32 1  
    34   14   33 1  
    35   14   34 1  
    36   14   35 1  
    37   15   36 1  
    38   16   37 1  
    39   16   38 1  
    40   16   39 1  
    41   17   40 1  
    42   17   41 1  
    43   18   42 1  
    44   18   43 1  
    45   18   44 1  
    46   20   45 1  
    47   21   46 1  
    48   22   47 1  
    49   23   48 1  
    50   24   49 1  
@<TRIPOS>SUBSTRUCTURE
     1 X2O         1

