### 
### Created by X-TOOL on Mon Sep 10 21:13:04 2018
### 

@<TRIPOS>MOLECULE
2x38_ligand
   49    53     1     0     0
SMALL
GAST_HUCK


@<TRIPOS>ATOM
      1 CAT        -3.0010   -1.7860   23.8780 C.3       1 IC8        -0.0324
      2 CAP        -3.8720   -3.0510   23.7680 C.ar      1 IC8        -0.0127
      3 CAQ        -3.5140   -4.1750   24.5140 C.ar      1 IC8        -0.0686
      4 CAR        -4.2960   -5.3330   24.4490 C.ar      1 IC8        -0.0797
      5 CAJ        -5.4300   -5.3810   23.6320 C.ar      1 IC8        -0.0773
      6 CAI        -5.7890   -4.2660   22.8820 C.ar      1 IC8        -0.0359
      7 CAH        -5.0150   -3.1000   22.9630 C.ar      1 IC8         0.1124
      8 NAG        -5.4420   -2.0210   22.1710 N.am      1 IC8        -0.1334
      9 CAF        -4.9080   -1.8500   20.8650 C.2       1 IC8         0.2539
     10 OAB        -4.0480   -2.6120   20.4640 O.2       1 IC8        -0.3803
     11 CAE        -5.3280   -0.8080   20.0480 C.ar      1 IC8         0.0657
     12 CAD        -4.8110   -0.5850   18.7490 C.ar      1 IC8        -0.0334
     13 CAA        -3.7190   -1.4610   18.0980 C.3       1 IC8        -0.0295
     14 CAC        -5.2970    0.4850   18.0000 C.ar      1 IC8        -0.0638
     15 CAK        -6.2830    1.3100   18.5130 C.ar      1 IC8        -0.0732
     16 CAL        -6.8010    1.0900   19.7920 C.ar      1 IC8        -0.0606
     17 CAM        -6.3180    0.0300   20.5690 C.ar      1 IC8         0.0080
     18 NAN        -6.8210   -0.1710   21.8020 N.2       1 IC8        -0.3023
     19 CAO        -6.4410   -1.1600   22.6090 C.2       1 IC8         0.1944
     20 CAS        -7.0830   -1.3080   24.0190 C.3       1 IC8         0.1531
     21 N9         -7.4530    0.0430   24.4880 N.pl3     1 IC8        -0.1987
     22 C8         -8.6750    0.6050   24.3880 C.2       1 IC8         0.1130
     23 N7         -8.5940    1.8480   24.8910 N.2       1 IC8        -0.2956
     24 C5         -7.3340    2.0300   25.3100 C.ar      1 IC8         0.1046
     25 C4         -6.6040    0.8810   25.0440 C.ar      1 IC8         0.1621
     26 N3         -5.3090    0.8030   25.3620 N.ar      1 IC8        -0.2712
     27 C2         -4.6940    1.8320   25.9330 C.ar      1 IC8         0.0533
     28 N1         -5.3710    2.9540   26.2090 N.ar      1 IC8        -0.2698
     29 C6         -6.6830    3.0820   25.9120 C.ar      1 IC8         0.1298
     30 N6         -7.3590    4.2060   26.1890 N.pl3     1 IC8        -0.3152
     31 H1         -2.1614   -1.9773   24.5625 H         1 IC8         0.0371
     32 H2         -3.6085   -0.9551   24.2661 H         1 IC8         0.0371
     33 H3         -2.6108   -1.5219   22.8840 H         1 IC8         0.0371
     34 H4         -2.6313   -4.1506   25.1428 H         1 IC8         0.0525
     35 H5         -4.0205   -6.2009   25.0372 H         1 IC8         0.0505
     36 H6         -6.0273   -6.2843   23.5834 H         1 IC8         0.0531
     37 H7         -6.6613   -4.2984   22.2393 H         1 IC8         0.0527
     38 H8         -3.4945   -1.0791   17.0911 H         1 IC8         0.0403
     39 H9         -4.0764   -2.4988   18.0253 H         1 IC8         0.0403
     40 H10        -2.8080   -1.4292   18.7137 H         1 IC8         0.0403
     41 H11        -4.9001    0.6725   17.0088 H         1 IC8         0.0493
     42 H12        -6.6569    2.1346   17.9169 H         1 IC8         0.0609
     43 H13        -7.5762    1.7394   20.1824 H         1 IC8         0.0498
     44 H14        -6.3606   -1.7610   24.7139 H         1 IC8         0.0921
     45 H15        -7.9799   -1.9419   23.9577 H         1 IC8         0.0921
     46 H16        -9.5664    0.1358   23.9742 H         1 IC8         0.1350
     47 H17        -3.6400    1.7636   26.1767 H         1 IC8         0.0996
     48 H18        -6.8788    4.9980   26.6396 H         1 IC8         0.1820
     49 H19        -8.3586    4.2776   25.9513 H         1 IC8         0.1820
@<TRIPOS>BOND
     1    1    2 1  
     2    2    3 ar 
     3    2    7 ar 
     4    3    4 ar 
     5    4    5 ar 
     6    5    6 ar 
     7    6    7 ar 
     8    7    8 1  
     9    8    9 am 
    10    8   19 1  
    11    9   10 2  
    12    9   11 1  
    13   11   12 ar 
    14   11   17 ar 
    15   12   13 1  
    16   12   14 ar 
    17   14   15 ar 
    18   15   16 ar 
    19   16   17 ar 
    20   17   18 1  
    21   18   19 2  
    22   19   20 1  
    23   20   21 1  
    24   21   22 1  
    25   21   25 1  
    26   22   23 2  
    27   23   24 1  
    28   24   25 ar 
    29   24   29 ar 
    30   25   26 ar 
    31   26   27 ar 
    32   27   28 ar 
    33   28   29 ar 
    34   29   30 1  
    35    1   31 1  
    36    1   32 1  
    37    1   33 1  
    38    3   34 1  
    39    4   35 1  
    40    5   36 1  
    41    6   37 1  
    42   13   38 1  
    43   13   39 1  
    44   13   40 1  
    45   14   41 1  
    46   15   42 1  
    47   16   43 1  
    48   20   44 1  
    49   20   45 1  
    50   22   46 1  
    51   27   47 1  
    52   30   48 1  
    53   30   49 1  
@<TRIPOS>SUBSTRUCTURE
     1 IC8         1

