### 
### Created by X-TOOL on Mon Sep 10 21:13:02 2018
### 

@<TRIPOS>MOLECULE
2x39_ligand
   49    52     1     0     0
SMALL
GAST_HUCK


@<TRIPOS>ATOM
      1 N1         45.1570   33.2530  111.3780 N.pl3     1 X39        -0.2876
      2 C2         43.8220   32.6490  111.4460 C.3       1 X39         0.0376
      3 C3         43.6270   31.9480  112.7790 C.3       1 X39         0.0215
      4 C4         44.7570   30.9420  113.0720 C.3       1 X39         0.0718
      5 N5         44.6610   30.5160  114.5120 N.4       1 X39         0.2228
      6 C9         46.1250   31.5980  112.8660 C.3       1 X39         0.0215
      7 C10        46.2180   32.2620  111.5160 C.3       1 X39         0.0376
      8 C11        44.6570   29.6650  112.2120 C.2       1 X39         0.2493
      9 O12        45.6360   29.1720  111.7300 O.2       1 X39        -0.3382
     10 N13        43.4520   29.1240  112.0350 N.am      1 X39        -0.2699
     11 C14        43.2720   27.9650  111.1780 C.3       1 X39         0.0649
     12 C15        42.5540   28.3240  109.9110 C.ar      1 X39        -0.0206
     13 C16        43.2660   28.5950  108.7430 C.ar      1 X39        -0.0578
     14 C17        42.5980   28.9320  107.5810 C.ar      1 X39        -0.0545
     15 C18        41.2170   28.9990  107.5790 C.ar      1 X39         0.0330
     16 CL1        40.3790   29.4170  106.1230 Cl        1 X39        -0.0771
     17 C20        40.4960   28.7320  108.7270 C.ar      1 X39        -0.0545
     18 C21        41.1590   28.3990  109.8880 C.ar      1 X39        -0.0578
     19 C22        45.4060   34.6120  111.7620 C.ar      1 X39         0.1212
     20 N23        46.6800   34.8930  112.1080 N.ar      1 X39        -0.2730
     21 C24        46.9510   36.1470  112.4690 C.ar      1 X39         0.0500
     22 N25        46.1120   37.1850  112.5230 N.ar      1 X39        -0.2772
     23 C26        44.8650   36.8900  112.1650 C.ar      1 X39         0.1355
     24 N27        43.7990   37.7250  112.1150 N.pl3     1 X39        -0.2665
     25 C29        42.7190   37.0440  111.7100 C.2       1 X39         0.0249
     26 C30        43.0980   35.7670  111.4990 C.2       1 X39        -0.0545
     27 C31        44.4200   35.6370  111.7750 C.ar      1 X39         0.0435
     28 H1         43.7131   31.9172  110.6320 H         1 X39         0.0529
     29 H2         43.0617   33.4362  111.3356 H         1 X39         0.0529
     30 H3         42.6680   31.4095  112.7603 H         1 X39         0.0331
     31 H4         43.6079   32.7035  113.5783 H         1 X39         0.0331
     32 H5         45.3956   29.8569  114.7171 H         1 X39         0.1998
     33 H6         43.7657   30.0827  114.6753 H         1 X39         0.1998
     34 H7         44.7575   31.3229  115.1083 H         1 X39         0.1998
     35 H8         46.9065   30.8275  112.9405 H         1 X39         0.0331
     36 H9         46.2806   32.3550  113.6488 H         1 X39         0.0331
     37 H10        47.1953   32.7576  111.4196 H         1 X39         0.0529
     38 H11        46.1127   31.5023  110.7275 H         1 X39         0.0529
     39 H12        42.6603   29.5216  112.4988 H         1 X39         0.1886
     40 H13        42.6852   27.2081  111.7191 H         1 X39         0.0686
     41 H14        44.2592   27.5513  110.9244 H         1 X39         0.0686
     42 H15        44.3487   28.5411  108.7465 H         1 X39         0.0558
     43 H16        43.1545   29.1429  106.6749 H         1 X39         0.0606
     44 H17        39.4133   28.7843  108.7143 H         1 X39         0.0606
     45 H18        40.5942   28.1937  110.7902 H         1 X39         0.0558
     46 H19        47.9773   36.3492  112.7534 H         1 X39         0.0975
     47 H20        43.8165   38.7273  112.3516 H         1 X39         0.2318
     48 H21        41.7168   37.4482  111.5755 H         1 X39         0.0922
     49 H22        42.4444   34.9647  111.1598 H         1 X39         0.0311
@<TRIPOS>BOND
     1    1    2 1  
     2    1    7 1  
     3    1   19 1  
     4    2    3 1  
     5    3    4 1  
     6    4    5 1  
     7    4    6 1  
     8    4    8 1  
     9    6    7 1  
    10    8    9 2  
    11    8   10 am 
    12   10   11 1  
    13   11   12 1  
    14   12   13 ar 
    15   12   18 ar 
    16   13   14 ar 
    17   14   15 ar 
    18   15   16 1  
    19   15   17 ar 
    20   17   18 ar 
    21   19   20 ar 
    22   19   27 ar 
    23   20   21 ar 
    24   21   22 ar 
    25   22   23 ar 
    26   23   24 1  
    27   23   27 ar 
    28   24   25 1  
    29   25   26 2  
    30   26   27 1  
    31    2   28 1  
    32    2   29 1  
    33    3   30 1  
    34    3   31 1  
    35    5   32 1  
    36    5   33 1  
    37    5   34 1  
    38    6   35 1  
    39    6   36 1  
    40    7   37 1  
    41    7   38 1  
    42   10   39 1  
    43   11   40 1  
    44   11   41 1  
    45   13   42 1  
    46   14   43 1  
    47   17   44 1  
    48   18   45 1  
    49   21   46 1  
    50   24   47 1  
    51   25   48 1  
    52   26   49 1  
@<TRIPOS>SUBSTRUCTURE
     1 X39         1

