### 
### Created by X-TOOL on Sun Sep  9 21:51:22 2018
### 

@<TRIPOS>MOLECULE
2x3t_ligand
   34    34     1     0     0
SMALL
GAST_HUCK


@<TRIPOS>ATOM
      1 ND3        20.6050  -18.0310   -2.2170 N.am      1 NON        -0.2763
      2 C1         20.8390  -17.1430   -1.2260 C.2       1 NON         0.3195
      3 O1A        21.5300  -17.4170   -0.2530 O.2       1 NON        -0.3776
      4 O1B        20.2590  -15.7970   -1.2860 O.3       1 NON        -0.2295
      5 C15        20.5870  -14.9470   -0.1630 C.3       1 NON         0.2127
      6 O8         21.8460  -14.2870   -0.3540 O.3       1 NON        -0.3373
      7 C8         21.9240  -13.3660   -1.4510 C.3       1 NON         0.1133
      8 C9         23.2370  -12.6110   -1.2960 C.3       1 NON         0.0730
      9 O9         24.2450  -13.2540   -2.0860 O.3       1 NON        -0.3924
     10 C7         20.7530  -12.3750   -1.5470 C.3       1 NON         0.1117
     11 O7         20.6410  -11.9530   -2.9100 O.3       1 NON        -0.3865
     12 C6         19.3970  -12.9250   -1.0930 C.3       1 NON         0.1114
     13 O6         18.5560  -11.8340   -0.7160 O.3       1 NON        -0.3867
     14 C5         19.5510  -13.8470    0.1110 C.3       1 NON         0.1251
     15 N5         18.2930  -14.5450    0.3520 N.am      1 NON        -0.2763
     16 C10        17.6800  -14.5110    1.5370 C.2       1 NON         0.1734
     17 O10        18.1270  -13.8980    2.4920 O.2       1 NON        -0.3974
     18 C11        16.3960  -15.2760    1.6340 C.3       1 NON         0.0257
     19 H          21.0096  -18.9662   -2.1699 H         1 NON         0.1831
     20 H          20.0238  -17.7663   -3.0123 H         1 NON         0.1831
     21 H          20.6144  -15.6303    0.6858 H         1 NON         0.0986
     22 H          21.8709  -13.9397   -2.3763 H         1 NON         0.0647
     23 H          23.5377  -12.6105   -0.2483 H         1 NON         0.0584
     24 H          23.1096  -11.5819   -1.6318 H         1 NON         0.0584
     25 H          25.0748  -12.7807   -1.9909 H         1 NON         0.2095
     26 H          20.9851  -11.5584   -0.8633 H         1 NON         0.0647
     27 H          19.9137  -11.3319   -2.9928 H         1 NON         0.2100
     28 H          18.9640  -13.4896   -1.9187 H         1 NON         0.0645
     29 H          18.4340  -11.2506   -1.4685 H         1 NON         0.2100
     30 H          19.8544  -13.2272    0.9547 H         1 NON         0.0637
     31 H          17.8687  -15.0756   -0.4088 H         1 NON         0.1857
     32 H          16.4887  -16.0429    2.4030 H         1 NON         0.0467
     33 H          15.5869  -14.5938    1.8950 H         1 NON         0.0467
     34 H          16.1813  -15.7461    0.6743 H         1 NON         0.0467
@<TRIPOS>BOND
     1    1    2 am 
     2    2    3 2  
     3    2    4 1  
     4    4    5 1  
     5    5    6 1  
     6    5   14 1  
     7    6    7 1  
     8    7    8 1  
     9    7   10 1  
    10    8    9 1  
    11   10   11 1  
    12   10   12 1  
    13   12   13 1  
    14   12   14 1  
    15   14   15 1  
    16   15   16 am 
    17   16   17 2  
    18   16   18 1  
    19    1   19 1  
    20    1   20 1  
    21    5   21 1  
    22    7   22 1  
    23    8   23 1  
    24    8   24 1  
    25    9   25 1  
    26   10   26 1  
    27   11   27 1  
    28   12   28 1  
    29   13   29 1  
    30   14   30 1  
    31   15   31 1  
    32   18   32 1  
    33   18   33 1  
    34   18   34 1  
@<TRIPOS>SUBSTRUCTURE
     1 NON         1

