### 
### Created by X-TOOL on Mon Sep 10 21:13:03 2018
### 

@<TRIPOS>MOLECULE
2x4z_ligand
   66    70     1     0     0
SMALL
GAST_HUCK


@<TRIPOS>ATOM
      1 C1         20.0180   20.5030   61.2400 C.2       1 X4Z         0.0729
      2 C2         20.2280   21.6480   61.9660 C.2       1 X4Z         0.0726
      3 C3         19.5360   19.5890   62.2070 C.2       1 X4Z         0.1916
      4 C4         20.2800   20.7060   59.8010 C.3       1 X4Z         0.0736
      5 C5         20.7660   22.8160   61.1660 C.3       1 X4Z         0.0436
      6 N6         19.9080   21.5110   63.2620 N.pl3     1 X4Z        -0.2091
      7 N7         19.2250   18.1860   61.9120 N.pl3     1 X4Z        -0.2431
      8 N8         19.4560   20.1800   63.4180 N.2       1 X4Z        -0.1419
      9 N9         20.6240   22.1890   59.7960 N.am      1 X4Z        -0.2867
     10 C10        19.8360   24.0230   61.4140 C.3       1 X4Z        -0.0779
     11 C11        22.1990   23.1730   61.6210 C.3       1 X4Z        -0.0779
     12 C12        19.7400   17.2830   61.0790 C.ar      1 X4Z         0.1510
     13 C13        20.7770   22.9180   58.6540 C.2       1 X4Z         0.2526
     14 C14        19.2580   15.9660   61.1250 C.ar      1 X4Z         0.1019
     15 N15        20.7150   17.6560   60.2100 N.ar      1 X4Z        -0.2648
     16 N16        20.6030   22.3130   57.4890 N.am      1 X4Z        -0.2543
     17 O17        21.0860   24.1070   58.7010 O.2       1 X4Z        -0.4013
     18 C18        19.8370   15.0270   60.2020 C.ar      1 X4Z         0.0330
     19 S19        18.0770   15.2020   62.0800 S.3       1 X4Z        -0.0251
     20 C20        21.2610   16.7660   59.3480 C.ar      1 X4Z         0.0651
     21 C21        20.7280   23.0740   56.2130 C.3       1 X4Z         0.1155
     22 N22        20.8390   15.4860   59.3350 N.ar      1 X4Z        -0.3047
     23 C23        19.2520   13.7280   60.3480 C.2       1 X4Z        -0.0425
     24 C24        18.2590   13.6800   61.3560 C.2       1 X4Z         0.0070
     25 C25        22.3110   17.2210   58.4410 C.3       1 X4Z        -0.0048
     26 C26        22.0930   23.5160   55.7990 C.ar      1 X4Z        -0.0132
     27 C27        20.0190   22.3250   55.0290 C.3       1 X4Z         0.0007
     28 C28        22.2180   24.6040   54.8780 C.ar      1 X4Z        -0.0580
     29 C29        23.2630   22.8590   56.3020 C.ar      1 X4Z        -0.0580
     30 N30        18.5410   22.3240   55.0800 N.4       1 X4Z         0.2340
     31 C31        23.5110   25.0320   54.4540 C.ar      1 X4Z        -0.0685
     32 C32        24.5600   23.2830   55.8850 C.ar      1 X4Z        -0.0685
     33 C33        24.6680   24.3690   54.9600 C.ar      1 X4Z        -0.0687
     34 C34        17.8770   21.8210   56.2950 C.3       1 X4Z        -0.0431
     35 C35        18.0550   21.5200   53.9370 C.3       1 X4Z        -0.0431
     36 H1         19.3901   20.4923   59.1908 H         1 X4Z         0.0745
     37 H2         21.1219   20.0914   59.4496 H         1 X4Z         0.0745
     38 H3         19.9776   22.2306   63.9957 H         1 X4Z         0.2536
     39 H4         18.4393   17.8205   62.4688 H         1 X4Z         0.2128
     40 H5         20.0052   24.4139   62.4282 H         1 X4Z         0.0103
     41 H6         18.7878   23.7049   61.3138 H         1 X4Z         0.0103
     42 H7         20.0524   24.8102   60.6768 H         1 X4Z         0.0103
     43 H8         22.1643   23.6182   62.6263 H         1 X4Z         0.0103
     44 H9         22.6388   23.8937   60.9159 H         1 X4Z         0.0103
     45 H10        22.8140   22.2613   61.6448 H         1 X4Z         0.0103
     46 H11        20.3859   21.3372   57.4648 H         1 X4Z         0.1877
     47 H12        20.1617   24.0024   56.3786 H         1 X4Z         0.0771
     48 H13        19.5407   12.8672   59.7466 H         1 X4Z         0.0451
     49 H14        17.6921   12.7908   61.6279 H         1 X4Z         0.0895
     50 H15        22.5053   18.2901   58.6120 H         1 X4Z         0.0449
     51 H16        21.9881   17.0689   57.4005 H         1 X4Z         0.0449
     52 H17        23.2306   16.6468   58.6272 H         1 X4Z         0.0449
     53 H18        20.3604   21.2793   55.0346 H         1 X4Z         0.0861
     54 H19        20.3267   22.8062   54.0889 H         1 X4Z         0.0861
     55 H20        21.3313   25.1023   54.5030 H         1 X4Z         0.0557
     56 H21        23.1623   22.0371   57.0016 H         1 X4Z         0.0557
     57 H22        18.2441   23.2797   54.9598 H         1 X4Z         0.2030
     58 H23        23.6133   25.8533   53.7539 H         1 X4Z         0.0599
     59 H24        25.4487   22.7905   56.2628 H         1 X4Z         0.0599
     60 H25        25.6500   24.6949   54.6368 H         1 X4Z         0.0559
     61 H26        16.7861   21.8883   56.1712 H         1 X4Z         0.0777
     62 H27        18.1860   22.4271   57.1594 H         1 X4Z         0.0777
     63 H28        18.1630   20.7720   56.4616 H         1 X4Z         0.0777
     64 H29        18.5337   21.8720   53.0113 H         1 X4Z         0.0777
     65 H30        16.9639   21.6288   53.8498 H         1 X4Z         0.0777
     66 H31        18.3061   20.4616   54.1001 H         1 X4Z         0.0777
@<TRIPOS>BOND
     1    1    2 2  
     2    1    3 1  
     3    1    4 1  
     4    2    5 1  
     5    2    6 1  
     6    3    7 1  
     7    3    8 2  
     8    4    9 1  
     9    5    9 1  
    10    5   10 1  
    11    5   11 1  
    12    6    8 1  
    13    7   12 1  
    14    9   13 am 
    15   12   14 ar 
    16   12   15 ar 
    17   13   16 am 
    18   13   17 2  
    19   14   18 ar 
    20   14   19 1  
    21   15   20 ar 
    22   16   21 1  
    23   18   22 ar 
    24   18   23 1  
    25   19   24 1  
    26   20   22 ar 
    27   20   25 1  
    28   21   26 1  
    29   21   27 1  
    30   23   24 2  
    31   26   28 ar 
    32   26   29 ar 
    33   27   30 1  
    34   28   31 ar 
    35   29   32 ar 
    36   30   34 1  
    37   30   35 1  
    38   31   33 ar 
    39   32   33 ar 
    40    4   36 1  
    41    4   37 1  
    42    6   38 1  
    43    7   39 1  
    44   10   40 1  
    45   10   41 1  
    46   10   42 1  
    47   11   43 1  
    48   11   44 1  
    49   11   45 1  
    50   16   46 1  
    51   21   47 1  
    52   23   48 1  
    53   24   49 1  
    54   25   50 1  
    55   25   51 1  
    56   25   52 1  
    57   27   53 1  
    58   27   54 1  
    59   28   55 1  
    60   29   56 1  
    61   30   57 1  
    62   31   58 1  
    63   32   59 1  
    64   33   60 1  
    65   34   61 1  
    66   34   62 1  
    67   34   63 1  
    68   35   64 1  
    69   35   65 1  
    70   35   66 1  
@<TRIPOS>SUBSTRUCTURE
     1 X4Z         1

