### 
### Created by X-TOOL on Mon Sep 10 21:13:03 2018
### 

@<TRIPOS>MOLECULE
2x5o_ligand
   53    55     1     0     0
SMALL
GAST_HUCK


@<TRIPOS>ATOM
      1 OE1        -5.2560   32.2760   20.3570 O.co2     1 VSV        -0.5690
      2 CD         -5.1380   31.4770   21.3430 C.2       1 VSV         0.0350
      3 OE2        -4.2400   31.5580   22.2100 O.co2     1 VSV        -0.5690
      4 CG         -6.1220   30.4400   21.6740 C.3       1 VSV         0.0038
      5 CB         -7.0320   30.2010   20.5310 C.3       1 VSV        -0.0064
      6 C          -7.4690   27.7330   20.9710 C.2       1 VSV         0.0602
      7 OXT        -7.3780   27.0000   19.9660 O.co2     1 VSV        -0.5666
      8 O          -7.2160   27.2660   22.1080 O.co2     1 VSV        -0.5666
      9 N          -9.1420   29.2310   20.0480 N.am      1 VSV        -0.2706
     10 CAU       -10.3900   28.6220   20.4100 C.2       1 VSV         0.2050
     11 OBC       -10.4880   27.7830   21.3110 O.2       1 VSV        -0.3846
     12 CAT       -11.4820   29.0280   19.4990 C.ar      1 VSV         0.0433
     13 CAQ       -11.4510   30.3290   18.9490 C.ar      1 VSV        -0.0387
     14 CAS       -12.5580   28.1810   19.2840 C.ar      1 VSV        -0.0489
     15 CAR       -13.6150   28.6070   18.5120 C.ar      1 VSV        -0.0628
     16 CAP       -13.6080   29.8530   17.9540 C.ar      1 VSV        -0.0541
     17 CAO       -12.5530   30.7260   18.1630 C.ar      1 VSV        -0.0161
     18 CAN       -12.5560   32.0470   17.4000 C.3       1 VSV         0.0592
     19 NAY       -13.7920   32.6660   17.3600 N.pl3     1 VSV        -0.3102
     20 CAA       -14.4480   33.1070   18.4730 C.ar      1 VSV         0.0421
     21 CAC       -13.9230   32.9450   19.7650 C.ar      1 VSV        -0.0422
     22 CAE       -14.6430   33.2930   20.9030 C.ar      1 VSV        -0.0656
     23 CAB       -15.7120   33.7040   18.3310 C.ar      1 VSV        -0.0422
     24 CAG       -16.4430   34.0720   19.4680 C.ar      1 VSV        -0.0656
     25 CAF       -15.9330   33.8370   20.7430 C.ar      1 VSV        -0.0381
     26 CAH       -16.6900   34.1480   22.0080 C.2       1 VSV        -0.0377
     27 CAI       -18.0230   34.3970   22.2250 C.2       1 VSV         0.1122
     28 SBG       -19.3050   34.5130   21.0350 S.3       1 VSV         0.0391
     29 CAL       -20.4640   34.8440   22.2920 C.2       1 VSV         0.2811
     30 NAX       -20.0110   34.7720   23.6050 N.am      1 VSV        -0.1886
     31 CA         -8.0570   29.1470   20.9980 C.3       1 VSV         0.0954
     32 CAK       -18.6290   34.5130   23.5390 C.2       1 VSV         0.2413
     33 OBE       -17.9270   34.5010   24.5410 O.2       1 VSV        -0.3769
     34 OBH       -21.6530   35.0060   22.0820 O.2       1 VSV        -0.3708
     35 H1         -6.7118   30.7657   22.5435 H         1 VSV         0.0432
     36 H2         -5.5947   29.5059   21.9176 H         1 VSV         0.0432
     37 H3         -6.4655   29.8230   19.6672 H         1 VSV         0.0323
     38 H4         -7.5457   31.1332   20.2532 H         1 VSV         0.0323
     39 H5         -9.0276   29.6964   19.1703 H         1 VSV         0.1869
     40 H6        -10.6141   30.9953   19.1240 H         1 VSV         0.0608
     41 H7        -12.5670   27.1891   19.7212 H         1 VSV         0.0611
     42 H8        -14.4595   27.9480   18.3458 H         1 VSV         0.0611
     43 H9        -14.4427   30.1646   17.3366 H         1 VSV         0.0593
     44 H10       -12.2326   31.8515   16.3670 H         1 VSV         0.0678
     45 H11       -11.8422   32.7291   17.8849 H         1 VSV         0.0678
     46 H12       -14.2409   32.8013   16.4429 H         1 VSV         0.1796
     47 H13       -12.9256   32.5360   19.8792 H         1 VSV         0.0524
     48 H14       -14.2211   33.1489   21.8911 H         1 VSV         0.0589
     49 H15       -16.1211   33.8796   17.3426 H         1 VSV         0.0524
     50 H16       -17.4127   34.5431   19.3549 H         1 VSV         0.0589
     51 H17       -16.0737   34.1810   22.9052 H         1 VSV         0.0575
     52 H18       -20.5597   34.8826   24.4337 H         1 VSV         0.2253
     53 H19        -8.4080   29.3794   22.0142 H         1 VSV         0.0727
@<TRIPOS>BOND
     1    2    1 ar 
     2    2    3 ar 
     3    4    2 1  
     4    5    4 1  
     5   31    5 1  
     6    6    7 ar 
     7    6    8 ar 
     8   31    6 1  
     9    9   10 am 
    10    9   31 1  
    11   10   11 2  
    12   10   12 1  
    13   12   13 ar 
    14   12   14 ar 
    15   13   17 ar 
    16   14   15 ar 
    17   15   16 ar 
    18   16   17 ar 
    19   17   18 1  
    20   18   19 1  
    21   19   20 1  
    22   20   21 ar 
    23   20   23 ar 
    24   21   22 ar 
    25   22   25 ar 
    26   23   24 ar 
    27   24   25 ar 
    28   25   26 1  
    29   26   27 2  
    30   27   28 1  
    31   27   32 1  
    32   28   29 1  
    33   29   30 am 
    34   29   34 2  
    35   30   32 am 
    36   32   33 2  
    37    4   35 1  
    38    4   36 1  
    39    5   37 1  
    40    5   38 1  
    41    9   39 1  
    42   13   40 1  
    43   14   41 1  
    44   15   42 1  
    45   16   43 1  
    46   18   44 1  
    47   18   45 1  
    48   19   46 1  
    49   21   47 1  
    50   22   48 1  
    51   23   49 1  
    52   24   50 1  
    53   26   51 1  
    54   30   52 1  
    55   31   53 1  
@<TRIPOS>SUBSTRUCTURE
     1 VSV         1

