### 
### Created by X-TOOL on Mon Sep 10 21:13:04 2018
### 

@<TRIPOS>MOLECULE
2x6f_ligand
   19    20     1     0     0
SMALL
GAST_HUCK


@<TRIPOS>ATOM
      1 N9         18.6280   36.5340    6.2340 N.pl3     1 3MA        -0.1879
      2 C4         17.4110   36.9660    6.6110 C.ar      1 3MA         0.2269
      3 N3         16.5410   37.8870    6.1510 N.ar      1 3MA        -0.2858
      4 CN3        16.8800   38.6810    4.9480 C.3       1 3MA         0.0161
      5 C2         15.3610   38.0770    6.7930 C.ar      1 3MA         0.1033
      6 N1         14.9670   37.4030    7.8980 N.ar      1 3MA        -0.1964
      7 C6         15.7560   36.4480    8.4510 C.ar      1 3MA         0.2261
      8 N6         15.4060   35.7420    9.5530 N.pl3     1 3MA        -0.2686
      9 C5         17.0550   36.1720    7.8110 C.ar      1 3MA         0.2145
     10 N7         18.0750   35.3280    8.0640 N.2       1 3MA        -0.1850
     11 C8         19.0160   35.5530    7.1070 C.2       1 3MA         0.1805
     12 H          16.1331   38.5029    4.1743 H         1 3MA         0.0433
     13 H          16.8932   39.7402    5.2051 H         1 3MA         0.0433
     14 H          17.8624   38.3824    4.5821 H         1 3MA         0.0433
     15 H          14.6810   38.8271    6.3892 H         1 3MA         0.1339
     16 H          16.0374   35.0332    9.9264 H         1 3MA         0.2258
     17 H          14.5111   35.9192   10.0093 H         1 3MA         0.2258
     18 H          19.9632   35.0175    7.0432 H         1 3MA         0.1824
     19 H          19.1718   36.8800    5.4306 H         1 3MA         0.2586
@<TRIPOS>BOND
     1    1    2 1  
     2    1   11 1  
     3    2    3 ar 
     4    2    9 ar 
     5    3    4 1  
     6    3    5 ar 
     7    5    6 ar 
     8    6    7 ar 
     9    7    8 1  
    10    7    9 ar 
    11    9   10 1  
    12   10   11 2  
    13    4   12 1  
    14    4   13 1  
    15    4   14 1  
    16    5   15 1  
    17    8   16 1  
    18    8   17 1  
    19   11   18 1  
    20    1   19 1  
@<TRIPOS>SUBSTRUCTURE
     1 3MA         1

