### 
### Created by X-TOOL on Mon Sep 10 21:13:04 2018
### 

@<TRIPOS>MOLECULE
2x6i_ligand
   47    50     1     0     0
SMALL
GAST_HUCK


@<TRIPOS>ATOM
      1 OAU        20.2550   34.4150    7.0350 O.2       1 090        -0.3820
      2 CAO        19.9490   34.3170    8.2050 C.2       1 090         0.2108
      3 CAP        20.7390   33.4230    9.1890 C.ar      1 090         0.0775
      4 CAQ        20.2670   33.3120   10.6140 C.ar      1 090         0.0313
      5 NAR        20.8630   32.4680   11.4830 N.ar      1 090        -0.2903
      6 CAX        21.9710   31.7220   11.0780 C.ar      1 090         0.0155
      7 CAW        22.4680   31.8640    9.7280 C.ar      1 090        -0.0284
      8 CAV        21.8090   32.6880    8.8020 C.ar      1 090        -0.0224
      9 NAN        18.5990   34.6830    8.6100 N.am      1 090        -0.2614
     10 CAM        18.0000   35.8260    8.0030 C.cat     1 090         0.1767
     11 NAL        18.7490   36.4340    6.9170 N.pl3     1 090        -0.2810
     12 CAK        18.1760   37.6000    6.2640 C.ar      1 090         0.1691
     13 CAJ        18.7570   38.0850    5.1380 C.ar      1 090         0.2457
     14 OAT        19.9930   37.5540    4.7890 O.3       1 090        -0.2787
     15 CAZ        21.1390   38.3470    5.0080 C.3       1 090         0.0732
     16 CAE        16.8620   38.0630    6.6240 C.ar      1 090         0.1218
     17 CAF        16.1730   37.4990    7.8430 C.3       1 090         0.1224
     18 NAG        16.7130   36.3770    8.4870 N.pl3     1 090        -0.2487
     19 CAH        16.0510   35.9200    9.6020 C.3       1 090         0.0734
     20 CAB        14.8420   36.8770    9.7290 C.3       1 090        -0.0068
     21 NAA        14.9710   37.8700    8.5770 N.4       1 090         0.2719
     22 CAD        16.2270   39.0410    5.8890 C.ar      1 090         0.0076
     23 CAC        16.8440   39.5650    4.7500 C.ar      1 090         0.0394
     24 CAI        18.1350   39.1130    4.3980 C.ar      1 090         0.2303
     25 OAS        18.7440   39.6470    3.2490 O.3       1 090        -0.2494
     26 CAY        18.1290   40.6320    2.4480 C.3       1 090         0.0882
     27 H          19.4296   33.9235   10.9501 H         1 090         0.0879
     28 H          22.4573   31.0382   11.7737 H         1 090         0.0858
     29 H          23.3655   31.3246    9.4253 H         1 090         0.0722
     30 H          22.1586   32.7364    7.7707 H         1 090         0.0789
     31 H          18.0955   34.1367    9.3089 H         1 090         0.1808
     32 H          19.6487   36.0549    6.6217 H         1 090         0.2010
     33 H          21.0546   39.2710    4.4359 H         1 090         0.0612
     34 H          21.2196   38.5814    6.0694 H         1 090         0.0612
     35 H          22.0251   37.7992    4.6872 H         1 090         0.0612
     36 H          16.0965   38.3048    7.1130 H         1 090         0.1485
     37 H          16.6812   35.9261   10.4913 H         1 090         0.0586
     38 H          15.7477   34.8773    9.5072 H         1 090         0.0586
     39 H          14.8408   37.3869   10.6924 H         1 090         0.0836
     40 H          13.8993   36.3322    9.6778 H         1 090         0.0836
     41 H          14.1497   37.8369    7.9730 H         1 090         0.2070
     42 H          15.0367   38.8265    8.9252 H         1 090         0.2070
     43 H          15.2462   39.4047    6.1954 H         1 090         0.0890
     44 H          16.3357   40.3127    4.1412 H         1 090         0.0737
     45 H          17.1868   40.2459    2.0590 H         1 090         0.0648
     46 H          17.9382   41.5207    3.0496 H         1 090         0.0648
     47 H          18.7884   40.8878    1.6187 H         1 090         0.0648
@<TRIPOS>BOND
     1    1    2 2  
     2    2    3 1  
     3    2    9 am 
     4    3    4 ar 
     5    3    8 ar 
     6    4    5 ar 
     7    5    6 ar 
     8    6    7 ar 
     9    7    8 ar 
    10    9   10 ar 
    11   10   11 ar 
    12   10   18 ar 
    13   11   12 1  
    14   12   13 ar 
    15   12   16 ar 
    16   13   14 1  
    17   13   24 ar 
    18   14   15 1  
    19   16   17 1  
    20   16   22 ar 
    21   17   18 1  
    22   17   21 1  
    23   18   19 1  
    24   19   20 1  
    25   20   21 1  
    26   22   23 ar 
    27   23   24 ar 
    28   24   25 1  
    29   25   26 1  
    30    4   27 1  
    31    6   28 1  
    32    7   29 1  
    33    8   30 1  
    34    9   31 1  
    35   11   32 1  
    36   15   33 1  
    37   15   34 1  
    38   15   35 1  
    39   17   36 1  
    40   19   37 1  
    41   19   38 1  
    42   20   39 1  
    43   20   40 1  
    44   21   41 1  
    45   21   42 1  
    46   22   43 1  
    47   23   44 1  
    48   26   45 1  
    49   26   46 1  
    50   26   47 1  
@<TRIPOS>SUBSTRUCTURE
     1 090         1

