### 
### Created by X-TOOL on Mon Sep 10 21:13:04 2018
### 

@<TRIPOS>MOLECULE
2x6k_ligand
   42    46     1     0     0
SMALL
GAST_HUCK


@<TRIPOS>ATOM
      1 N01        20.9070   38.1250    3.5490 N.ar      1 X6K        -0.2670
      2 C02        22.1610   38.0530    3.0680 C.ar      1 X6K         0.0030
      3 C03        23.1070   37.1930    3.6680 C.ar      1 X6K        -0.0421
      4 C04        22.7340   36.4190    4.7590 C.ar      1 X6K        -0.0405
      5 C05        21.4250   36.4920    5.2640 C.ar      1 X6K         0.0572
      6 C06        20.5210   37.3190    4.6860 C.ar      1 X6K         0.2036
      7 O07        19.2710   37.1890    5.4070 O.3       1 X6K        -0.2243
      8 C08        19.4480   36.2280    6.4770 C.ar      1 X6K         0.1996
      9 C09        20.7340   35.7910    6.4170 C.ar      1 X6K         0.0875
     10 N10        21.1680   34.9040    7.2820 N.ar      1 X6K        -0.2897
     11 C11        18.5700   35.7180    7.4710 C.ar      1 X6K         0.1687
     12 N12        17.1840   36.1460    7.6180 N.pl3     1 X6K        -0.2826
     13 C13        16.7700   37.0380    6.5150 C.3       1 X6K         0.0549
     14 C14        15.9240   38.2060    7.0130 C.3       1 X6K         0.0681
     15 O15        14.9370   37.8270    7.9890 O.3       1 X6K        -0.3757
     16 C16        15.4280   37.0730    9.1090 C.3       1 X6K         0.0681
     17 C17        16.2170   35.8280    8.6670 C.3       1 X6K         0.0549
     18 N18        19.0270   34.8180    8.3530 N.ar      1 X6K        -0.2596
     19 C19        20.2740   34.3910    8.2900 C.ar      1 X6K         0.0919
     20 C20        20.8010   33.3910    9.3040 C.ar      1 X6K         0.0014
     21 C21        20.1500   33.2040   10.4930 C.ar      1 X6K        -0.0598
     22 C22        20.6570   32.3020   11.4430 C.ar      1 X6K        -0.0671
     23 C23        21.9040   31.6110   11.1650 C.ar      1 X6K        -0.0309
     24 C24        22.6000   31.8460    9.9510 C.ar      1 X6K         0.0905
     25 O25        23.8160   31.2050    9.6610 O.3       1 X6K        -0.3327
     26 C26        22.0980   32.7070    9.0270 C.ar      1 X6K        -0.0209
     27 H          22.4486   38.6616    2.2107 H         1 X6K         0.0808
     28 H          24.1231   37.1371    3.2774 H         1 X6K         0.0627
     29 H          23.4595   35.7524    5.2253 H         1 X6K         0.0733
     30 H          16.1711   36.4576    5.8132 H         1 X6K         0.0547
     31 H          17.6679   37.4419    6.0474 H         1 X6K         0.0547
     32 H          15.3934   38.6153    6.1533 H         1 X6K         0.0580
     33 H          16.5979   38.9182    7.4891 H         1 X6K         0.0580
     34 H          14.5724   36.7421    9.6977 H         1 X6K         0.0580
     35 H          16.0973   37.7137    9.6832 H         1 X6K         0.0580
     36 H          16.7601   35.4412    9.5293 H         1 X6K         0.0547
     37 H          15.5117   35.0958    8.2738 H         1 X6K         0.0547
     38 H          19.2346   33.7570   10.7037 H         1 X6K         0.0554
     39 H          20.1221   32.1231   12.3757 H         1 X6K         0.0596
     40 H          22.3076   30.9077   11.8934 H         1 X6K         0.0563
     41 H          24.4644   31.4330   10.3312 H         1 X6K         0.2480
     42 H          22.6349   32.8951    8.0972 H         1 X6K         0.0567
@<TRIPOS>BOND
     1    1    2 ar 
     2    1    6 ar 
     3    2    3 ar 
     4    3    4 ar 
     5    4    5 ar 
     6    5    6 ar 
     7    5    9 1  
     8    6    7 1  
     9    7    8 1  
    10    8    9 ar 
    11    8   11 ar 
    12    9   10 ar 
    13   10   19 ar 
    14   11   12 1  
    15   11   18 ar 
    16   12   13 1  
    17   12   17 1  
    18   13   14 1  
    19   14   15 1  
    20   15   16 1  
    21   16   17 1  
    22   18   19 ar 
    23   19   20 1  
    24   20   21 ar 
    25   20   26 ar 
    26   21   22 ar 
    27   22   23 ar 
    28   23   24 ar 
    29   24   25 1  
    30   24   26 ar 
    31    2   27 1  
    32    3   28 1  
    33    4   29 1  
    34   13   30 1  
    35   13   31 1  
    36   14   32 1  
    37   14   33 1  
    38   16   34 1  
    39   16   35 1  
    40   17   36 1  
    41   17   37 1  
    42   21   38 1  
    43   22   39 1  
    44   23   40 1  
    45   25   41 1  
    46   26   42 1  
@<TRIPOS>SUBSTRUCTURE
     1 X6K         1

