### 
### Created by X-TOOL on Sun Sep  9 21:51:26 2018
### 

@<TRIPOS>MOLECULE
2x6x_ligand
   92    95     1     0     0
SMALL
GAST_HUCK


@<TRIPOS>ATOM
      1 C1        -16.9810    2.9320   28.4080 C.3       1 NON         0.1879
      2 C2        -16.0990    2.8920   27.1560 C.3       1 NON         0.1341
      3 C3        -16.5800    1.8650   26.1390 C.3       1 NON         0.1140
      4 C4        -18.0850    1.9910   25.9250 C.3       1 NON         0.1095
      5 C5        -18.8380    1.9520   27.2700 C.3       1 NON         0.0873
      6 C6        -20.3360    2.1990   27.1110 C.3       1 NON        -0.0361
      7 O2        -16.1450    4.1770   26.6010 O.3       1 NON        -0.3841
      8 O3        -15.9110    2.0000   24.8930 O.3       1 NON        -0.3864
      9 O4        -18.4790    0.9510   25.0490 O.3       1 NON        -0.3866
     10 O5        -18.3700    2.9920   28.1130 O.3       1 NON        -0.3431
     11 C1        -14.6750   -0.0580   32.3210 C.3       1 NON         0.1884
     12 C2        -13.5850    1.0030   32.3240 C.3       1 NON         0.1341
     13 C3        -14.1930    2.3930   32.5020 C.3       1 NON         0.1141
     14 C4        -15.2500    2.6240   31.4330 C.3       1 NON         0.1119
     15 C5        -16.2840    1.4910   31.4820 C.3       1 NON         0.1134
     16 C6        -17.3280    1.5270   30.3730 C.3       1 NON         0.0796
     17 O2        -12.7400    0.7030   33.3960 O.3       1 NON        -0.3841
     18 O3        -13.1960    3.4090   32.4290 O.3       1 NON        -0.3864
     19 O4        -15.8630    3.8590   31.6590 O.3       1 NON        -0.3865
     20 O5        -15.6210    0.2550   31.3340 O.3       1 NON        -0.3405
     21 O6        -16.7250    1.7850   29.1840 O.3       1 NON        -0.3461
     22 C1        -16.3370   -1.1860   36.6610 C.3       1 NON         0.1854
     23 C2        -17.3220   -0.2840   35.9340 C.3       1 NON         0.1343
     24 C3        -17.4230   -0.8120   34.4880 C.3       1 NON         0.1209
     25 C4        -16.0490   -1.2100   33.8960 C.3       1 NON         0.1188
     26 C5        -15.3380   -2.2690   34.7850 C.3       1 NON         0.1134
     27 C6        -13.8980   -2.5860   34.3920 C.3       1 NON         0.0730
     28 O1        -17.1830   -2.3250   36.7890 O.3       1 NON        -0.3649
     29 O2        -18.5760   -0.2970   36.5640 O.3       1 NON        -0.3841
     30 O3        -18.0900    0.1650   33.7330 O.3       1 NON        -0.3403
     31 O4        -15.2870   -0.1460   33.5930 O.3       1 NON        -0.3401
     32 O5        -15.2650   -1.9430   36.1720 O.3       1 NON        -0.3407
     33 O6        -13.8430   -3.7470   33.6210 O.3       1 NON        -0.3924
     34 C1        -19.3720   -0.0450   33.3680 C.3       1 NON         0.1854
     35 C2        -20.0070    1.3070   33.0420 C.3       1 NON         0.1210
     36 C3        -21.3660    1.2320   32.3390 C.3       1 NON         0.1111
     37 C4        -21.4080    0.1250   31.2960 C.3       1 NON         0.1116
     38 C5        -20.7480   -1.1400   31.8200 C.3       1 NON         0.1130
     39 C6        -20.7740   -2.2770   30.8130 C.3       1 NON         0.0730
     40 C7        -19.4190    3.1650   34.5060 C.2       1 NON         0.1733
     41 C8        -19.6930    3.8710   35.8040 C.3       1 NON         0.0257
     42 N2        -20.1570    2.0860   34.2560 N.am      1 NON        -0.2766
     43 O3        -21.6840    2.4840   31.7520 O.3       1 NON        -0.3867
     44 O4        -22.7650   -0.1260   30.9780 O.3       1 NON        -0.3865
     45 O5        -19.4040   -0.8930   32.2380 O.3       1 NON        -0.3408
     46 O6        -20.0230   -1.9350   29.6710 O.3       1 NON        -0.3924
     47 O7        -18.5450    3.5730   33.7360 O.2       1 NON        -0.3974
     48 H1        -16.7137    3.8267   28.9894 H         1 NON         0.0937
     49 H2        -15.0664    2.6456   27.4439 H         1 NON         0.0671
     50 H3        -16.3659    0.8627   26.5385 H         1 NON         0.0648
     51 H4        -18.2990    2.9567   25.4436 H         1 NON         0.0646
     52 H5        -18.6713    0.9731   27.7431 H         1 NON         0.0621
     53 H6        -20.8208    2.1601   28.0977 H         1 NON         0.0255
     54 H7        -20.7681    1.4252   26.4594 H         1 NON         0.0255
     55 H8        -20.4986    3.1897   26.6615 H         1 NON         0.0255
     56 H9        -15.5844    4.2100   25.8347 H         1 NON         0.2101
     57 H10       -16.1080    2.8511   24.5196 H         1 NON         0.2100
     58 H11       -17.9885    1.0186   24.2382 H         1 NON         0.2100
     59 H12       -14.2225   -1.0318   32.0825 H         1 NON         0.0938
     60 H13       -13.0232    0.9696   31.3789 H         1 NON         0.0671
     61 H14       -14.6706    2.4432   33.4916 H         1 NON         0.0648
     62 H15       -14.7724    2.6331   30.4421 H         1 NON         0.0647
     63 H16       -16.7950    1.5327   32.4552 H         1 NON         0.0647
     64 H17       -18.0633    2.3162   30.5887 H         1 NON         0.0587
     65 H18       -17.8389    0.5543   30.3202 H         1 NON         0.0587
     66 H19       -13.2373    0.7235   34.2051 H         1 NON         0.2101
     67 H20       -13.5998    4.2578   32.5662 H         1 NON         0.2100
     68 H21       -15.2088    4.5469   31.6250 H         1 NON         0.2100
     69 H22       -16.0327   -0.6887   37.5938 H         1 NON         0.0935
     70 H23       -16.9410    0.7479   35.9249 H         1 NON         0.0671
     71 H24       -18.0444   -1.7196   34.4969 H         1 NON         0.0651
     72 H25       -16.2584   -1.7091   32.9384 H         1 NON         0.0651
     73 H26       -15.9277   -3.1920   34.6841 H         1 NON         0.0647
     74 H27       -13.2978   -2.7283   35.3028 H         1 NON         0.0584
     75 H28       -13.4889   -1.7465   33.8107 H         1 NON         0.0584
     76 H29       -18.0286   -2.0537   37.1263 H         1 NON         0.2126
     77 H30       -18.9084   -1.1866   36.5868 H         1 NON         0.2101
     78 H31       -12.9403   -3.9276   33.3865 H         1 NON         0.2095
     79 H32       -19.9212   -0.5193   34.1947 H         1 NON         0.0935
     80 H33       -19.3165    1.8375   32.3699 H         1 NON         0.0633
     81 H34       -22.1279    1.0066   33.0997 H         1 NON         0.0645
     82 H35       -20.8753    0.4562   30.3924 H         1 NON         0.0647
     83 H36       -21.3201   -1.4648   32.7016 H         1 NON         0.0647
     84 H37       -21.8145   -2.4760   30.5169 H         1 NON         0.0584
     85 H38       -20.3446   -3.1792   31.2730 H         1 NON         0.0584
     86 H39       -19.0256    4.7405   35.8964 H         1 NON         0.0467
     87 H40       -19.5142    3.1809   36.6417 H         1 NON         0.0467
     88 H41       -20.7397    4.2085   35.8240 H         1 NON         0.0467
     89 H42       -20.8395    1.8022   34.9295 H         1 NON         0.1857
     90 H43       -21.0546    2.6808   31.0682 H         1 NON         0.2100
     91 H44       -22.8132   -0.8011   30.3115 H         1 NON         0.2100
     92 H45       -20.3934   -1.1569   29.2711 H         1 NON         0.2095
@<TRIPOS>BOND
     1    1    2 1  
     2    1   10 1  
     3   21    1 1  
     4    2    3 1  
     5    2    7 1  
     6    3    4 1  
     7    3    8 1  
     8    5    4 1  
     9    4    9 1  
    10    5    6 1  
    11   10    5 1  
    12   11   12 1  
    13   11   20 1  
    14   31   11 1  
    15   12   13 1  
    16   12   17 1  
    17   13   14 1  
    18   13   18 1  
    19   15   14 1  
    20   14   19 1  
    21   15   16 1  
    22   20   15 1  
    23   16   21 1  
    24   23   22 1  
    25   22   28 1  
    26   22   32 1  
    27   24   23 1  
    28   23   29 1  
    29   24   25 1  
    30   30   24 1  
    31   25   26 1  
    32   25   31 1  
    33   26   27 1  
    34   26   32 1  
    35   27   33 1  
    36   34   30 1  
    37   35   34 1  
    38   34   45 1  
    39   35   36 1  
    40   42   35 1  
    41   36   37 1  
    42   36   43 1  
    43   37   38 1  
    44   37   44 1  
    45   38   39 1  
    46   45   38 1  
    47   39   46 1  
    48   40   41 1  
    49   40   42 am 
    50   40   47 2  
    51    1   48 1  
    52    2   49 1  
    53    3   50 1  
    54    4   51 1  
    55    5   52 1  
    56    6   53 1  
    57    6   54 1  
    58    6   55 1  
    59    7   56 1  
    60    8   57 1  
    61    9   58 1  
    62   11   59 1  
    63   12   60 1  
    64   13   61 1  
    65   14   62 1  
    66   15   63 1  
    67   16   64 1  
    68   16   65 1  
    69   17   66 1  
    70   18   67 1  
    71   19   68 1  
    72   22   69 1  
    73   23   70 1  
    74   24   71 1  
    75   25   72 1  
    76   26   73 1  
    77   27   74 1  
    78   27   75 1  
    79   28   76 1  
    80   29   77 1  
    81   33   78 1  
    82   34   79 1  
    83   35   80 1  
    84   36   81 1  
    85   37   82 1  
    86   38   83 1  
    87   39   84 1  
    88   39   85 1  
    89   41   86 1  
    90   41   87 1  
    91   41   88 1  
    92   42   89 1  
    93   43   90 1  
    94   44   91 1  
    95   46   92 1  
@<TRIPOS>SUBSTRUCTURE
     1 NON         1

