### 
### Created by X-TOOL on Mon Sep 10 21:13:02 2018
### 

@<TRIPOS>MOLECULE
2x7c_ligand
   33    35     1     0     0
SMALL
GAST_HUCK


@<TRIPOS>ATOM
      1 OAB        -8.3520   12.1700   34.2410 O.3       1 KZ9        -0.3350
      2 CAQ        -7.3740   12.9590   33.6690 C.ar      1 KZ9         0.0807
      3 CAG        -7.4190   13.1760   32.2840 C.ar      1 KZ9        -0.0300
      4 CAE        -6.3600   13.5450   34.4360 C.ar      1 KZ9        -0.0407
      5 CAD        -5.3640   14.3420   33.8580 C.ar      1 KZ9        -0.0774
      6 CAF        -5.4170   14.5470   32.4590 C.ar      1 KZ9        -0.0689
      7 CAR        -6.4420   13.9610   31.6810 C.ar      1 KZ9        -0.0241
      8 CAS        -6.5040   14.1000   30.1470 C.3       1 KZ9         0.0928
      9 CAP        -6.8190   15.5570   29.7580 C.2       1 KZ9         0.0364
     10 CAM        -8.0410   16.1280   30.1230 C.2       1 KZ9         0.0862
     11 OAA        -8.9340   15.3830   30.5310 O.2       1 KZ9        -0.4181
     12 CAI        -8.4090   17.5990   29.8640 C.3       1 KZ9         0.0125
     13 CAH        -7.1400   18.4700   29.8780 C.3       1 KZ9        -0.0247
     14 CAJ        -6.0490   17.8720   28.9460 C.3       1 KZ9         0.0132
     15 CAO        -5.8640   16.3620   29.1630 C.2       1 KZ9         0.0725
     16 NAK        -4.6130   15.8200   28.8480 N.am      1 KZ9        -0.2236
     17 CAN        -4.3080   14.4730   29.0090 C.2       1 KZ9         0.1730
     18 SAC        -2.7750   13.9450   28.4270 S.2       1 KZ9        -0.2908
     19 NAL        -5.2230   13.6110   29.6090 N.am      1 KZ9        -0.2617
     20 H1         -9.2041   12.5588   34.0820 H         1 KZ9         0.2479
     21 H2         -8.2097   12.7350   31.6878 H         1 KZ9         0.0477
     22 H3         -6.3454   13.3772   35.5068 H         1 KZ9         0.0483
     23 H4         -4.5803   14.7861   34.4610 H         1 KZ9         0.0571
     24 H5         -4.6634   15.1602   31.9783 H         1 KZ9         0.0464
     25 H6         -7.3120   13.4627   29.7584 H         1 KZ9         0.0776
     26 H7         -9.0974   17.9458   30.6488 H         1 KZ9         0.0469
     27 H8         -8.8986   17.6846   28.8827 H         1 KZ9         0.0469
     28 H9         -6.7487   18.5206   30.9048 H         1 KZ9         0.0315
     29 H10        -7.3940   19.4828   29.5320 H         1 KZ9         0.0315
     30 H11        -5.0938   18.3785   29.1483 H         1 KZ9         0.0490
     31 H12        -6.3421   18.0462   27.9002 H         1 KZ9         0.0490
     32 H13        -3.9055   16.4297   28.4905 H         1 KZ9         0.2456
     33 H14        -5.0051   12.6373   29.6761 H         1 KZ9         0.2022
@<TRIPOS>BOND
     1    1    2 1  
     2    2    3 ar 
     3    2    4 ar 
     4    3    7 ar 
     5    4    5 ar 
     6    5    6 ar 
     7    6    7 ar 
     8    7    8 1  
     9    8    9 1  
    10    8   19 1  
    11    9   10 1  
    12    9   15 2  
    13   10   11 2  
    14   10   12 1  
    15   12   13 1  
    16   13   14 1  
    17   14   15 1  
    18   15   16 1  
    19   16   17 am 
    20   17   18 2  
    21   17   19 am 
    22    1   20 1  
    23    3   21 1  
    24    4   22 1  
    25    5   23 1  
    26    6   24 1  
    27    8   25 1  
    28   12   26 1  
    29   12   27 1  
    30   13   28 1  
    31   13   29 1  
    32   14   30 1  
    33   14   31 1  
    34   16   32 1  
    35   19   33 1  
@<TRIPOS>SUBSTRUCTURE
     1 KZ9         1

