### 
### Created by X-TOOL on Mon Sep 10 21:13:02 2018
### 

@<TRIPOS>MOLECULE
2x7d_ligand
   42    44     1     0     0
SMALL
GAST_HUCK


@<TRIPOS>ATOM
      1 OAD        -8.3160   12.2300   34.3450 O.3       1 EGB        -0.3350
      2 CAR        -7.3830   13.0190   33.7290 C.ar      1 EGB         0.0808
      3 CAI        -7.4140   13.1510   32.3250 C.ar      1 EGB        -0.0271
      4 CAG        -6.4240   13.6850   34.4880 C.ar      1 EGB        -0.0406
      5 CAF        -5.4880   14.4790   33.8150 C.ar      1 EGB        -0.0773
      6 CAH        -5.5150   14.5990   32.4090 C.ar      1 EGB        -0.0659
      7 CAS        -6.4620   13.9050   31.6310 C.ar      1 EGB        -0.0035
      8 CAT        -6.5500   14.0070   30.0820 C.3       1 EGB         0.0267
      9 CAQ        -6.9250   15.4310   29.6360 C.2       1 EGB         0.0532
     10 CAN        -8.1950   15.9250   29.9200 C.2       1 EGB         0.0916
     11 OAC        -8.9970   15.1350   30.4080 O.2       1 EGB        -0.4160
     12 CAJ        -8.6820   17.3460   29.5590 C.3       1 EGB         0.0184
     13 CAU        -7.4820   18.3370   29.5540 C.3       1 EGB        -0.0067
     14 CAA        -6.8650   18.4810   30.9520 C.3       1 EGB        -0.0555
     15 CAB        -7.9560   19.7280   29.0970 C.3       1 EGB        -0.0555
     16 CAK        -6.4070   17.7490   28.6130 C.3       1 EGB         0.0136
     17 CAP        -6.0230   16.2830   29.0230 C.2       1 EGB         0.0473
     18 NAL        -4.7990   15.8390   28.6810 N.pl3     1 EGB        -0.2644
     19 CAO        -4.3290   14.6130   29.3070 C.3       1 EGB         0.1108
     20 SAE        -2.8540   14.0330   28.4520 S.3       1 EGB        -0.0990
     21 NAM        -5.3260   13.5580   29.3740 N.4       1 EGB         0.2718
     22 H1         -9.1854   12.5638   34.1569 H         1 EGB         0.2479
     23 H2         -8.1990   12.6533   31.7672 H         1 EGB         0.0478
     24 H3         -6.4030   13.5913   35.5677 H         1 EGB         0.0483
     25 H4         -4.7315   15.0094   34.3819 H         1 EGB         0.0571
     26 H5         -4.7913   15.2390   31.9173 H         1 EGB         0.0465
     27 H6         -7.3645   13.3377   29.7679 H         1 EGB         0.1050
     28 H7         -9.4234   17.6762   30.3015 H         1 EGB         0.0475
     29 H8         -9.1445   17.3296   28.5611 H         1 EGB         0.0475
     30 H9         -6.0224   19.1869   30.9099 H         1 EGB         0.0238
     31 H10        -6.5049   17.5004   31.2967 H         1 EGB         0.0238
     32 H11        -7.6254   18.8590   31.6513 H         1 EGB         0.0238
     33 H12        -8.4034   19.6520   28.0950 H         1 EGB         0.0238
     34 H13        -7.0978   20.4153   29.0642 H         1 EGB         0.0238
     35 H14        -8.7056   20.1109   29.8051 H         1 EGB         0.0238
     36 H15        -5.5074   18.3803   28.6594 H         1 EGB         0.0500
     37 H16        -6.7974   17.7418   27.5846 H         1 EGB         0.0500
     38 H17        -4.2168   16.3486   28.0011 H         1 EGB         0.1909
     39 H18        -4.0489   14.8599   30.3417 H         1 EGB         0.1275
     40 H19        -2.5280   13.1834   28.8855 H         1 EGB         0.1093
     41 H20        -5.5731   13.2816   28.4367 H         1 EGB         0.2069
     42 H21        -4.9350   12.7692   29.8649 H         1 EGB         0.2069
@<TRIPOS>BOND
     1    1    2 1  
     2    2    3 ar 
     3    2    4 ar 
     4    3    7 ar 
     5    4    5 ar 
     6    5    6 ar 
     7    6    7 ar 
     8    7    8 1  
     9    8    9 1  
    10    8   21 1  
    11    9   10 1  
    12    9   17 2  
    13   10   11 2  
    14   10   12 1  
    15   12   13 1  
    16   13   14 1  
    17   13   15 1  
    18   13   16 1  
    19   16   17 1  
    20   17   18 1  
    21   18   19 1  
    22   19   20 1  
    23   19   21 1  
    24    1   22 1  
    25    3   23 1  
    26    4   24 1  
    27    5   25 1  
    28    6   26 1  
    29    8   27 1  
    30   12   28 1  
    31   12   29 1  
    32   14   30 1  
    33   14   31 1  
    34   14   32 1  
    35   15   33 1  
    36   15   34 1  
    37   15   35 1  
    38   16   36 1  
    39   16   37 1  
    40   18   38 1  
    41   19   39 1  
    42   20   40 1  
    43   21   41 1  
    44   21   42 1  
@<TRIPOS>SUBSTRUCTURE
     1 EGB         1

