### 
### Created by X-TOOL on Mon Sep 10 21:13:04 2018
### 

@<TRIPOS>MOLECULE
2x7s_ligand
   53    56     1     0     0
SMALL
GAST_HUCK


@<TRIPOS>ATOM
      1 OAD        17.8960   25.5750   19.6270 O.2       1 WZC        -0.1270
      2 SAZ        19.2940   25.9400   19.3530 S.o2      1 WZC         0.1600
      3 OAE        20.0610   25.5190   20.5250 O.2       1 WZC        -0.1270
      4 NAC        19.8540   25.1190   18.1880 N.am      1 WZC        -0.2415
      5 OAP        19.3420   27.4390   19.0180 O.3       1 WZC        -0.2190
      6 CAV        20.5550   28.0960   18.6680 C.3       1 WZC         0.0947
      7 CAK        20.7340   28.1940   17.1430 C.3       1 WZC        -0.0235
      8 CAM        21.3300   29.5740   16.8590 C.3       1 WZC        -0.0468
      9 CAX        21.7200   30.0270   18.2590 C.3       1 WZC        -0.0285
     10 CAW        22.0500   31.4930   18.5130 C.3       1 WZC        -0.0262
     11 CAJ        23.0110   32.0740   17.4870 C.3       1 WZC        -0.0410
     12 CAI        23.1990   33.5600   17.7770 C.3       1 WZC        -0.0287
     13 CAR        23.3530   33.8570   19.2580 C.ar      1 WZC        -0.0600
     14 CAG        23.7670   35.1420   19.6090 C.ar      1 WZC        -0.0462
     15 CAQ        23.9390   35.5020   20.9400 C.ar      1 WZC         0.1029
     16 OAF        24.3440   36.7730   21.2380 O.3       1 WZC        -0.3430
     17 CAS        23.6940   34.5790   21.9430 C.ar      1 WZC         0.1058
     18 OAO        23.8720   34.9500   23.2600 O.3       1 WZC        -0.3310
     19 CAA        24.4200   34.0470   24.2250 C.3       1 WZC         0.0553
     20 CAH        23.2730   33.2860   21.6030 C.ar      1 WZC        -0.0457
     21 CAT        23.1050   32.9170   20.2620 C.ar      1 WZC        -0.0569
     22 CAU        22.6520   31.5380   19.9260 C.3       1 WZC        -0.0140
     23 CAL        21.6610   31.0210   20.9790 C.3       1 WZC        -0.0422
     24 CAN        21.0700   29.6430   20.6500 C.3       1 WZC        -0.0432
     25 CAY        20.6290   29.5240   19.1880 C.3       1 WZC        -0.0002
     26 CAB        19.2810   30.2340   18.9960 C.3       1 WZC        -0.0569
     27 H          19.2650   24.4303   17.7199 H         1 WZC         0.1654
     28 H          20.8160   25.2608   17.8801 H         1 WZC         0.1654
     29 H          21.3329   27.4841   19.1247 H         1 WZC         0.0626
     30 H          19.7799   28.0698   16.6309 H         1 WZC         0.0291
     31 H          21.3903   27.4044   16.7771 H         1 WZC         0.0291
     32 H          20.6414   30.2527   16.3557 H         1 WZC         0.0269
     33 H          22.1640   29.5543   16.1575 H         1 WZC         0.0269
     34 H          22.7037   29.5947   18.4423 H         1 WZC         0.0311
     35 H          21.1525   32.1054   18.4258 H         1 WZC         0.0326
     36 H          22.6054   31.9415   16.4840 H         1 WZC         0.0288
     37 H          23.9709   31.5612   17.5476 H         1 WZC         0.0288
     38 H          22.3112   34.0837   17.4226 H         1 WZC         0.0390
     39 H          24.1106   33.8848   17.2754 H         1 WZC         0.0390
     40 H          23.9588   35.8759   18.8262 H         1 WZC         0.0434
     41 H          24.4174   36.8692   22.1903 H         1 WZC         0.2419
     42 H          23.7828   33.1658   24.2991 H         1 WZC         0.0570
     43 H          25.4209   33.7480   23.9136 H         1 WZC         0.0570
     44 H          24.4724   34.5416   25.1949 H         1 WZC         0.0570
     45 H          23.0741   32.5594   22.3908 H         1 WZC         0.0434
     46 H          23.5184   30.8766   19.9359 H         1 WZC         0.0427
     47 H          20.8327   31.7283   21.0207 H         1 WZC         0.0286
     48 H          22.2055   30.9252   21.9184 H         1 WZC         0.0286
     49 H          20.1912   29.4967   21.2780 H         1 WZC         0.0273
     50 H          21.8430   28.8955   20.8287 H         1 WZC         0.0273
     51 H          19.4034   31.3005   19.1848 H         1 WZC         0.0236
     52 H          18.9341   30.0821   17.9739 H         1 WZC         0.0236
     53 H          18.5520   29.8216   19.6935 H         1 WZC         0.0236
@<TRIPOS>BOND
     1    1    2 2  
     2    2    3 2  
     3    2    4 am 
     4    2    5 1  
     5    5    6 1  
     6    6    7 1  
     7    6   25 1  
     8    7    8 1  
     9    8    9 1  
    10    9   10 1  
    11    9   25 1  
    12   10   11 1  
    13   10   22 1  
    14   11   12 1  
    15   12   13 1  
    16   13   14 ar 
    17   13   21 ar 
    18   14   15 ar 
    19   15   16 1  
    20   15   17 ar 
    21   17   18 1  
    22   17   20 ar 
    23   18   19 1  
    24   20   21 ar 
    25   21   22 1  
    26   22   23 1  
    27   23   24 1  
    28   24   25 1  
    29   25   26 1  
    30    4   27 1  
    31    4   28 1  
    32    6   29 1  
    33    7   30 1  
    34    7   31 1  
    35    8   32 1  
    36    8   33 1  
    37    9   34 1  
    38   10   35 1  
    39   11   36 1  
    40   11   37 1  
    41   12   38 1  
    42   12   39 1  
    43   14   40 1  
    44   16   41 1  
    45   19   42 1  
    46   19   43 1  
    47   19   44 1  
    48   20   45 1  
    49   22   46 1  
    50   23   47 1  
    51   23   48 1  
    52   24   49 1  
    53   24   50 1  
    54   26   51 1  
    55   26   52 1  
    56   26   53 1  
@<TRIPOS>SUBSTRUCTURE
     1 WZC         1

