### 
### Created by X-TOOL on Mon Sep 10 21:13:04 2018
### 

@<TRIPOS>MOLECULE
2x7t_ligand
   60    63     1     0     0
SMALL
GAST_HUCK


@<TRIPOS>ATOM
      1 OAH        -7.2590    1.0810   17.1950 O.2       1 WZB        -0.1270
      2 SBD        -5.8440    1.1230   16.8590 S.o2      1 WZB         0.1600
      3 OAG        -5.0640    1.7200   17.8900 O.2       1 WZB        -0.1270
      4 NAD        -5.2570   -0.2570   16.5960 N.am      1 WZB        -0.2415
      5 OAS        -5.7450    1.9740   15.4580 O.3       1 WZB        -0.2190
      6 CAX        -4.4780    2.1930   14.8150 C.3       1 WZB         0.0947
      7 CAM        -4.3360    1.3680   13.5120 C.3       1 WZB        -0.0235
      8 CAO        -3.3380    2.1590   12.6430 C.3       1 WZB        -0.0468
      9 CBB        -4.2720    3.6400   14.3690 C.3       1 WZB        -0.0002
     10 CBA        -2.9700    3.3090   13.5950 C.3       1 WZB        -0.0284
     11 CAB        -5.5180    4.0930   13.5180 C.3       1 WZB        -0.0569
     12 CAQ        -4.0290    4.7390   15.4340 C.3       1 WZB        -0.0432
     13 CAP        -3.2790    5.9790   14.8850 C.3       1 WZB        -0.0421
     14 CAY        -1.9960    5.5750   14.1090 C.3       1 WZB        -0.0131
     15 CAZ        -2.3100    4.5640   12.9310 C.3       1 WZB        -0.0261
     16 CAN        -1.0130    4.1990   12.1530 C.3       1 WZB        -0.0405
     17 CAL        -0.4090    5.4620   11.4650 C.3       1 WZB        -0.0267
     18 CAU        -0.4900    6.7330   12.3220 C.ar      1 WZB        -0.0557
     19 CAI         0.2120    7.9250   11.8830 C.ar      1 WZB        -0.0418
     20 CAW        -1.2440    6.7840   13.5670 C.ar      1 WZB        -0.0549
     21 CAJ        -1.0960    7.9940   14.0470 C.ar      1 WZB        -0.0729
     22 CAT        -0.5640    9.1860   13.8900 C.ar      1 WZB        -0.0245
     23 CAK        -0.6830   10.3940   14.8140 C.3       1 WZB        -0.0284
     24 CAA        -1.8820   11.2210   14.3680 C.3       1 WZB        -0.0580
     25 CAV         0.1890    9.1500   12.6430 C.ar      1 WZB         0.1128
     26 OAR         0.8930   10.2470   12.1610 O.3       1 WZB        -0.1649
     27 SBC         2.5430   10.2540   12.2570 S.o2      1 WZB         0.1760
     28 OAF         3.0080   11.6470   12.0590 O.2       1 WZB        -0.1233
     29 OAE         3.1160    9.4060   11.1880 O.2       1 WZB        -0.1233
     30 NAC         3.0410    9.7330   13.6050 N.am      1 WZB        -0.2384
     31 H1         -5.2236   -0.9345   17.3308 H         1 WZB         0.1654
     32 H2         -4.9049   -0.4859   15.6885 H         1 WZB         0.1654
     33 H3         -3.6845    1.9100   15.5223 H         1 WZB         0.0626
     34 H4         -5.3069    1.2805   13.0025 H         1 WZB         0.0291
     35 H5         -3.9453    0.3635   13.7315 H         1 WZB         0.0291
     36 H6         -3.8107    2.5319   11.7224 H         1 WZB         0.0269
     37 H7         -2.4582    1.5519   12.3835 H         1 WZB         0.0269
     38 H8         -2.2333    2.9218   14.3143 H         1 WZB         0.0311
     39 H9         -6.3663    4.2944   14.1886 H         1 WZB         0.0236
     40 H10        -5.7901    3.2942   12.8124 H         1 WZB         0.0236
     41 H11        -5.2676    5.0066   12.9589 H         1 WZB         0.0236
     42 H12        -3.4335    4.3059   16.2512 H         1 WZB         0.0273
     43 H13        -5.0038    5.0667   15.8244 H         1 WZB         0.0273
     44 H14        -2.9970    6.6274   15.7276 H         1 WZB         0.0286
     45 H15        -3.9478    6.5292   14.2068 H         1 WZB         0.0286
     46 H16        -1.3328    5.0624   14.8213 H         1 WZB         0.0428
     47 H17        -3.0213    5.0231   12.2287 H         1 WZB         0.0326
     48 H18        -1.2517    3.4488   11.3848 H         1 WZB         0.0288
     49 H19        -0.2756    3.7830   12.8553 H         1 WZB         0.0288
     50 H20        -0.9554    5.6408   10.5272 H         1 WZB         0.0397
     51 H21         0.6491    5.2620   11.2405 H         1 WZB         0.0397
     52 H22         0.7710    7.8933   10.9548 H         1 WZB         0.0445
     53 H23        -1.6537    8.0264   14.9759 H         1 WZB         0.0451
     54 H24         0.2318   11.0016   14.7516 H         1 WZB         0.0387
     55 H25        -0.8290   10.0564   15.8507 H         1 WZB         0.0387
     56 H26        -1.9858   12.0988   15.0227 H         1 WZB         0.0248
     57 H27        -2.7934   10.6081   14.4292 H         1 WZB         0.0248
     58 H28        -1.7326   11.5533   13.3301 H         1 WZB         0.0248
     59 H29         4.0224    9.6859   13.7912 H         1 WZB         0.1657
     60 H30         2.3854    9.4392   14.3006 H         1 WZB         0.1657
@<TRIPOS>BOND
     1    1    2 2  
     2    2    3 2  
     3    2    4 am 
     4    2    5 1  
     5    5    6 1  
     6    6    7 1  
     7    6    9 1  
     8    7    8 1  
     9    8   10 1  
    10    9   10 1  
    11    9   11 1  
    12    9   12 1  
    13   10   15 1  
    14   12   13 1  
    15   13   14 1  
    16   14   15 1  
    17   14   20 1  
    18   15   16 1  
    19   16   17 1  
    20   17   18 1  
    21   18   19 ar 
    22   18   20 ar 
    23   19   25 ar 
    24   20   21 ar 
    25   21   22 ar 
    26   22   23 1  
    27   22   25 ar 
    28   23   24 1  
    29   25   26 1  
    30   26   27 1  
    31   27   28 2  
    32   27   29 2  
    33   27   30 am 
    34    4   31 1  
    35    4   32 1  
    36    6   33 1  
    37    7   34 1  
    38    7   35 1  
    39    8   36 1  
    40    8   37 1  
    41   10   38 1  
    42   11   39 1  
    43   11   40 1  
    44   11   41 1  
    45   12   42 1  
    46   12   43 1  
    47   13   44 1  
    48   13   45 1  
    49   14   46 1  
    50   15   47 1  
    51   16   48 1  
    52   16   49 1  
    53   17   50 1  
    54   17   51 1  
    55   19   52 1  
    56   21   53 1  
    57   23   54 1  
    58   23   55 1  
    59   24   56 1  
    60   24   57 1  
    61   24   58 1  
    62   30   59 1  
    63   30   60 1  
@<TRIPOS>SUBSTRUCTURE
     1 WZB         1

