### 
### Created by X-TOOL on Mon Sep 10 21:13:03 2018
### 

@<TRIPOS>MOLECULE
2x7u_ligand
   53    56     1     0     0
SMALL
GAST_HUCK


@<TRIPOS>ATOM
      1 C1          2.0780    4.8580  -17.8680 C.ar      1 WZA         0.1397
      2 O1          1.6100    7.6880  -19.3780 O.2       1 WZA        -0.1234
      3 O2         -0.4850    7.1710  -18.4600 O.2       1 WZA        -0.1234
      4 C2          1.2370    3.7880  -18.4550 C.ar      1 WZA         0.1085
      5 C3          1.7790    2.5940  -18.8920 C.ar      1 WZA        -0.0456
      6 C4          3.1370    2.3610  -18.7950 C.ar      1 WZA        -0.0569
      7 S1          0.9190    7.3540  -18.1810 S.o2      1 WZA         0.1753
      8 N1          1.1080    8.5450  -17.1320 N.am      1 WZA        -0.2385
      9 O3          1.5310    6.0330  -17.3960 O.3       1 WZA        -0.1651
     10 C5          4.0130    3.4010  -18.1940 C.ar      1 WZA        -0.0599
     11 C6          3.4510    4.6110  -17.7520 C.ar      1 WZA        -0.0435
     12 O4         -0.0980    3.9070  -18.5740 O.3       1 WZA        -0.3309
     13 C7         -0.8100    2.8730  -17.8960 C.3       1 WZA         0.0553
     14 C8          3.6520    1.0560  -19.2750 C.3       1 WZA        -0.0140
     15 C10         5.8200    1.6400  -18.0950 C.3       1 WZA        -0.0410
     16 C11         5.5060    3.1400  -18.0830 C.3       1 WZA        -0.0287
     17 C12         3.0630    0.6460  -20.6320 C.3       1 WZA        -0.0422
     18 C13         3.4200   -0.8190  -20.9370 C.3       1 WZA        -0.0433
     19 C14         4.9140   -1.0980  -20.7630 C.3       1 WZA        -0.0027
     20 C15         5.2380   -2.5660  -20.5550 C.3       1 WZA         0.0609
     21 C16         5.6410   -0.4890  -21.9720 C.3       1 WZA        -0.0569
     22 C17         5.3860   -0.5510  -19.4160 C.3       1 WZA        -0.0285
     23 C18         6.7480   -1.1950  -19.1610 C.3       1 WZA        -0.0469
     24 C19         6.6160   -2.5720  -19.8730 C.3       1 WZA        -0.0261
     25 CAW         5.1760    0.9620  -19.3030 C.3       1 WZA        -0.0262
     26 OAF         5.2270   -3.2950  -21.7860 O.3       1 WZA        -0.3912
     27 H1          1.1324    1.8335  -19.3147 H         1 WZA         0.0434
     28 H2          0.8117    9.4706  -17.3677 H         1 WZA         0.1657
     29 H3          1.5225    8.3646  -16.2400 H         1 WZA         0.1657
     30 H4          4.0924    5.3667  -17.3133 H         1 WZA         0.0435
     31 H5         -1.8914    3.0242  -18.0294 H         1 WZA         0.0570
     32 H6         -0.5654    2.9015  -16.8239 H         1 WZA         0.0570
     33 H7         -0.5223    1.8962  -18.3119 H         1 WZA         0.0570
     34 H8          3.3086    0.3088  -18.5445 H         1 WZA         0.0427
     35 H9          5.4301    1.1823  -17.1739 H         1 WZA         0.0288
     36 H10         6.9100    1.4998  -18.1411 H         1 WZA         0.0288
     37 H11         5.8751    3.5742  -17.1422 H         1 WZA         0.0390
     38 H12         6.0159    3.6180  -18.9324 H         1 WZA         0.0390
     39 H13         3.4761    1.2935  -21.4195 H         1 WZA         0.0286
     40 H14         1.9689    0.7562  -20.6030 H         1 WZA         0.0286
     41 H15         3.1363   -1.0439  -21.9757 H         1 WZA         0.0273
     42 H16         2.8560   -1.4707  -20.2535 H         1 WZA         0.0273
     43 H17         4.4936   -3.0180  -19.8831 H         1 WZA         0.0599
     44 H18         5.3660    0.5717  -22.0690 H         1 WZA         0.0236
     45 H19         5.3493   -1.0284  -22.8852 H         1 WZA         0.0236
     46 H20         6.7281   -0.5742  -21.8273 H         1 WZA         0.0236
     47 H21         4.7215   -0.9696  -18.6458 H         1 WZA         0.0311
     48 H22         6.9311   -1.3218  -18.0838 H         1 WZA         0.0269
     49 H23         7.5584   -0.5965  -19.6027 H         1 WZA         0.0269
     50 H24         7.4126   -2.6929  -20.6219 H         1 WZA         0.0290
     51 H25         6.6756   -3.3891  -19.1389 H         1 WZA         0.0290
     52 H26         5.5705    1.4540  -20.2043 H         1 WZA         0.0326
     53 H27         4.3567   -3.2606  -22.1653 H         1 WZA         0.2098
@<TRIPOS>BOND
     1    1    4 ar 
     2    9    1 1  
     3    1   11 ar 
     4    7    2 2  
     5    7    3 2  
     6    4    5 ar 
     7    4   12 1  
     8    5    6 ar 
     9    6   10 ar 
    10    6   14 1  
    11    7    8 am 
    12    7    9 1  
    13   10   11 ar 
    14   10   16 1  
    15   12   13 1  
    16   14   17 1  
    17   14   25 1  
    18   16   15 1  
    19   15   25 1  
    20   17   18 1  
    21   18   19 1  
    22   19   20 1  
    23   19   21 1  
    24   19   22 1  
    25   20   24 1  
    26   20   26 1  
    27   22   23 1  
    28   22   25 1  
    29   23   24 1  
    30    5   27 1  
    31    8   28 1  
    32    8   29 1  
    33   11   30 1  
    34   13   31 1  
    35   13   32 1  
    36   13   33 1  
    37   14   34 1  
    38   15   35 1  
    39   15   36 1  
    40   16   37 1  
    41   16   38 1  
    42   17   39 1  
    43   17   40 1  
    44   18   41 1  
    45   18   42 1  
    46   20   43 1  
    47   21   44 1  
    48   21   45 1  
    49   21   46 1  
    50   22   47 1  
    51   23   48 1  
    52   23   49 1  
    53   24   50 1  
    54   24   51 1  
    55   25   52 1  
    56   26   53 1  
@<TRIPOS>SUBSTRUCTURE
     1 WZA         1

