### 
### Created by X-TOOL on Sun Sep  9 21:51:15 2018
### 

@<TRIPOS>MOLECULE
2x7x_ligand
   24    24     1     0     0
SMALL
GAST_HUCK


@<TRIPOS>ATOM
      1 C1         25.8010   40.7190   54.2890 C.3       1 NON         0.1006
      2 C2         26.8970   41.7160   54.6190 C.3       1 NON         0.2205
      3 C3         28.2900   41.1400   54.3800 C.3       1 NON         0.1392
      4 C4         29.0760   41.7130   55.5430 C.3       1 NON         0.1144
      5 C5         28.0460   41.6270   56.6610 C.3       1 NON         0.1134
      6 C6         28.2760   42.5780   57.8340 C.3       1 NON         0.0730
      7 O1         24.5520   41.3970   54.1820 O.3       1 NON        -0.3896
      8 O2         26.6650   42.9110   53.8650 O.3       1 NON        -0.3608
      9 O3         28.8230   41.4780   53.0910 O.3       1 NON        -0.3837
     10 O4         30.2760   40.9820   55.8180 O.3       1 NON        -0.3864
     11 O5         26.8320   42.0100   56.0090 O.3       1 NON        -0.3364
     12 O6         27.3100   42.3060   58.8690 O.3       1 NON        -0.3924
     13 H          25.7406   39.9728   55.0812 H         1 NON         0.0612
     14 H          26.0297   40.2308   53.3417 H         1 NON         0.0612
     15 H          28.3152   40.0507   54.3519 H         1 NON         0.0675
     16 H          29.4563   42.7203   55.3732 H         1 NON         0.0648
     17 H          28.0689   40.6317   57.1048 H         1 NON         0.0647
     18 H          28.1647   43.6077   57.4944 H         1 NON         0.0584
     19 H          29.2818   42.4325   58.2281 H         1 NON         0.0584
     20 H          24.6050   42.0550   53.4850 H         1 NON         0.2096
     21 H          25.7960   43.2589   54.0781 H         1 NON         0.2129
     22 H          29.7201   41.1436   53.0192 H         1 NON         0.2101
     23 H          30.8823   41.0750   55.0795 H         1 NON         0.2100
     24 H          27.4091   41.3989   59.1673 H         1 NON         0.2095
@<TRIPOS>BOND
     1    1    2 1  
     2    1    7 1  
     3    2    3 1  
     4    2    8 1  
     5    2   11 1  
     6    3    4 1  
     7    3    9 1  
     8    4    5 1  
     9    4   10 1  
    10    5    6 1  
    11    5   11 1  
    12    6   12 1  
    13    1   13 1  
    14    1   14 1  
    15    3   15 1  
    16    4   16 1  
    17    5   17 1  
    18    6   18 1  
    19    6   19 1  
    20    7   20 1  
    21    8   21 1  
    22    9   22 1  
    23   10   23 1  
    24   12   24 1  
@<TRIPOS>SUBSTRUCTURE
     1 NON         1

