### 
### Created by X-TOOL on Mon Sep 10 21:13:04 2018
### 

@<TRIPOS>MOLECULE
2x81_ligand
   48    52     1     0     0
SMALL
GAST_HUCK


@<TRIPOS>ATOM
      1 C13         4.6920  -28.6780   -9.0680 C.3       1 ZZL         0.0407
      2 C15         6.5130  -28.2690   -7.3510 C.2       1 ZZL         0.0550
      3 C17         8.5990  -29.0370   -6.3780 C.ar      1 ZZL         0.1522
      4 C20        10.6650  -27.8530   -6.7940 C.ar      1 ZZL        -0.0589
      5 C21         9.9760  -26.9400   -7.5900 C.ar      1 ZZL        -0.0237
      6 C22         8.6010  -27.0700   -7.7800 C.ar      1 ZZL         0.1522
      7 C24         5.6650  -28.2580   -6.2310 C.ar      1 ZZL         0.0251
      8 C26         5.2700  -27.2390   -4.0920 C.ar      1 ZZL         0.0501
      9 C28         4.1490  -28.0390   -3.8920 C.ar      1 ZZL        -0.0388
     10 O01        -0.5150  -34.6770   -1.3120 O.co2     1 ZZL        -0.5638
     11 C02         0.6910  -34.3820   -1.4410 C.2       1 ZZL         0.0552
     12 O03         1.5030  -34.3410   -0.4950 O.co2     1 ZZL        -0.5638
     13 C04         1.1870  -34.0380   -2.8490 C.ar      1 ZZL        -0.0018
     14 C05         2.2200  -33.1200   -3.0390 C.ar      1 ZZL        -0.0573
     15 C06         2.6530  -32.8120   -4.3280 C.ar      1 ZZL        -0.0347
     16 C07         2.0470  -33.4100   -5.4370 C.ar      1 ZZL         0.0671
     17 N08         2.4290  -33.1690   -6.7010 N.pl3     1 ZZL        -0.2432
     18 C09         2.9880  -32.0550   -7.1910 C.ar      1 ZZL         0.2053
     19 N10         3.0360  -31.9220   -8.5340 N.ar      1 ZZL        -0.2577
     20 C11         3.5720  -30.8570   -9.1120 C.ar      1 ZZL         0.0185
     21 C12         4.0930  -29.8590   -8.3020 C.ar      1 ZZL         0.0154
     22 N14         6.0790  -28.4640   -8.6030 N.2       1 ZZL        -0.3323
     23 C16         7.8970  -28.1220   -7.1720 C.ar      1 ZZL         0.0838
     24 F18         7.9540  -30.0570   -5.7800 F         1 ZZL        -0.1759
     25 C19         9.9740  -28.8990   -6.1890 C.ar      1 ZZL        -0.0237
     26 F23         7.9700  -26.1630   -8.5550 F         1 ZZL        -0.1759
     27 C25         6.0350  -27.3380   -5.2530 C.ar      1 ZZL        -0.0267
     28 CL1         5.7160  -26.0990   -2.8800 Cl        1 ZZL        -0.0667
     29 C29         3.7750  -28.9560   -4.8670 C.ar      1 ZZL        -0.0425
     30 C30         4.5440  -29.0670   -6.0260 C.ar      1 ZZL         0.0182
     31 C31         4.0540  -30.0060   -6.9280 C.ar      1 ZZL         0.0633
     32 N32         3.4990  -31.1010   -6.3880 N.ar      1 ZZL        -0.2522
     33 C33         1.0160  -34.3260   -5.2350 C.ar      1 ZZL        -0.0347
     34 C34         0.5850  -34.6390   -3.9500 C.ar      1 ZZL        -0.0573
     35 H           4.0991  -27.7813   -8.8876 H         1 ZZL         0.0550
     36 H           4.6891  -28.8910  -10.1370 H         1 ZZL         0.0550
     37 H          11.7398  -27.7486   -6.6458 H         1 ZZL         0.0651
     38 H          10.5145  -26.1206   -8.0662 H         1 ZZL         0.0588
     39 H           3.5671  -27.9468   -2.9750 H         1 ZZL         0.0679
     40 H           2.6893  -32.6429   -2.1786 H         1 ZZL         0.0621
     41 H           3.4674  -32.1020   -4.4717 H         1 ZZL         0.0543
     42 H           2.2751  -33.9249   -7.3683 H         1 ZZL         0.2170
     43 H           3.6027  -30.7674  -10.1979 H         1 ZZL         0.0835
     44 H          10.5101  -29.6137   -5.5645 H         1 ZZL         0.0588
     45 H           6.9106  -26.7042   -5.3935 H         1 ZZL         0.0697
     46 H           2.8924  -29.5804   -4.7281 H         1 ZZL         0.0662
     47 H           0.5423  -34.8023   -6.0934 H         1 ZZL         0.0543
     48 H          -0.2241  -35.3549   -3.8057 H         1 ZZL         0.0621
@<TRIPOS>BOND
     1   21    1 1  
     2    1   22 1  
     3    2    7 1  
     4   22    2 2  
     5    2   23 1  
     6   23    3 ar 
     7    3   24 1  
     8    3   25 ar 
     9    5    4 ar 
    10   25    4 ar 
    11    6    5 ar 
    12   23    6 ar 
    13    6   26 1  
    14    7   27 ar 
    15    7   30 ar 
    16    8    9 ar 
    17   27    8 ar 
    18    8   28 1  
    19    9   29 ar 
    20   11   10 ar 
    21   11   12 ar 
    22   13   11 1  
    23   14   13 ar 
    24   13   34 ar 
    25   15   14 ar 
    26   16   15 ar 
    27   17   16 1  
    28   16   33 ar 
    29   18   17 1  
    30   19   18 ar 
    31   18   32 ar 
    32   20   19 ar 
    33   20   21 ar 
    34   21   31 ar 
    35   29   30 ar 
    36   30   31 1  
    37   31   32 ar 
    38   33   34 ar 
    39    1   35 1  
    40    1   36 1  
    41    4   37 1  
    42    5   38 1  
    43    9   39 1  
    44   14   40 1  
    45   15   41 1  
    46   17   42 1  
    47   20   43 1  
    48   25   44 1  
    49   27   45 1  
    50   29   46 1  
    51   33   47 1  
    52   34   48 1  
@<TRIPOS>SUBSTRUCTURE
     1 ZZL         1

