### 
### Created by X-TOOL on Mon Sep 10 21:13:02 2018
### 

@<TRIPOS>MOLECULE
2x8d_ligand
   25    27     1     0     0
SMALL
GAST_HUCK


@<TRIPOS>ATOM
      1 C13         3.4390   -7.0760   17.0400 C.ar      1 X8D         0.0001
      2 C14         4.7560   -6.6960   17.0540 C.ar      1 X8D         0.0002
      3 C12         2.4910   -6.3010   17.6790 C.ar      1 X8D         0.0083
      4 C15         5.1290   -5.5390   17.7070 C.ar      1 X8D         0.0170
      5 C11         2.8500   -5.1390   18.3400 C.ar      1 X8D         0.0733
      6 C10         4.1770   -4.7760   18.3490 C.ar      1 X8D         0.1145
      7 C3          2.2300   -3.1990   19.6790 C.ar      1 X8D         0.0433
      8 C2          1.8550   -4.3050   19.0270 C.ar      1 X8D         0.0280
      9 C4          3.6690   -2.8450   19.6220 C.ar      1 X8D         0.1954
     10 C7          5.8700   -2.8530   19.1750 C.2       1 X8D         0.3161
     11 C1          0.4360   -4.7280   19.0070 C.3       1 X8D        -0.0002
     12 N5          4.1850   -1.7690   20.1450 N.pl3     1 X8D        -0.1777
     13 N6          5.5300   -1.7480   19.8820 N.am      1 X8D        -0.1581
     14 N9          4.5290   -3.5840   19.0180 N.ar      1 X8D        -0.1986
     15 O8          6.9340   -3.2650   18.7330 O.2       1 X8D        -0.3522
     16 H1          3.1418   -7.9840   16.5278 H         1 X8D         0.0961
     17 H2          5.5022   -7.3025   16.5536 H         1 X8D         0.0851
     18 H3          1.4512   -6.6070   17.6626 H         1 X8D         0.1070
     19 H4          6.1682   -5.2307   17.7152 H         1 X8D         0.1118
     20 H5          1.5164   -2.5907   20.2229 H         1 X8D         0.0760
     21 H6          0.3378   -5.6544   18.4221 H         1 X8D         0.0551
     22 H7         -0.1758   -3.9377   18.5475 H         1 X8D         0.0551
     23 H8          0.0919   -4.9062   20.0365 H         1 X8D         0.0551
     24 H9          3.6665   -1.0509   20.6707 H         1 X8D         0.2277
     25 H10         6.1628   -1.0283   20.1677 H         1 X8D         0.2216
@<TRIPOS>BOND
     1    2    1 ar 
     2    3    1 ar 
     3    4    2 ar 
     4    5    3 ar 
     5    6    4 ar 
     6    6    5 ar 
     7    5    8 ar 
     8   14    6 ar 
     9    7    8 ar 
    10    9    7 ar 
    11    8   11 1  
    12    9   12 1  
    13   14    9 ar 
    14   10   13 am 
    15   10   14 1  
    16   10   15 2  
    17   12   13 1  
    18    1   16 1  
    19    2   17 1  
    20    3   18 1  
    21    4   19 1  
    22    7   20 1  
    23   11   21 1  
    24   11   22 1  
    25   11   23 1  
    26   12   24 1  
    27   13   25 1  
@<TRIPOS>SUBSTRUCTURE
     1 X8D         1

