### 
### Created by X-TOOL on Mon Sep 10 21:13:04 2018
### 

@<TRIPOS>MOLECULE
2x8e_ligand
   34    37     1     0     0
SMALL
GAST_HUCK


@<TRIPOS>ATOM
      1 C13         1.5480   -5.1810   18.6410 C.ar      1 X8E         0.0034
      2 C12         2.6590   -5.5920   17.9370 C.ar      1 X8E         0.0009
      3 C17        -0.4970   -4.4670   20.5640 C.ar      1 X8E        -0.0181
      4 C21         0.3060   -2.2540   20.7060 C.ar      1 X8E        -0.0181
      5 C15         2.7850   -3.3640   19.5330 C.ar      1 X8E         0.0328
      6 C18        -1.6260   -3.9600   21.3670 C.ar      1 X8E         0.0170
      7 C20        -0.7300   -1.8750   21.4510 C.ar      1 X8E         0.0170
      8 C14         1.5980   -4.0610   19.4480 C.ar      1 X8E         0.0554
      9 C16         0.4490   -3.5910   20.2270 C.ar      1 X8E         0.0268
     10 C11         3.8420   -4.8910   18.0220 C.ar      1 X8E         0.0683
     11 C10         3.8890   -3.7770   18.8260 C.ar      1 X8E         0.1154
     12 C3          6.1790   -4.6280   17.4340 C.ar      1 X8E         0.0424
     13 C2          5.0360   -5.3070   17.2970 C.ar      1 X8E         0.0261
     14 C4          6.1520   -3.4370   18.2940 C.ar      1 X8E         0.1908
     15 C7          5.4970   -1.7890   19.6670 C.2       1 X8E         0.3129
     16 C1          4.9640   -6.5220   16.4520 C.3       1 X8E        -0.0017
     17 N19        -1.6600   -2.6500   21.7850 N.ar      1 X8E        -0.2916
     18 N5          7.1660   -2.6530   18.4970 N.pl3     1 X8E        -0.1818
     19 N6          6.8050   -1.6440   19.3400 N.am      1 X8E        -0.1607
     20 N9          5.0940   -3.0730   18.9100 N.ar      1 X8E        -0.2026
     21 O8          4.7270   -1.1320   20.3510 O.2       1 X8E        -0.3529
     22 H           0.6194   -5.7460   18.5602 H         1 X8E         0.0878
     23 H           2.6013   -6.4797   17.3072 H         1 X8E         0.1037
     24 H          -0.4392   -5.5121   20.2598 H         1 X8E         0.0759
     25 H           1.0704   -1.5191   20.4534 H         1 X8E         0.0759
     26 H           2.8481   -2.4787   20.1658 H         1 X8E         0.1217
     27 H          -2.4427   -4.6314   21.6321 H         1 X8E         0.0837
     28 H          -0.7733   -0.8394   21.7883 H         1 X8E         0.0837
     29 H           7.0920   -4.9442   16.9294 H         1 X8E         0.0797
     30 H           5.2309   -6.2662   15.4266 H         1 X8E         0.0539
     31 H           5.6587   -7.2702   16.8338 H         1 X8E         0.0539
     32 H           3.9496   -6.9203   16.4762 H         1 X8E         0.0539
     33 H           8.0926   -2.7734   18.0879 H         1 X8E         0.2237
     34 H           7.4195   -0.9003   19.6712 H         1 X8E         0.2209
@<TRIPOS>BOND
     1    2    1 ar 
     2    8    1 ar 
     3   10    2 ar 
     4    3    6 ar 
     5    9    3 ar 
     6    4    7 ar 
     7    9    4 ar 
     8    5    8 ar 
     9   11    5 ar 
    10    6   17 ar 
    11    7   17 ar 
    12    8    9 1  
    13   11   10 ar 
    14   10   13 ar 
    15   20   11 ar 
    16   12   13 ar 
    17   14   12 ar 
    18   13   16 1  
    19   14   18 1  
    20   20   14 ar 
    21   15   19 am 
    22   15   20 1  
    23   15   21 2  
    24   18   19 1  
    25    1   22 1  
    26    2   23 1  
    27    3   24 1  
    28    4   25 1  
    29    5   26 1  
    30    6   27 1  
    31    7   28 1  
    32   12   29 1  
    33   16   30 1  
    34   16   31 1  
    35   16   32 1  
    36   18   33 1  
    37   19   34 1  
@<TRIPOS>SUBSTRUCTURE
     1 X8E         1

