### 
### Created by X-TOOL on Mon Sep 10 21:13:03 2018
### 

@<TRIPOS>MOLECULE
2x8i_ligand
   36    39     1     0     0
SMALL
GAST_HUCK


@<TRIPOS>ATOM
      1 C18         5.7500   -7.8680   38.1250 C.ar      1 X8I        -0.0467
      2 C17         5.4030   -6.9260   39.0690 C.ar      1 X8I        -0.0381
      3 C14         5.2900   -4.5210   40.7990 C.ar      1 X8I        -0.0066
      4 C15         4.9810   -3.5660   41.7390 C.ar      1 X8I        -0.0020
      5 C19         5.5700   -7.6100   36.7850 C.ar      1 X8I        -0.0113
      6 C12         3.3710   -3.9220   39.5430 C.ar      1 X8I         0.0182
      7 C21         4.6890   -5.4510   37.3540 C.ar      1 X8I        -0.0040
      8 C13         4.4950   -4.7130   39.6910 C.ar      1 X8I         0.0450
      9 C16         4.8630   -5.7080   38.7000 C.ar      1 X8I         0.0180
     10 C11         3.0470   -2.9550   40.4770 C.ar      1 X8I         0.0673
     11 C10         3.8610   -2.7870   41.5730 C.ar      1 X8I         0.0942
     12 C20         5.0390   -6.3970   36.4140 C.ar      1 X8I         0.1077
     13 C3          1.5940   -1.1570   41.2300 C.ar      1 X8I         0.0291
     14 C2          1.8680   -2.1040   40.3240 C.ar      1 X8I         0.0171
     15 C4          2.5210   -1.0130   42.3640 C.ar      1 X8I         0.1781
     16 C7          4.2330   -1.3090   43.7860 C.2       1 X8I         0.3031
     17 C1          0.9850   -2.3180   39.1440 C.3       1 X8I        -0.0058
     18 N5          2.4060   -0.1200   43.3100 N.pl3     1 X8I        -0.1806
     19 N6          3.4450   -0.2750   44.1910 N.am      1 X8I        -0.1609
     20 N9          3.5310   -1.7880   42.5020 N.ar      1 X8I        -0.2130
     21 O8          5.2470   -1.8320   44.2280 O.2       1 X8I        -0.3554
     22 O22         4.8530   -6.1260   35.0750 O.3       1 X8I        -0.3268
     23 H1          6.1672   -8.8178   38.4396 H         1 X8I         0.0653
     24 H2          5.5562   -7.1439   40.1198 H         1 X8I         0.0694
     25 H3          6.1746   -5.1332   40.9325 H         1 X8I         0.0760
     26 H4          5.6171   -3.4284   42.6059 H         1 X8I         0.0939
     27 H5          5.8411   -8.3473   36.0380 H         1 X8I         0.0731
     28 H6          2.7318   -4.0623   38.6789 H         1 X8I         0.1105
     29 H7          4.2753   -4.5011   37.0352 H         1 X8I         0.0632
     30 H8          0.7222   -0.5203   41.1319 H         1 X8I         0.0670
     31 H9          1.3863   -3.1374   38.5296 H         1 X8I         0.0519
     32 H10         0.9441   -1.3965   38.5447 H         1 X8I         0.0519
     33 H11        -0.0275   -2.5782   39.4861 H         1 X8I         0.0519
     34 H12         1.6581    0.5845   43.3823 H         1 X8I         0.2280
     35 H13         3.6001    0.2847   45.0051 H         1 X8I         0.2213
     36 H14         3.9315   -5.9627   34.9111 H         1 X8I         0.2502
@<TRIPOS>BOND
     1    2    1 ar 
     2    1    5 ar 
     3    9    2 ar 
     4    4    3 ar 
     5    3    8 ar 
     6   11    4 ar 
     7   12    5 ar 
     8    6    8 ar 
     9   10    6 ar 
    10    9    7 ar 
    11    7   12 ar 
    12    8    9 1  
    13   11   10 ar 
    14   10   14 ar 
    15   20   11 ar 
    16   12   22 1  
    17   13   14 ar 
    18   15   13 ar 
    19   14   17 1  
    20   15   18 1  
    21   20   15 ar 
    22   16   19 am 
    23   16   20 1  
    24   16   21 2  
    25   18   19 1  
    26    1   23 1  
    27    2   24 1  
    28    3   25 1  
    29    4   26 1  
    30    5   27 1  
    31    6   28 1  
    32    7   29 1  
    33   13   30 1  
    34   17   31 1  
    35   17   32 1  
    36   17   33 1  
    37   18   34 1  
    38   19   35 1  
    39   22   36 1  
@<TRIPOS>SUBSTRUCTURE
     1 X8I         1

