### 
### Created by X-TOOL on Mon Sep 10 21:13:03 2018
### 

@<TRIPOS>MOLECULE
2x8z_ligand
   28    28     1     0     0
SMALL
GAST_HUCK


@<TRIPOS>ATOM
      1 O1         29.5500    2.8090  -42.5400 O.2       1 X8Z        -0.3964
      2 C4         29.0130    3.7410  -43.2180 C.2       1 X8Z         0.1838
      3 C2         27.4920    3.7420  -43.3960 C.3       1 X8Z         0.0548
      4 C1         27.0060    2.2880  -43.3910 C.3       1 X8Z         0.0101
      5 S          27.1070    1.4620  -44.9800 S.3       1 X8Z        -0.1756
      6 C3         26.8970    4.5800  -42.2530 C.3       1 X8Z        -0.0446
      7 N          29.7960    4.7060  -43.7490 N.am      1 X8Z        -0.2572
      8 C8         31.2920    4.7310  -43.5470 C.3       1 X8Z         0.0971
      9 C9         31.6420    4.9440  -42.0560 C.2       1 X8Z         0.0603
     10 O3         30.8550    5.4310  -41.2690 O.co2     1 X8Z        -0.5666
     11 O2         32.8170    4.5760  -41.6830 O.co2     1 X8Z        -0.5666
     12 C5         29.3770    5.8960  -44.5790 C.3       1 X8Z         0.0362
     13 C6         30.6130    6.6710  -44.8540 C.3       1 X8Z        -0.0288
     14 C7         31.7960    5.8760  -44.3820 C.3       1 X8Z        -0.0159
     15 H1         27.2248    4.2041  -44.3578 H         1 X8Z         0.0543
     16 H2         25.9553    2.2784  -43.0655 H         1 X8Z         0.0401
     17 H3         27.6179    1.7241  -42.6716 H         1 X8Z         0.0401
     18 H4         28.0659    1.4494  -45.2904 H         1 X8Z         0.1018
     19 H5         27.2835    5.6082  -42.3126 H         1 X8Z         0.0257
     20 H6         27.1811    4.1369  -41.2871 H         1 X8Z         0.0257
     21 H7         25.8007    4.5947  -42.3414 H         1 X8Z         0.0257
     22 H8         31.7371    3.7857  -43.8910 H         1 X8Z         0.0728
     23 H9         28.6567    6.5135  -44.0223 H         1 X8Z         0.0524
     24 H10        28.9206    5.5605  -45.5219 H         1 X8Z         0.0524
     25 H11        30.5748    7.6309  -44.3181 H         1 X8Z         0.0286
     26 H12        30.7000    6.8575  -45.9346 H         1 X8Z         0.0286
     27 H13        32.3530    5.4883  -45.2477 H         1 X8Z         0.0306
     28 H14        32.4563    6.5150  -43.7774 H         1 X8Z         0.0306
@<TRIPOS>BOND
     1    1    2 2  
     2    2    3 1  
     3    2    7 am 
     4    3    4 1  
     5    3    6 1  
     6    4    5 1  
     7    7    8 1  
     8    7   12 1  
     9    8    9 1  
    10    8   14 1  
    11    9   10 ar 
    12    9   11 ar 
    13   12   13 1  
    14   13   14 1  
    15    3   15 1  
    16    4   16 1  
    17    4   17 1  
    18    5   18 1  
    19    6   19 1  
    20    6   20 1  
    21    6   21 1  
    22    8   22 1  
    23   12   23 1  
    24   12   24 1  
    25   13   25 1  
    26   13   26 1  
    27   14   27 1  
    28   14   28 1  
@<TRIPOS>SUBSTRUCTURE
     1 X8Z         1

