### 
### Created by X-TOOL on Mon Sep 10 21:13:03 2018
### 

@<TRIPOS>MOLECULE
2x91_ligand
   60    61     1     0     0
SMALL
GAST_HUCK


@<TRIPOS>ATOM
      1 O1         29.7170   -3.0590   43.2660 O.2       1 LPR        -0.3906
      2 O2         27.6470   -1.4010   46.8380 O.co2     1 LPR        -0.5643
      3 O3         25.7080   -1.5690   45.8300 O.co2     1 LPR        -0.5643
      4 O4         30.9370   -5.8120   42.5300 O.co2     1 LPR        -0.5666
      5 O5         32.6950   -4.6030   43.0570 O.co2     1 LPR        -0.5666
      6 N1         27.2260   -2.2050   43.5020 N.4       1 LPR         0.2599
      7 N2         29.5760   -4.7520   44.7620 N.am      1 LPR        -0.2529
      8 N3         27.5510   -7.4620   38.8350 N.4       1 LPR         0.2185
      9 C1         28.9880   -3.8170   43.9850 C.2       1 LPR         0.2288
     10 C2         27.4320   -3.6340   43.9290 C.3       1 LPR         0.0685
     11 C3         26.9530   -1.3680   45.8110 C.2       1 LPR         0.0847
     12 C4         27.6030   -1.0720   44.4550 C.3       1 LPR         0.0340
     13 C5         31.0830   -4.8930   44.7430 C.3       1 LPR         0.0973
     14 C6         31.2840   -6.1180   45.6500 C.3       1 LPR        -0.0159
     15 C7         30.1550   -6.2620   46.4070 C.3       1 LPR        -0.0288
     16 C8         28.9680   -5.7550   45.6810 C.3       1 LPR         0.0363
     17 C9         31.5740   -5.1700   43.3080 C.2       1 LPR         0.0603
     18 C10        26.9060   -4.6770   42.9770 C.3       1 LPR         0.0082
     19 C11        27.5120   -4.7990   41.6610 C.3       1 LPR        -0.0410
     20 C12        26.9470   -5.9390   40.6730 C.3       1 LPR        -0.0123
     21 C13        28.0000   -6.3890   39.7950 C.3       1 LPR        -0.0354
     22 C14        27.2030    0.3170   43.8640 C.3       1 LPR         0.0122
     23 C15        27.8870    1.4460   44.6210 C.3       1 LPR        -0.0125
     24 C16        27.5990    2.8670   44.2280 C.ar      1 LPR        -0.0427
     25 C17        28.1750    3.9280   44.9920 C.ar      1 LPR        -0.0603
     26 C18        27.9260    5.2860   44.6480 C.ar      1 LPR        -0.0686
     27 C19        27.0840    5.5930   43.5280 C.ar      1 LPR        -0.0687
     28 C20        26.4990    4.5380   42.7600 C.ar      1 LPR        -0.0686
     29 C21        26.7580    3.1800   43.1080 C.ar      1 LPR        -0.0603
     30 H1         26.2451   -2.0995   43.2951 H         1 LPR         0.2052
     31 H2         27.7634   -2.0705   42.6599 H         1 LPR         0.2052
     32 H3         28.3253   -7.7351   38.2503 H         1 LPR         0.1994
     33 H4         26.8041   -7.1064   38.2590 H         1 LPR         0.1994
     34 H5         27.2235   -8.2616   39.3540 H         1 LPR         0.1994
     35 H6         26.9771   -3.7891   44.9185 H         1 LPR         0.1099
     36 H7         28.6947   -1.0732   44.5895 H         1 LPR         0.1027
     37 H8         31.5849   -4.0011   45.1463 H         1 LPR         0.0728
     38 H9         32.1557   -5.9624   46.3026 H         1 LPR         0.0306
     39 H10        31.4412   -7.0173   45.0363 H         1 LPR         0.0306
     40 H11        30.2738   -5.6969   47.3432 H         1 LPR         0.0286
     41 H12        30.0088   -7.3275   46.6378 H         1 LPR         0.0286
     42 H13        28.4676   -6.5590   45.1214 H         1 LPR         0.0524
     43 H14        28.2495   -5.2844   46.3682 H         1 LPR         0.0524
     44 H15        25.8383   -4.4627   42.8217 H         1 LPR         0.0346
     45 H16        27.0158   -5.6521   43.4742 H         1 LPR         0.0346
     46 H17        28.5835   -4.9974   41.8110 H         1 LPR         0.0270
     47 H18        27.3859   -3.8323   41.1515 H         1 LPR         0.0270
     48 H19        26.1223   -5.5267   40.0731 H         1 LPR         0.0317
     49 H20        26.5791   -6.7882   41.2675 H         1 LPR         0.0317
     50 H21        28.3628   -5.5285   39.2137 H         1 LPR         0.0813
     51 H22        28.8205   -6.7892   40.4087 H         1 LPR         0.0813
     52 H23        26.1127    0.4407   43.9407 H         1 LPR         0.0361
     53 H24        27.5033    0.3586   42.8066 H         1 LPR         0.0361
     54 H25        28.9713    1.2955   44.5133 H         1 LPR         0.0429
     55 H26        27.6056    1.3412   45.6792 H         1 LPR         0.0429
     56 H27        28.8074    3.6963   45.8414 H         1 LPR         0.0557
     57 H28        28.3707    6.0852   45.2298 H         1 LPR         0.0599
     58 H29        26.8908    6.6263   43.2634 H         1 LPR         0.0559
     59 H30        25.8603    4.7703   41.9155 H         1 LPR         0.0599
     60 H31        26.3176    2.3800   42.5239 H         1 LPR         0.0557
@<TRIPOS>BOND
     1    9    1 2  
     2   11    2 ar 
     3   11    3 ar 
     4   17    4 ar 
     5   17    5 ar 
     6   10    6 1  
     7    6   12 1  
     8    9    7 am 
     9    7   13 1  
    10    7   16 1  
    11   21    8 1  
    12   10    9 1  
    13   18   10 1  
    14   12   11 1  
    15   12   22 1  
    16   13   14 1  
    17   13   17 1  
    18   15   14 1  
    19   16   15 1  
    20   19   18 1  
    21   20   19 1  
    22   20   21 1  
    23   22   23 1  
    24   23   24 1  
    25   24   25 ar 
    26   24   29 ar 
    27   25   26 ar 
    28   26   27 ar 
    29   27   28 ar 
    30   28   29 ar 
    31    6   30 1  
    32    6   31 1  
    33    8   32 1  
    34    8   33 1  
    35    8   34 1  
    36   10   35 1  
    37   12   36 1  
    38   13   37 1  
    39   14   38 1  
    40   14   39 1  
    41   15   40 1  
    42   15   41 1  
    43   16   42 1  
    44   16   43 1  
    45   18   44 1  
    46   18   45 1  
    47   19   46 1  
    48   19   47 1  
    49   20   48 1  
    50   20   49 1  
    51   21   50 1  
    52   21   51 1  
    53   22   52 1  
    54   22   53 1  
    55   23   54 1  
    56   23   55 1  
    57   25   56 1  
    58   26   57 1  
    59   27   58 1  
    60   28   59 1  
    61   29   60 1  
@<TRIPOS>SUBSTRUCTURE
     1 LPR         1

