### 
### Created by X-TOOL on Mon Sep 10 21:13:03 2018
### 

@<TRIPOS>MOLECULE
2x95_ligand
   70    72     1     0     0
SMALL
GAST_HUCK


@<TRIPOS>ATOM
      1 C          26.7300   -1.3200  -23.1370 C.2       1 X95         0.0847
      2 N          27.2250   -1.9440  -25.4550 N.4       1 X95         0.2599
      3 OXT        25.4960   -1.4890  -23.2390 O.co2     1 X95        -0.5643
      4 CA         27.4940   -0.9560  -24.4020 C.3       1 X95         0.0340
      5 CB         27.0770    0.4350  -24.8920 C.3       1 X95         0.0122
      6 NAA        27.4410   -7.9580  -29.3290 N.4       1 X95         0.2185
      7 OAC        31.1390   -4.9550  -27.0220 O.co2     1 X95        -0.5665
      8 OAD        29.8300   -2.7260  -25.5920 O.2       1 X95        -0.3908
      9 OAF        32.8260   -4.6080  -25.6230 O.co2     1 X95        -0.5665
     10 CAG        26.9290    5.5780  -25.2900 C.ar      1 X95        -0.0687
     11 CAH        27.7820    5.3050  -24.2180 C.ar      1 X95        -0.0686
     12 CAI        26.4150    4.5300  -26.0540 C.ar      1 X95        -0.0686
     13 CAJ        27.4900   -9.5700  -23.5590 C.ar      1 X95        -0.0768
     14 CAK        28.1970   -9.0640  -24.6480 C.ar      1 X95        -0.0792
     15 CAL        28.1210    3.9870  -23.9140 C.ar      1 X95        -0.0603
     16 CAM        26.7610    3.2110  -25.7530 C.ar      1 X95        -0.0603
     17 CAN        27.7730   -9.1020  -22.2760 C.ar      1 X95        -0.0443
     18 CAO        29.1810   -8.0950  -24.4520 C.ar      1 X95        -0.0747
     19 CAP        30.1700   -6.6540  -21.3330 C.2       1 X95         0.0166
     20 CAQ        27.5680   -7.5520  -27.9160 C.3       1 X95        -0.0354
     21 CAR        27.1690   -6.0840  -27.7660 C.3       1 X95        -0.0123
     22 CAS        27.2550   -5.6260  -26.3040 C.3       1 X95        -0.0410
     23 CAT        28.0100    1.4990  -24.3180 C.3       1 X95        -0.0125
     24 CAU        26.8240   -4.1660  -26.1730 C.3       1 X95         0.0081
     25 CAW        31.3750   -5.8060  -23.4180 C.3       1 X95        -0.0013
     26 NAX        29.4260   -4.7940  -24.6990 N.am      1 X95        -0.2657
     27 CBB        31.6610   -4.9540  -25.8920 C.2       1 X95         0.0613
     28 CBC        29.0680   -3.5900  -25.1600 C.2       1 X95         0.2263
     29 CBD        27.6120    2.9350  -24.6800 C.ar      1 X95        -0.0427
     30 CBE        30.3650   -6.6830  -22.6500 C.2       1 X95        -0.0424
     31 CBF        28.7570   -8.1280  -22.0850 C.ar      1 X95         0.0603
     32 CBG        29.4640   -7.6210  -23.1680 C.ar      1 X95        -0.0214
     33 CBI        27.5480   -3.3350  -25.0970 C.3       1 X95         0.0683
     34 CBJ        30.7430   -5.4950  -24.7820 C.3       1 X95         0.0987
     35 O          27.4050   -1.4350  -22.0930 O.co2     1 X95        -0.5643
     36 NXZ        29.2130   -7.5200  -20.9930 N.pl3     1 X95        -0.2891
     37 H1         27.7704   -1.6945  -26.2652 H         1 X95         0.2052
     38 H2         26.2442   -1.8992  -25.6833 H         1 X95         0.2052
     39 H3         28.5712   -0.9508  -24.1795 H         1 X95         0.1027
     40 H4         26.0469    0.6412  -24.5660 H         1 X95         0.0361
     41 H5         27.1265    0.4630  -25.9905 H         1 X95         0.0361
     42 H6         27.7046   -8.9261  -29.4254 H         1 X95         0.1994
     43 H7         28.0457   -7.3869  -29.8984 H         1 X95         0.1994
     44 H8         26.4860   -7.8384  -29.6285 H         1 X95         0.1994
     45 H9         26.6669    6.6026  -25.5279 H         1 X95         0.0559
     46 H10        28.1806    6.1181  -23.6222 H         1 X95         0.0599
     47 H11        25.7469    4.7396  -26.8815 H         1 X95         0.0599
     48 H12        26.7246  -10.3229  -23.7082 H         1 X95         0.0530
     49 H13        27.9822   -9.4236  -25.6478 H         1 X95         0.0510
     50 H14        28.7817    3.7778  -23.0805 H         1 X95         0.0557
     51 H15        26.3681    2.3988  -26.3538 H         1 X95         0.0557
     52 H16        27.2285   -9.4946  -21.4249 H         1 X95         0.0541
     53 H17        29.7304   -7.7066  -25.3020 H         1 X95         0.0540
     54 H18        30.7120   -6.0170  -20.6356 H         1 X95         0.0795
     55 H19        28.6103   -7.6831  -27.5897 H         1 X95         0.0813
     56 H20        26.9082   -8.1758  -27.2952 H         1 X95         0.0813
     57 H21        26.1356   -5.9561  -28.1207 H         1 X95         0.0317
     58 H22        27.8449   -5.4656  -28.3749 H         1 X95         0.0317
     59 H23        28.2922   -5.7298  -25.9528 H         1 X95         0.0270
     60 H24        26.5947   -6.2547  -25.6885 H         1 X95         0.0270
     61 H25        29.0242    1.3136  -24.7014 H         1 X95         0.0429
     62 H26        28.0095    1.4053  -23.2220 H         1 X95         0.0429
     63 H27        25.7492   -4.1534  -25.9393 H         1 X95         0.0346
     64 H28        26.9939   -3.6779  -27.1440 H         1 X95         0.0346
     65 H29        32.3218   -6.3491  -23.5541 H         1 X95         0.0390
     66 H30        31.5634   -4.8733  -22.8662 H         1 X95         0.0390
     67 H31        28.7038   -5.3008  -24.2283 H         1 X95         0.1878
     68 H32        27.1746   -3.5779  -24.0913 H         1 X95         0.1099
     69 H33        30.4762   -6.4946  -25.1557 H         1 X95         0.0741
     70 H34        28.8792   -7.6911  -20.0337 H         1 X95         0.2216
@<TRIPOS>BOND
     1    1    3 ar 
     2    4    1 1  
     3    1   35 ar 
     4    2    4 1  
     5   33    2 1  
     6    4    5 1  
     7    5   23 1  
     8   20    6 1  
     9   27    7 ar 
    10   28    8 2  
    11   27    9 ar 
    12   11   10 ar 
    13   12   10 ar 
    14   15   11 ar 
    15   16   12 ar 
    16   14   13 ar 
    17   13   17 ar 
    18   18   14 ar 
    19   29   15 ar 
    20   29   16 ar 
    21   17   31 ar 
    22   32   18 ar 
    23   30   19 2  
    24   19   36 1  
    25   21   20 1  
    26   22   21 1  
    27   24   22 1  
    28   23   29 1  
    29   33   24 1  
    30   30   25 1  
    31   25   34 1  
    32   26   28 am 
    33   34   26 1  
    34   34   27 1  
    35   28   33 1  
    36   30   32 1  
    37   31   32 ar 
    38   31   36 1  
    39    2   37 1  
    40    2   38 1  
    41    4   39 1  
    42    5   40 1  
    43    5   41 1  
    44    6   42 1  
    45    6   43 1  
    46    6   44 1  
    47   10   45 1  
    48   11   46 1  
    49   12   47 1  
    50   13   48 1  
    51   14   49 1  
    52   15   50 1  
    53   16   51 1  
    54   17   52 1  
    55   18   53 1  
    56   19   54 1  
    57   20   55 1  
    58   20   56 1  
    59   21   57 1  
    60   21   58 1  
    61   22   59 1  
    62   22   60 1  
    63   23   61 1  
    64   23   62 1  
    65   24   63 1  
    66   24   64 1  
    67   25   65 1  
    68   25   66 1  
    69   26   67 1  
    70   33   68 1  
    71   34   69 1  
    72   36   70 1  
@<TRIPOS>SUBSTRUCTURE
     1 X95         1

