### 
### Created by X-TOOL on Mon Sep 10 21:13:04 2018
### 

@<TRIPOS>MOLECULE
2x9e_ligand
   89    94     1     0     0
SMALL
GAST_HUCK


@<TRIPOS>ATOM
      1 C1        -10.4810   24.7490   -2.5080 C.3       1 SVE        -0.0139
      2 C2         -9.6860   25.9970   -1.9600 C.3       1 SVE        -0.0072
      3 C3         -9.7410   23.4610   -2.3160 C.2       1 SVE         0.0109
      4 C4         -8.5820   23.3520   -1.7090 C.2       1 SVE         0.1142
      5 N5         -8.2170   21.9930   -1.7640 N.pl3     1 SVE        -0.1981
      6 N6         -9.1780   21.3010   -2.4090 N.2       1 SVE        -0.1837
      7 C7        -10.0900   22.1250   -2.7490 C.2       1 SVE         0.1297
      8 C8        -11.2660   21.7010   -3.4480 C.2       1 SVE         0.2346
      9 N9        -11.5020   20.3890   -3.4540 N.am      1 SVE        -0.2397
     10 O10       -12.0170   22.5010   -4.0260 O.2       1 SVE        -0.3773
     11 C11        -7.0250   21.3890   -1.2290 C.3       1 SVE         0.0599
     12 C12        -7.8760   24.4600   -1.0910 C.ar      1 SVE         0.0760
     13 C13        -8.3930   25.7030   -1.1690 C.ar      1 SVE         0.0023
     14 C14        -7.6600   26.7790   -0.4960 C.ar      1 SVE         0.0113
     15 N15        -6.5640   26.5100    0.1280 N.ar      1 SVE        -0.2655
     16 C16        -6.0460   25.1740    0.1800 C.ar      1 SVE         0.1962
     17 N17        -6.6770   24.2350   -0.3940 N.ar      1 SVE        -0.2599
     18 N18        -4.8500   24.8510    0.8600 N.pl3     1 SVE        -0.2461
     19 C19        -4.1950   23.5840    1.0170 C.ar      1 SVE         0.1001
     20 C20        -2.9030   23.5540    0.6770 C.ar      1 SVE         0.1300
     21 C21        -2.1120   22.2880    0.8310 C.ar      1 SVE        -0.0223
     22 C22        -2.6970   21.1770    1.3090 C.ar      1 SVE         0.0288
     23 C23        -4.1360   21.1910    1.6730 C.ar      1 SVE        -0.0625
     24 C24        -4.8550   22.3420    1.5360 C.ar      1 SVE        -0.0401
     25 O25        -2.3710   24.7760    0.1820 O.3       1 SVE        -0.2292
     26 C26        -1.8990   19.9850    1.4880 C.2       1 SVE         0.1939
     27 N27        -2.2270   18.8240    0.8970 N.am      1 SVE        -0.2846
     28 O28        -0.9040   20.0690    2.2390 O.2       1 SVE        -0.3902
     29 C29        -1.4690   17.6020    1.1610 C.3       1 SVE         0.0509
     30 C30        -1.8810   16.5010    0.1340 C.3       1 SVE         0.0106
     31 C31        -1.1720   15.1540    0.4740 C.3       1 SVE        -0.0300
     32 N32        -1.4920   14.7500    1.8840 N.4       1 SVE         0.2332
     33 C33        -0.9930   15.7620    2.8750 C.3       1 SVE        -0.0300
     34 C34        -1.7160   17.1110    2.6370 C.3       1 SVE         0.0106
     35 C35        -0.8790   13.4350    2.1750 C.3       1 SVE        -0.0431
     36 C36        -1.1730   25.2770    0.7460 C.3       1 SVE         0.5444
     37 F37        -0.1010   24.7050    0.0800 F         1 SVE        -0.1403
     38 F38        -1.1040   24.9590    2.0900 F         1 SVE        -0.1403
     39 F39        -1.1120   26.6650    0.6320 F         1 SVE        -0.1403
     40 C40       -12.6450   19.7810   -3.9960 C.ar      1 SVE         0.0707
     41 C41       -12.5880   19.3760   -5.2920 C.ar      1 SVE        -0.0275
     42 C42       -13.7770   18.7300   -5.9050 C.ar      1 SVE        -0.0801
     43 C43       -14.9090   18.5470   -5.1850 C.ar      1 SVE        -0.0903
     44 C44       -14.9800   18.9820   -3.7770 C.ar      1 SVE        -0.0801
     45 C45       -13.9110   19.5770   -3.1810 C.ar      1 SVE        -0.0275
     46 C46       -13.9640   20.0370   -1.7070 C.3       1 SVE        -0.0276
     47 C47       -15.3040   19.7770   -0.9860 C.3       1 SVE        -0.0576
     48 C48       -11.2890   19.5950   -6.0800 C.3       1 SVE        -0.0276
     49 C49       -11.3400   19.0990   -7.5280 C.3       1 SVE        -0.0576
     50 H1        -10.6636   24.8927   -3.5832 H         1 SVE         0.0414
     51 H2        -11.4428   24.6843   -1.9781 H         1 SVE         0.0414
     52 H3        -10.3616   26.5579   -1.2975 H         1 SVE         0.0447
     53 H4         -9.4140   26.6237   -2.8221 H         1 SVE         0.0447
     54 H5        -10.8129   19.7933   -3.0413 H         1 SVE         0.2207
     55 H6         -7.0365   20.3088   -1.4365 H         1 SVE         0.0600
     56 H7         -6.9869   21.5531   -0.1420 H         1 SVE         0.0600
     57 H8         -6.1407   21.8434   -1.6996 H         1 SVE         0.0600
     58 H9         -8.0369   27.7950   -0.5226 H         1 SVE         0.0810
     59 H10        -4.3763   25.6462    1.3118 H         1 SVE         0.2148
     60 H11        -1.0638   22.2699    0.5553 H         1 SVE         0.0554
     61 H12        -4.6128   20.2916    2.0456 H         1 SVE         0.0549
     62 H13        -5.9055   22.3587    1.8029 H         1 SVE         0.0516
     63 H14        -3.0024   18.7951    0.2661 H         1 SVE         0.1844
     64 H15        -0.3970   17.8161    1.0382 H         1 SVE         0.0559
     65 H16        -1.5889   16.8200   -0.8774 H         1 SVE         0.0339
     66 H17        -2.9709   16.3576    0.1728 H         1 SVE         0.0339
     67 H18        -0.0841   15.2775    0.3680 H         1 SVE         0.0815
     68 H19        -1.5216   14.3731   -0.2174 H         1 SVE         0.0815
     69 H20        -2.4928   14.6740    1.9773 H         1 SVE         0.2030
     70 H21         0.0909   15.8984    2.7468 H         1 SVE         0.0815
     71 H22        -1.1999   15.4094    3.8962 H         1 SVE         0.0815
     72 H23        -2.7957   16.9794    2.8012 H         1 SVE         0.0339
     73 H24        -1.3269   17.8618    3.3405 H         1 SVE         0.0339
     74 H25        -1.2433   12.6922    1.4501 H         1 SVE         0.0777
     75 H26        -1.1534   13.1196    3.1924 H         1 SVE         0.0777
     76 H27         0.2154   13.5156    2.0987 H         1 SVE         0.0777
     77 H28       -13.7380   18.4023   -6.9376 H         1 SVE         0.0460
     78 H29       -15.7699   18.0772   -5.6467 H         1 SVE         0.0455
     79 H30       -15.8920   18.8262   -3.2121 H         1 SVE         0.0460
     80 H31       -13.7676   21.1190   -1.6807 H         1 SVE         0.0392
     81 H32       -13.1728   19.5072   -1.1563 H         1 SVE         0.0392
     82 H33       -15.2386   20.1385    0.0509 H         1 SVE         0.0248
     83 H34       -15.5167   18.6978   -0.9853 H         1 SVE         0.0248
     84 H35       -16.1115   20.3095   -1.5097 H         1 SVE         0.0248
     85 H36       -10.4777   19.0628   -5.5618 H         1 SVE         0.0392
     86 H37       -11.0710   20.6731   -6.0925 H         1 SVE         0.0392
     87 H38       -10.3739   19.2940   -8.0166 H         1 SVE         0.0248
     88 H39       -12.1380   19.6285   -8.0691 H         1 SVE         0.0248
     89 H40       -11.5446   18.0183   -7.5384 H         1 SVE         0.0248
@<TRIPOS>BOND
     1    1    2 1  
     2    1    3 1  
     3    2   13 1  
     4    3    4 2  
     5    3    7 1  
     6    4    5 1  
     7    4   12 1  
     8    5    6 1  
     9    5   11 1  
    10    6    7 2  
    11    7    8 1  
    12    8    9 am 
    13    8   10 2  
    14    9   40 1  
    15   12   13 ar 
    16   12   17 ar 
    17   13   14 ar 
    18   14   15 ar 
    19   15   16 ar 
    20   16   17 ar 
    21   16   18 1  
    22   18   19 1  
    23   19   20 ar 
    24   19   24 ar 
    25   20   21 ar 
    26   20   25 1  
    27   21   22 ar 
    28   22   23 ar 
    29   22   26 1  
    30   23   24 ar 
    31   25   36 1  
    32   26   27 am 
    33   26   28 2  
    34   27   29 1  
    35   29   30 1  
    36   29   34 1  
    37   30   31 1  
    38   31   32 1  
    39   32   33 1  
    40   32   35 1  
    41   33   34 1  
    42   36   37 1  
    43   36   38 1  
    44   36   39 1  
    45   40   41 ar 
    46   40   45 ar 
    47   41   42 ar 
    48   41   48 1  
    49   42   43 ar 
    50   43   44 ar 
    51   44   45 ar 
    52   45   46 1  
    53   46   47 1  
    54   48   49 1  
    55    1   50 1  
    56    1   51 1  
    57    2   52 1  
    58    2   53 1  
    59    9   54 1  
    60   11   55 1  
    61   11   56 1  
    62   11   57 1  
    63   14   58 1  
    64   18   59 1  
    65   21   60 1  
    66   23   61 1  
    67   24   62 1  
    68   27   63 1  
    69   29   64 1  
    70   30   65 1  
    71   30   66 1  
    72   31   67 1  
    73   31   68 1  
    74   32   69 1  
    75   33   70 1  
    76   33   71 1  
    77   34   72 1  
    78   34   73 1  
    79   35   74 1  
    80   35   75 1  
    81   35   76 1  
    82   42   77 1  
    83   43   78 1  
    84   44   79 1  
    85   46   80 1  
    86   46   81 1  
    87   47   82 1  
    88   47   83 1  
    89   47   84 1  
    90   48   85 1  
    91   48   86 1  
    92   49   87 1  
    93   49   88 1  
    94   49   89 1  
@<TRIPOS>SUBSTRUCTURE
     1 SVE         1

