### 
### Created by X-TOOL on Mon Sep 10 21:13:02 2018
### 

@<TRIPOS>MOLECULE
2x9f_ligand
   43    46     1     0     0
SMALL
GAST_HUCK


@<TRIPOS>ATOM
      1 C7         13.6070    6.2540   11.8440 C.ar      1 X9F         0.1952
      2 N2         14.4260    5.2380   12.1810 N.ar      1 X9F        -0.2688
      3 C8         13.8820    4.0720   12.5410 C.ar      1 X9F         0.0013
      4 C9         12.5350    3.8660   12.5780 C.ar      1 X9F        -0.0017
      5 C10        11.7450    4.9470   12.2220 C.ar      1 X9F         0.1342
      6 N3         10.3380    4.8170   12.2310 N.pl3     1 X9F        -0.2549
      7 C11         9.7150    3.6510   12.7000 C.ar      1 X9F         0.0790
      8 C12         9.6110    3.3760   14.0520 C.ar      1 X9F        -0.0371
      9 C13         9.0180    2.2290   14.5480 C.ar      1 X9F        -0.0713
     10 C14         8.4630    1.2770   13.7220 C.ar      1 X9F        -0.0703
     11 C15         8.5610    1.5560   12.3730 C.ar      1 X9F        -0.0234
     12 N4          8.1210    0.8430   11.2910 N.2       1 X9F        -0.3373
     13 N5          8.4250    1.4300   10.1160 N.pl3     1 X9F        -0.2463
     14 C16         9.0580    2.5710   10.4350 C.2       1 X9F         0.1054
     15 C17         9.1690    2.6950   11.8470 C.ar      1 X9F         0.0559
     16 N6         12.2710    6.1220   11.8590 N.ar      1 X9F        -0.2345
     17 C1         15.9810   12.2770   12.4030 C.3       1 X9F         0.0594
     18 S1         14.9290   12.5190   11.0440 S.o2      1 X9F        -0.0084
     19 O1         15.7150   12.5050    9.8180 O.2       1 X9F        -0.1698
     20 O2         14.0600   13.6550   11.3180 O.2       1 X9F        -0.1698
     21 C2         13.8890   11.0660   10.9830 C.ar      1 X9F         0.0785
     22 C3         12.5510   11.2060   10.6850 C.ar      1 X9F        -0.0485
     23 C4         11.7480   10.0850   10.6420 C.ar      1 X9F        -0.0696
     24 C5         12.2880    8.8370   10.8940 C.ar      1 X9F        -0.0381
     25 C6         13.6260    8.7000   11.2010 C.ar      1 X9F         0.0671
     26 N1         14.2270    7.4510   11.4600 N.pl3     1 X9F        -0.2444
     27 C18        14.4340    9.8230   11.2370 C.ar      1 X9F        -0.0134
     28 H          14.5433    3.2506   12.8168 H         1 X9F         0.0849
     29 H          12.1051    2.9079   12.8702 H         1 X9F         0.0584
     30 H           9.7633    5.5872   11.8893 H         1 X9F         0.2161
     31 H          10.0161    4.0983   14.7607 H         1 X9F         0.0537
     32 H           8.9891    2.0737   15.6265 H         1 X9F         0.0587
     33 H           7.9843    0.3748   14.1028 H         1 X9F         0.0520
     34 H           8.2177    1.0807    9.1804 H         1 X9F         0.2933
     35 H           9.4329    3.2978    9.7144 H         1 X9F         0.1348
     36 H          16.4858   11.3161   12.3035 H         1 X9F         0.0468
     37 H          16.7215   13.0763   12.4345 H         1 X9F         0.0468
     38 H          15.3941   12.2872   13.3215 H         1 X9F         0.0468
     39 H          12.1314   12.1920   10.4854 H         1 X9F         0.0538
     40 H          10.6876   10.1830   10.4093 H         1 X9F         0.0588
     41 H          11.6508    7.9538   10.8497 H         1 X9F         0.0536
     42 H          15.2409    7.4139   11.3546 H         1 X9F         0.2177
     43 H          15.4956    9.7267   11.4648 H         1 X9F         0.0555
@<TRIPOS>BOND
     1    1    2 ar 
     2    1   16 ar 
     3   26    1 1  
     4    2    3 ar 
     5    3    4 ar 
     6    5    4 ar 
     7    5    6 1  
     8   16    5 ar 
     9    6    7 1  
    10    7    8 ar 
    11    7   15 ar 
    12    8    9 ar 
    13    9   10 ar 
    14   11   10 ar 
    15   11   12 2  
    16   15   11 ar 
    17   13   12 1  
    18   14   13 1  
    19   15   14 2  
    20   18   17 1  
    21   18   19 2  
    22   18   20 2  
    23   21   18 1  
    24   22   21 ar 
    25   21   27 ar 
    26   23   22 ar 
    27   24   23 ar 
    28   25   24 ar 
    29   25   26 1  
    30   25   27 ar 
    31    3   28 1  
    32    4   29 1  
    33    6   30 1  
    34    8   31 1  
    35    9   32 1  
    36   10   33 1  
    37   13   34 1  
    38   14   35 1  
    39   17   36 1  
    40   17   37 1  
    41   17   38 1  
    42   22   39 1  
    43   23   40 1  
    44   24   41 1  
    45   26   42 1  
    46   27   43 1  
@<TRIPOS>SUBSTRUCTURE
     1 X9F         1

