### 
### Created by X-TOOL on Mon Sep 10 21:13:03 2018
### 

@<TRIPOS>MOLECULE
2xa4_ligand
   38    40     1     0     0
SMALL
GAST_HUCK


@<TRIPOS>ATOM
      1 C3          1.8180    1.9460   25.4890 C.2       1 AZ5        -0.0274
      2 C19         2.3420    5.1100   22.8470 C.ar      1 AZ5         0.0551
      3 C21         0.8220    6.6900   23.6600 C.ar      1 AZ5         0.0551
      4 C10        -3.0780    3.5620   27.1820 C.ar      1 AZ5         0.0144
      5 C20         2.1150    6.3800   23.3160 C.ar      1 AZ5         0.1779
      6 C9         -1.9200    2.8850   27.7000 C.ar      1 AZ5         0.0982
      7 C2          3.1070    1.4660   25.3920 C.2       1 AZ5        -0.0153
      8 C4          1.4420    1.7330   26.8460 C.2       1 AZ5         0.1732
      9 C8         -0.8670    2.6630   26.9040 C.ar      1 AZ5         0.1512
     10 C17         0.1550    4.6260   23.0760 C.ar      1 AZ5         0.1257
     11 C12        -1.9870    3.6020   25.1610 C.ar      1 AZ5         0.1774
     12 C1          4.0530    1.3900   24.2700 C.3       1 AZ5        -0.0327
     13 C16        -1.4570    3.7420   21.5140 C.3       1 AZ5        -0.0264
     14 C15        -0.9420    3.6290   22.9240 C.3       1 AZ5         0.1055
     15 N18         1.3730    4.2070   22.7160 N.ar      1 AZ5        -0.2640
     16 N22        -0.1920    5.8300   23.5450 N.ar      1 AZ5        -0.2640
     17 N11        -3.0410    3.8610   25.8620 N.ar      1 AZ5        -0.2717
     18 N13        -0.8680    3.0000   25.6910 N.ar      1 AZ5        -0.2369
     19 N5          2.4450    1.1580   27.5200 N.pl3     1 AZ5        -0.2108
     20 N6          3.4310    1.0080   26.6340 N.2       1 AZ5        -0.2525
     21 N7          0.2450    2.0460   27.4200 N.pl3     1 AZ5        -0.2290
     22 N14        -2.0300    3.9130   23.8290 N.pl3     1 AZ5        -0.2729
     23 F23         3.1100    7.2710   23.4400 F         1 AZ5        -0.1730
     24 CL2        -1.9790    2.4380   29.3600 Cl        1 AZ5        -0.0752
     25 H1          1.2168    2.3920   24.6981 H         1 AZ5         0.0178
     26 H2          3.3527    4.8309   22.5718 H         1 AZ5         0.0907
     27 H3          0.6148    7.6823   24.0439 H         1 AZ5         0.0907
     28 H4         -3.9257    3.8165   27.8078 H         1 AZ5         0.0853
     29 H5          4.9923    0.9315   24.6128 H         1 AZ5         0.0373
     30 H6          4.2560    2.4030   23.8922 H         1 AZ5         0.0373
     31 H7          3.6189    0.7786   23.4652 H         1 AZ5         0.0373
     32 H8         -2.2716    3.0186   21.3621 H         1 AZ5         0.0280
     33 H9         -0.6412    3.5292   20.8075 H         1 AZ5         0.0280
     34 H10        -1.8346    4.7607   21.3421 H         1 AZ5         0.0280
     35 H11        -0.5569    2.6161   23.1130 H         1 AZ5         0.0789
     36 H12         2.4538    0.8880   28.5139 H         1 AZ5         0.2465
     37 H13         0.1613    1.7727   28.4095 H         1 AZ5         0.2224
     38 H14        -2.8749    4.3693   23.4563 H         1 AZ5         0.1898
@<TRIPOS>BOND
     1    1    7 1  
     2    8    1 2  
     3    2    5 ar 
     4   15    2 ar 
     5    3    5 ar 
     6   16    3 ar 
     7    4    6 ar 
     8   17    4 ar 
     9    5   23 1  
    10    9    6 ar 
    11    6   24 1  
    12    7   12 1  
    13    7   20 2  
    14    8   19 1  
    15   21    8 1  
    16   18    9 ar 
    17    9   21 1  
    18   14   10 1  
    19   10   15 ar 
    20   10   16 ar 
    21   11   17 ar 
    22   11   18 ar 
    23   22   11 1  
    24   14   13 1  
    25   14   22 1  
    26   19   20 1  
    27    1   25 1  
    28    2   26 1  
    29    3   27 1  
    30    4   28 1  
    31   12   29 1  
    32   12   30 1  
    33   12   31 1  
    34   13   32 1  
    35   13   33 1  
    36   13   34 1  
    37   14   35 1  
    38   19   36 1  
    39   21   37 1  
    40   22   38 1  
@<TRIPOS>SUBSTRUCTURE
     1 AZ5         1

