### 
### Created by X-TOOL on Mon Sep 10 21:13:03 2018
### 

@<TRIPOS>MOLECULE
2xab_ligand
   39    41     1     0     0
SMALL
GAST_HUCK


@<TRIPOS>ATOM
      1 C1          1.5700   31.0780    0.7170 C.3       1 VHD        -0.0557
      2 C2          1.2980   32.4770    1.2660 C.3       1 VHD        -0.0184
      3 C3          2.3800   33.4510    0.8000 C.3       1 VHD        -0.0557
      4 C4         -0.1020   32.9390    0.8900 C.ar      1 VHD        -0.0152
      5 C5         -0.3330   33.5240   -0.3600 C.ar      1 VHD        -0.0531
      6 C6         -1.6150   33.9090   -0.7520 C.ar      1 VHD         0.0905
      7 C7         -1.7930   34.5850   -2.0730 C.2       1 VHD         0.2913
      8 O8         -2.3910   34.0190   -2.9760 O.2       1 VHD        -0.3314
      9 N9         -1.3150   35.8650   -2.2110 N.am      1 VHD        -0.2370
     10 C10        -1.4720   36.6600   -3.4400 C.2       1 VHD         0.0366
     11 C11        -1.2560   38.0640   -2.9470 C.ar      1 VHD        -0.0309
     12 C12        -1.3730   39.2700   -3.6300 C.ar      1 VHD        -0.0620
     13 C13        -1.1180   40.4610   -2.9790 C.ar      1 VHD        -0.0620
     14 C14        -0.7460   40.4580   -1.6500 C.ar      1 VHD        -0.0620
     15 C15        -0.6220   39.2650   -0.9650 C.ar      1 VHD        -0.0620
     16 C16        -0.8740   38.0600   -1.6150 C.ar      1 VHD        -0.0309
     17 C17        -0.7830   36.6550   -1.0930 C.2       1 VHD         0.0366
     18 C18        -2.7060   33.6740    0.1160 C.ar      1 VHD         0.0974
     19 O19        -3.9690   34.0230   -0.2640 O.3       1 VHD        -0.3341
     20 C20        -2.5010   33.0620    1.3460 C.ar      1 VHD        -0.0041
     21 C21        -1.2140   32.6970    1.7400 C.ar      1 VHD         0.0878
     22 O22        -1.0260   32.1340    2.9650 O.3       1 VHD        -0.3354
     23 H1          2.5856   30.7642    0.9999 H         1 VHD         0.0250
     24 H2          1.4823   31.0909   -0.3794 H         1 VHD         0.0250
     25 H3          0.8381   30.3713    1.1351 H         1 VHD         0.0250
     26 H4          1.3466   32.4261    2.3637 H         1 VHD         0.0414
     27 H5          2.1700   34.4526    1.2033 H         1 VHD         0.0250
     28 H6          2.3873   33.4924   -0.2992 H         1 VHD         0.0250
     29 H7          3.3613   33.1089    1.1606 H         1 VHD         0.0250
     30 H8          0.4997   33.6808   -1.0361 H         1 VHD         0.0553
     31 H9         -1.6896   36.3178   -4.4507 H         1 VHD         0.0371
     32 H10        -1.6646   39.2751   -4.6740 H         1 VHD         0.0615
     33 H11        -1.2102   41.3999   -3.5129 H         1 VHD         0.0617
     34 H12        -0.5504   41.3953   -1.1419 H         1 VHD         0.0617
     35 H13        -0.3285   39.2670    0.0785 H         1 VHD         0.0615
     36 H14        -0.4151   36.3089   -0.1282 H         1 VHD         0.0371
     37 H15        -4.5800   33.7990    0.4281 H         1 VHD         0.2487
     38 H16        -3.3428   32.8678    2.0007 H         1 VHD         0.0461
     39 H17        -1.5276   31.3293    3.0228 H         1 VHD         0.2477
@<TRIPOS>BOND
     1    1    2 1  
     2    2    3 1  
     3    2    4 1  
     4    4    5 ar 
     5    4   21 ar 
     6    5    6 ar 
     7    6    7 1  
     8    6   18 ar 
     9    7    8 2  
    10    7    9 am 
    11    9   10 1  
    12    9   17 1  
    13   10   11 2  
    14   11   12 ar 
    15   11   16 ar 
    16   12   13 ar 
    17   13   14 ar 
    18   14   15 ar 
    19   15   16 ar 
    20   16   17 2  
    21   18   19 1  
    22   18   20 ar 
    23   20   21 ar 
    24   21   22 1  
    25    1   23 1  
    26    1   24 1  
    27    1   25 1  
    28    2   26 1  
    29    3   27 1  
    30    3   28 1  
    31    3   29 1  
    32    5   30 1  
    33   10   31 1  
    34   12   32 1  
    35   13   33 1  
    36   14   34 1  
    37   15   35 1  
    38   17   36 1  
    39   19   37 1  
    40   20   38 1  
    41   22   39 1  
@<TRIPOS>SUBSTRUCTURE
     1 VHD         1

