### 
### Created by X-TOOL on Mon Sep 10 21:13:06 2018
### 

@<TRIPOS>MOLECULE
2xae_ligand
   47    49     1     0     0
SMALL
GAST_HUCK


@<TRIPOS>ATOM
      1 N         -14.9870    6.6180  -42.8960 N.4       1 2XA         0.2332
      2 CA        -13.9470    5.7580  -43.4880 C.3       1 2XA         0.0361
      3 CB        -14.4380    4.2840  -43.4910 C.3       1 2XA         0.0337
      4 C         -13.5650    6.2730  -44.9180 C.2       1 2XA         0.0852
      5 OXT       -13.9290    7.4320  -45.2480 O.co2     1 2XA        -0.5642
      6 O         -12.8860    5.5130  -45.6590 O.co2     1 2XA        -0.5642
      7 SG        -15.0550    3.4810  -41.9190 S.3       1 2XA        -0.2203
      8 CAM       -17.1340    2.7090  -44.6880 C.ar      1 2XA        -0.0552
      9 CAG       -17.9730    3.3170  -45.6120 C.ar      1 2XA        -0.0293
     10 CAD       -19.0510    4.0660  -45.1800 C.ar      1 2XA         0.0607
     11 CAH       -19.2770    4.2030  -43.8120 C.ar      1 2XA        -0.0293
     12 CAN       -18.4140    3.6100  -42.8980 C.ar      1 2XA        -0.0552
     13 CAV       -17.3430    2.8410  -43.3260 C.ar      1 2XA        -0.0727
     14 CAF       -15.9920   -0.1590  -43.2170 C.ar      1 2XA        -0.0557
     15 CAL       -15.1500   -1.1480  -43.7120 C.ar      1 2XA        -0.0436
     16 CAR       -13.7900   -0.8910  -43.8560 C.ar      1 2XA        -0.0438
     17 CAX       -13.2640    0.3510  -43.5240 C.ar      1 2XA        -0.0436
     18 CAQ       -14.1190    1.3180  -43.0260 C.ar      1 2XA        -0.0557
     19 CAK       -15.4790    1.0870  -42.8730 C.ar      1 2XA        -0.0727
     20 CAE       -18.2590    0.9410  -41.2190 C.ar      1 2XA        -0.0557
     21 CAJ       -18.9270    0.4850  -40.0800 C.ar      1 2XA        -0.0436
     22 CAP       -18.4830    0.8270  -38.8050 C.ar      1 2XA        -0.0438
     23 CAW       -17.3520    1.6250  -38.6590 C.ar      1 2XA        -0.0436
     24 CAO       -16.6910    2.0690  -39.8000 C.ar      1 2XA        -0.0557
     25 CAI       -17.1270    1.7420  -41.0870 C.ar      1 2XA        -0.0727
     26 CL        -20.0870    4.8080  -46.3730 Cl        1 2XA        -0.0519
     27 CAZ       -16.3630    2.2190  -42.3320 C.3       1 2XA         0.0179
     28 H         -15.2251    6.2710  -41.9668 H         1 2XA         0.2010
     29 H         -14.6363    7.5731  -42.8240 H         1 2XA         0.2010
     30 H         -15.8169    6.6030  -43.4888 H         1 2XA         0.2010
     31 H         -13.0375    5.8007  -42.8887 H         1 2XA         0.1032
     32 H         -13.5512    3.7077  -43.7549 H         1 2XA         0.0436
     33 H         -15.3096    4.2942  -44.1455 H         1 2XA         0.0436
     34 H         -16.2921    2.1146  -45.0429 H         1 2XA         0.0759
     35 H         -17.7813    3.2035  -46.6790 H         1 2XA         0.0675
     36 H         -20.1332    4.7769  -43.4575 H         1 2XA         0.0675
     37 H         -18.5816    3.7515  -41.8303 H         1 2XA         0.0759
     38 H         -17.0566   -0.3605  -43.0982 H         1 2XA         0.0759
     39 H         -15.5540   -2.1224  -43.9867 H         1 2XA         0.0669
     40 H         -13.1305   -1.6725  -44.2333 H         1 2XA         0.0771
     41 H         -12.2018    0.5590  -43.6529 H         1 2XA         0.0669
     42 H         -13.7126    2.2898  -42.7456 H         1 2XA         0.0759
     43 H         -18.6232    0.6703  -42.2100 H         1 2XA         0.0759
     44 H         -19.8080   -0.1473  -40.1907 H         1 2XA         0.0669
     45 H         -19.0190    0.4712  -37.9251 H         1 2XA         0.0771
     46 H         -16.9902    1.8975  -37.6676 H         1 2XA         0.0669
     47 H         -15.8040    2.6923  -39.6864 H         1 2XA         0.0759
@<TRIPOS>BOND
     1    2    1 1  
     2    3    2 1  
     3    2    4 1  
     4    7    3 1  
     5    4    5 ar 
     6    4    6 ar 
     7   27    7 1  
     8    8    9 ar 
     9   13    8 ar 
    10    9   10 ar 
    11   11   10 ar 
    12   10   26 1  
    13   12   11 ar 
    14   13   12 ar 
    15   27   13 1  
    16   14   15 ar 
    17   19   14 ar 
    18   15   16 ar 
    19   17   16 ar 
    20   18   17 ar 
    21   19   18 ar 
    22   27   19 1  
    23   20   21 ar 
    24   25   20 ar 
    25   21   22 ar 
    26   23   22 ar 
    27   24   23 ar 
    28   25   24 ar 
    29   25   27 1  
    30    1   28 1  
    31    1   29 1  
    32    1   30 1  
    33    2   31 1  
    34    3   32 1  
    35    3   33 1  
    36    8   34 1  
    37    9   35 1  
    38   11   36 1  
    39   12   37 1  
    40   14   38 1  
    41   15   39 1  
    42   16   40 1  
    43   17   41 1  
    44   18   42 1  
    45   20   43 1  
    46   21   44 1  
    47   22   45 1  
    48   23   46 1  
    49   24   47 1  
@<TRIPOS>SUBSTRUCTURE
     1 2XA         1

