### 
### Created by X-TOOL on Mon Sep 10 21:13:02 2018
### 

@<TRIPOS>MOLECULE
2xb8_ligand
   39    40     1     0     0
SMALL
GAST_HUCK


@<TRIPOS>ATOM
      1 CAA        20.2440    1.6680   36.8330 C.3       1 XNW         0.0579
      2 OAN        19.1300    1.4710   35.9620 O.3       1 XNW        -0.3257
      3 CAR        17.9740    2.0160   36.4940 C.ar      1 XNW         0.0837
      4 CAK        16.8010    1.6940   35.8640 C.ar      1 XNW        -0.0396
      5 CAI        15.5680    2.1550   36.2860 C.ar      1 XNW        -0.0686
      6 CAJ        17.8850    2.8580   37.6010 C.ar      1 XNW        -0.0396
      7 CAH        16.6240    3.3330   38.0230 C.ar      1 XNW        -0.0686
      8 CAQ        15.4490    2.9840   37.3600 C.ar      1 XNW        -0.0512
      9 CAL        14.0320    3.4540   37.7030 C.3       1 XNW        -0.0032
     10 CAU        13.3690    2.7050   38.8520 C.3       1 XNW         0.0770
     11 CAP        13.7620    3.3750   40.1680 C.2       1 XNW         0.1429
     12 OAC        14.5280    4.3410   40.2000 O.2       1 XNW        -0.3883
     13 CAT        13.1820    2.8490   41.4630 C.3       1 XNW         0.1537
     14 OAF        13.4440    3.8120   42.5080 O.3       1 XNW        -0.3698
     15 CAS        11.6670    2.7290   41.2950 C.3       1 XNW         0.0993
     16 OAE        11.1380    2.0430   42.4370 O.3       1 XNW        -0.3868
     17 CAM        11.2430    2.0270   39.9810 C.3       1 XNW         0.0142
     18 CAV        11.8430    2.6660   38.7210 C.3       1 XNW         0.1328
     19 CAO        11.4610    1.8070   37.4960 C.2       1 XNW         0.0791
     20 OAD        11.5010    0.5520   37.6400 O.co2     1 XNW        -0.5449
     21 OAB        11.0610    2.4200   36.4670 O.co2     1 XNW        -0.5449
     22 OAG        11.2760    3.9950   38.5400 O.3       1 XNW        -0.3822
     23 H1         21.1444    1.2247   36.3827 H         1 XNW         0.0575
     24 H2         20.0426    1.1855   37.8008 H         1 XNW         0.0575
     25 H3         20.4034    2.7455   36.9866 H         1 XNW         0.0575
     26 H4         16.8415    1.0479   34.9945 H         1 XNW         0.0525
     27 H5         14.6763    1.8500   35.7504 H         1 XNW         0.0530
     28 H6         18.7817    3.1476   38.1368 H         1 XNW         0.0525
     29 H7         16.5684    3.9867   38.8859 H         1 XNW         0.0530
     30 H8         13.4049    3.3308   36.8077 H         1 XNW         0.0433
     31 H9         14.0811    4.5193   37.9726 H         1 XNW         0.0433
     32 H10        13.7407    1.6697   38.8532 H         1 XNW         0.0571
     33 H11        13.6228    1.8735   41.7162 H         1 XNW         0.0855
     34 H12        14.3820    3.9328   42.5979 H         1 XNW         0.2135
     35 H13        11.2474    3.7456   41.2750 H         1 XNW         0.0645
     36 H14        11.3402    2.5365   43.2232 H         1 XNW         0.2101
     37 H15        10.1465    2.0680   39.9031 H         1 XNW         0.0314
     38 H16        11.5684    0.9772   40.0270 H         1 XNW         0.0314
     39 H17        11.6460    4.3925   37.7605 H         1 XNW         0.2091
@<TRIPOS>BOND
     1    1    2 1  
     2    2    3 1  
     3    3    4 ar 
     4    3    6 ar 
     5    4    5 ar 
     6    5    8 ar 
     7    6    7 ar 
     8    7    8 ar 
     9    8    9 1  
    10    9   10 1  
    11   10   11 1  
    12   10   18 1  
    13   11   12 2  
    14   11   13 1  
    15   13   14 1  
    16   13   15 1  
    17   15   16 1  
    18   15   17 1  
    19   17   18 1  
    20   18   19 1  
    21   18   22 1  
    22   19   20 ar 
    23   19   21 ar 
    24    1   23 1  
    25    1   24 1  
    26    1   25 1  
    27    4   26 1  
    28    5   27 1  
    29    6   28 1  
    30    7   29 1  
    31    9   30 1  
    32    9   31 1  
    33   10   32 1  
    34   13   33 1  
    35   14   34 1  
    36   15   35 1  
    37   16   36 1  
    38   17   37 1  
    39   17   38 1  
    40   22   39 1  
@<TRIPOS>SUBSTRUCTURE
     1 XNW         1

