### 
### Created by X-TOOL on Mon Sep 10 21:13:03 2018
### 

@<TRIPOS>MOLECULE
2xb9_ligand
   39    40     1     0     0
SMALL
GAST_HUCK


@<TRIPOS>ATOM
      1 CAA       -25.7840   50.9720   20.0910 C.3       1 XNW         0.0579
      2 OAN       -25.3440   49.6590   19.7320 O.3       1 XNW        -0.3257
      3 CAR       -25.3320   49.3550   18.3840 C.ar      1 XNW         0.0837
      4 CAK       -24.5500   48.3120   17.9120 C.ar      1 XNW        -0.0396
      5 CAI       -24.5360   47.9630   16.5560 C.ar      1 XNW        -0.0686
      6 CAJ       -26.0870   50.0560   17.4450 C.ar      1 XNW        -0.0396
      7 CAH       -26.0610   49.7220   16.0790 C.ar      1 XNW        -0.0686
      8 CAQ       -25.2670   48.6720   15.5990 C.ar      1 XNW        -0.0512
      9 CAL       -25.2710   48.2810   14.0750 C.3       1 XNW        -0.0032
     10 CAU       -24.1480   48.7800   13.2100 C.3       1 XNW         0.0770
     11 CAP       -22.9400   48.0570   13.6940 C.2       1 XNW         0.1429
     12 OAC       -23.0620   47.1330   14.5070 O.2       1 XNW        -0.3883
     13 CAT       -21.6050   48.4160   12.9860 C.3       1 XNW         0.1537
     14 OAF       -20.4790   47.7140   13.5780 O.3       1 XNW        -0.3698
     15 CAS       -21.8160   48.1050   11.4780 C.3       1 XNW         0.0993
     16 OAE       -20.6560   48.4410   10.7520 O.3       1 XNW        -0.3868
     17 CAM       -23.0350   48.8630   10.9140 C.3       1 XNW         0.0142
     18 CAV       -24.3000   48.4620   11.6770 C.3       1 XNW         0.1328
     19 CAO       -25.4730   49.2550   11.1380 C.2       1 XNW         0.0791
     20 OAD       -25.3330   50.4930   10.9930 O.co2     1 XNW        -0.5449
     21 OAB       -26.5090   48.6050   10.9410 O.co2     1 XNW        -0.5449
     22 OAG       -24.5540   47.0660   11.3660 O.3       1 XNW        -0.3822
     23 H         -25.1326   51.7119   19.6259 H         1 XNW         0.0575
     24 H         -26.8072   51.1182   19.7449 H         1 XNW         0.0575
     25 H         -25.7463   51.0828   21.1747 H         1 XNW         0.0575
     26 H         -23.9318   47.7507   18.6126 H         1 XNW         0.0525
     27 H         -23.9357   47.1111   16.2367 H         1 XNW         0.0530
     28 H         -26.7132   50.8838   17.7777 H         1 XNW         0.0525
     29 H         -26.6716   50.2921   15.3788 H         1 XNW         0.0530
     30 H         -26.1731   48.7347   13.6645 H         1 XNW         0.0433
     31 H         -25.1862   47.1944   14.0571 H         1 XNW         0.0433
     32 H         -24.1134   49.8666   13.2887 H         1 XNW         0.0571
     33 H         -21.3513   49.4689   13.1093 H         1 XNW         0.0855
     34 H         -20.4050   47.9541   14.5046 H         1 XNW         0.2135
     35 H         -22.0096   47.0372   11.3754 H         1 XNW         0.0645
     36 H         -19.9142   47.9280   11.0809 H         1 XNW         0.2101
     37 H         -23.1571   48.6121    9.8603 H         1 XNW         0.0314
     38 H         -22.8736   49.9352   11.0258 H         1 XNW         0.0314
     39 H         -25.3436   46.7750   11.8279 H         1 XNW         0.2091
@<TRIPOS>BOND
     1    1    2 1  
     2    2    3 1  
     3    3    4 ar 
     4    3    6 ar 
     5    4    5 ar 
     6    5    8 ar 
     7    6    7 ar 
     8    7    8 ar 
     9    8    9 1  
    10    9   10 1  
    11   10   11 1  
    12   10   18 1  
    13   11   12 2  
    14   11   13 1  
    15   13   14 1  
    16   13   15 1  
    17   15   16 1  
    18   15   17 1  
    19   17   18 1  
    20   18   19 1  
    21   18   22 1  
    22   19   20 ar 
    23   19   21 ar 
    24    1   23 1  
    25    1   24 1  
    26    1   25 1  
    27    4   26 1  
    28    5   27 1  
    29    6   28 1  
    30    7   29 1  
    31    9   30 1  
    32    9   31 1  
    33   10   32 1  
    34   13   33 1  
    35   14   34 1  
    36   15   35 1  
    37   16   36 1  
    38   17   37 1  
    39   17   38 1  
    40   22   39 1  
@<TRIPOS>SUBSTRUCTURE
     1 XNW         1

