### 
### Created by X-TOOL on Mon Sep 10 21:13:06 2018
### 

@<TRIPOS>MOLECULE
2xbj_ligand
   64    67     1     0     0
SMALL
GAST_HUCK


@<TRIPOS>ATOM
      1 C01        -5.6570   49.1970    8.3030 C.3       1 XBJ         0.0133
      2 C02        -5.0930   49.7040    9.6490 C.3       1 XBJ         0.0946
      3 C03        -6.0390   50.1640   10.7390 C.3       1 XBJ         0.0975
      4 C04        -7.5380   50.1220   10.5200 C.3       1 XBJ         0.0242
      5 C05        -8.0920   49.6180    9.1760 C.ar      1 XBJ         0.0315
      6 N06        -9.5140   49.5970    9.0270 N.ar      1 XBJ        -0.2918
      7 C07       -10.0780   49.1710    7.7670 C.ar      1 XBJ         0.0889
      8 N08        -9.2180   48.6660    6.7030 N.ar      1 XBJ        -0.2694
      9 C09        -7.8380   48.6950    6.8440 C.ar      1 XBJ         0.1198
     10 C10        -7.2020   49.1650    8.0990 C.ar      1 XBJ         0.0274
     11 N11        -7.2250   48.1390    5.6580 N.pl3     1 XBJ        -0.2977
     12 C12        -7.4610   47.3480    4.4390 C.3       1 XBJ         0.0886
     13 C13        -6.3830   47.0240    3.4740 C.3       1 XBJ         0.0551
     14 C14        -6.7070   45.6410    2.9860 C.3       1 XBJ        -0.0257
     15 N15        -8.1030   45.3460    3.4240 N.4       1 XBJ         0.2290
     16 C16        -8.2530   46.1110    4.6940 C.3       1 XBJ        -0.0096
     17 C17        -6.2000   48.1170    2.4490 C.3       1 XBJ         0.0705
     18 C18        -5.1380   47.7370    1.4370 C.3       1 XBJ        -0.0358
     19 C19        -7.5300   48.3100    1.7660 C.3       1 XBJ        -0.0358
     20 O20        -5.8590   49.2890    3.0840 O.3       1 XBJ        -0.3886
     21 C21       -11.5370   49.0530    7.5400 C.ar      1 XBJ         0.0395
     22 C22       -12.4270   49.2830    8.6090 C.ar      1 XBJ         0.1004
     23 C23       -13.8760   49.0610    8.4030 C.ar      1 XBJ        -0.0297
     24 C24       -14.3410   48.6080    7.1160 C.ar      1 XBJ        -0.0336
     25 C25       -13.3570   48.3480    5.9830 C.ar      1 XBJ         0.1242
     26 C26       -12.0100   48.5520    6.1740 C.ar      1 XBJ        -0.0225
     27 F27       -13.7770   47.9330    4.8020 F         1 XBJ        -0.1919
     28 O28       -11.9090   49.7200    9.8140 O.3       1 XBJ        -0.3306
     29 O29        -5.6130   50.6330   11.9800 O.3       1 XBJ        -0.3747
     30 C30        -6.5600   50.6360   13.0110 C.3       1 XBJ         0.0372
     31 O31        -3.7240   49.7410    9.8470 O.3       1 XBJ        -0.3752
     32 C32        -2.8890   49.3220    8.8110 C.3       1 XBJ         0.0371
     33 H          -5.3426   48.1552    8.2400 H         1 XBJ         0.0431
     34 H          -5.2889   49.9035    7.5590 H         1 XBJ         0.0431
     35 H          -5.0662   49.4281   10.7032 H         1 XBJ         0.0644
     36 H          -5.0486   50.0764   10.2922 H         1 XBJ         0.0649
     37 H          -7.8558   51.1630   10.5779 H         1 XBJ         0.0483
     38 H          -7.9058   49.4078   11.2567 H         1 XBJ         0.0483
     39 H          -6.2383   48.3972    5.6714 H         1 XBJ         0.1822
     40 H          -8.0050   48.1286    3.9071 H         1 XBJ         0.0615
     41 H          -5.3819   46.9975    3.9042 H         1 XBJ         0.0405
     42 H          -6.0092   44.9114    3.3969 H         1 XBJ         0.0818
     43 H          -6.6204   45.5824    1.9010 H         1 XBJ         0.0818
     44 H          -8.2642   44.3472    3.5535 H         1 XBJ         0.2014
     45 H          -8.7932   45.6196    2.7246 H         1 XBJ         0.2014
     46 H          -9.2942   46.3203    4.9394 H         1 XBJ         0.0837
     47 H          -7.9006   45.5568    5.5639 H         1 XBJ         0.0837
     48 H          -4.1902   47.5749    1.9503 H         1 XBJ         0.0257
     49 H          -5.4365   46.8221    0.9251 H         1 XBJ         0.0257
     50 H          -5.0261   48.5416    0.7102 H         1 XBJ         0.0257
     51 H          -7.8292   47.3781    1.2862 H         1 XBJ         0.0257
     52 H          -8.2783   48.5963    2.5050 H         1 XBJ         0.0257
     53 H          -7.4407   49.0946    1.0147 H         1 XBJ         0.0257
     54 H          -6.5403   49.5164    3.7211 H         1 XBJ         0.2102
     55 H         -14.5823   49.2378    9.2142 H         1 XBJ         0.0542
     56 H         -15.4070   48.4500    6.9521 H         1 XBJ         0.0604
     57 H         -11.2972   48.3614    5.3718 H         1 XBJ         0.0606
     58 H         -10.9552   49.8001    9.7408 H         1 XBJ         0.2496
     59 H          -7.4013   51.2687   12.7280 H         1 XBJ         0.0524
     60 H          -6.9108   49.6185   13.1833 H         1 XBJ         0.0524
     61 H          -6.1027   51.0231   13.9215 H         1 XBJ         0.0524
     62 H          -3.1073   48.2821    8.5681 H         1 XBJ         0.0524
     63 H          -3.0604   49.9451    7.9333 H         1 XBJ         0.0524
     64 H          -1.8491   49.4125    9.1250 H         1 XBJ         0.0524
@<TRIPOS>BOND
     1    1    2 1  
     2    1   10 1  
     3    2    3 1  
     4    2   31 1  
     5    3    4 1  
     6    3   29 1  
     7    4    5 1  
     8    5    6 ar 
     9    5   10 ar 
    10    6    7 ar 
    11    7    8 ar 
    12    7   21 1  
    13    8    9 ar 
    14    9   10 ar 
    15    9   11 1  
    16   11   12 1  
    17   12   13 1  
    18   12   16 1  
    19   13   14 1  
    20   13   17 1  
    21   14   15 1  
    22   15   16 1  
    23   17   18 1  
    24   17   19 1  
    25   17   20 1  
    26   21   22 ar 
    27   21   26 ar 
    28   22   23 ar 
    29   22   28 1  
    30   23   24 ar 
    31   24   25 ar 
    32   25   26 ar 
    33   25   27 1  
    34   29   30 1  
    35   31   32 1  
    36    1   33 1  
    37    1   34 1  
    38    2   35 1  
    39    3   36 1  
    40    4   37 1  
    41    4   38 1  
    42   11   39 1  
    43   12   40 1  
    44   13   41 1  
    45   14   42 1  
    46   14   43 1  
    47   15   44 1  
    48   15   45 1  
    49   16   46 1  
    50   16   47 1  
    51   18   48 1  
    52   18   49 1  
    53   18   50 1  
    54   19   51 1  
    55   19   52 1  
    56   19   53 1  
    57   20   54 1  
    58   23   55 1  
    59   24   56 1  
    60   26   57 1  
    61   28   58 1  
    62   30   59 1  
    63   30   60 1  
    64   30   61 1  
    65   32   62 1  
    66   32   63 1  
    67   32   64 1  
@<TRIPOS>SUBSTRUCTURE
     1 XBJ         1

