### 
### Created by X-TOOL on Mon Sep 10 21:13:03 2018
### 

@<TRIPOS>MOLECULE
2xbv_ligand
   58    61     1     0     0
SMALL
GAST_HUCK


@<TRIPOS>ATOM
      1 C1         10.4390   66.7500    4.0020 C.3       1 XBV         0.1199
      2 C2          9.6930   66.3310    2.7260 C.3       1 XBV         0.1186
      3 C3          8.9300   67.6000    2.2890 C.3       1 XBV        -0.0085
      4 N4          9.8580   68.6860    2.7360 N.4       1 XBV         0.2432
      5 C5         10.4080   68.2910    4.0560 C.3       1 XBV        -0.0084
      6 C6         11.8290   66.1690    4.0750 C.2       1 XBV         0.2190
      7 C7          8.7410   65.1940    3.0300 C.2       1 XBV         0.2118
      8 N8          9.2500   64.0040    2.8570 N.am      1 XBV        -0.2375
      9 O9          7.6110   65.3690    3.4600 O.2       1 XBV        -0.3856
     10 O10        12.5110   65.9800    3.0790 O.2       1 XBV        -0.3820
     11 N11        12.3170   65.9790    5.3220 N.am      1 XBV        -0.2172
     12 C12        13.4790   65.3160    5.7100 C.ar      1 XBV         0.1394
     13 N13        14.0290   64.4140    4.8800 N.ar      1 XBV        -0.2842
     14 C14        15.5570   63.6920    6.5820 C.ar      1 XBV         0.0509
     15 C15        14.9800   64.6160    7.4750 C.ar      1 XBV        -0.0424
     16 C16        15.0620   63.6180    5.2650 C.ar      1 XBV         0.0070
     17 C17        13.9220   65.4170    7.0370 C.ar      1 XBV        -0.0126
     18 CL1        16.8030   62.6230    7.1470 Cl        1 XBV        -0.0753
     19 C19         8.5620   62.7810    3.0130 C.ar      1 XBV         0.0920
     20 C20         7.7350   62.4770    4.1000 C.ar      1 XBV        -0.0478
     21 C21         7.4550   60.2760    3.1560 C.ar      1 XBV         0.0960
     22 C22         8.2910   60.5860    2.0730 C.ar      1 XBV        -0.0056
     23 C23         7.1530   61.2070    4.1550 C.ar      1 XBV        -0.0431
     24 C24         8.8070   61.8870    2.0080 C.ar      1 XBV         0.1465
     25 N25         6.9000   58.9610    3.1550 N.am      1 XBV        -0.1717
     26 C26         7.4010   57.9920    4.0380 C.2       1 XBV         0.0799
     27 C27         5.8730   56.3680    3.1560 C.2       1 XBV        -0.0778
     28 C28         5.3630   57.3040    2.2830 C.2       1 XBV        -0.0111
     29 C29         6.9060   56.7230    4.0320 C.2       1 XBV        -0.0402
     30 C30         5.8690   58.6530    2.2590 C.2       1 XBV         0.2151
     31 O31         5.4450   59.5080    1.4710 O.2       1 XBV        -0.4155
     32 F32         9.6300   62.2060    0.9980 F         1 XBV        -0.1956
     33 C33         9.1530   69.9740    2.8400 C.3       1 XBV         0.0304
     34 C34        10.1310   71.1500    2.8390 C.3       1 XBV         0.2778
     35 F35        11.1320   71.0170    3.8060 F         1 XBV        -0.2034
     36 F36        10.7900   71.1220    1.6280 F         1 XBV        -0.2034
     37 H1          9.8832   66.3661    4.8701 H         1 XBV         0.0628
     38 H2         10.4008   66.0174    1.9445 H         1 XBV         0.0626
     39 H3          7.9549   67.6742    2.7927 H         1 XBV         0.0845
     40 H4          8.7824   67.6230    1.1992 H         1 XBV         0.0845
     41 H5         10.6100   68.7788    2.0712 H         1 XBV         0.2039
     42 H6         11.4205   68.6977    4.1951 H         1 XBV         0.0845
     43 H7          9.7572   68.6406    4.8710 H         1 XBV         0.0845
     44 H8         10.2125   63.9545    2.5904 H         1 XBV         0.2221
     45 H9         11.7706   66.3662    6.0647 H         1 XBV         0.2314
     46 H10        15.3520   64.7046    8.4893 H         1 XBV         0.0697
     47 H11        15.5050   62.9259    4.5580 H         1 XBV         0.0781
     48 H12        13.4463   66.1125    7.7190 H         1 XBV         0.0598
     49 H13         7.5503   63.2074    4.8794 H         1 XBV         0.0473
     50 H14         8.5286   59.8476    1.3158 H         1 XBV         0.0513
     51 H15         6.4766   60.9473    4.9613 H         1 XBV         0.0496
     52 H16         8.1941   58.2575    4.7355 H         1 XBV         0.1228
     53 H17         5.4738   55.3549    3.1647 H         1 XBV         0.0636
     54 H18         4.5642   57.0196    1.5997 H         1 XBV         0.0399
     55 H19         7.3166   55.9793    4.7134 H         1 XBV         0.0371
     56 H20         8.5750   69.9906    3.7758 H         1 XBV         0.0871
     57 H21         8.4691   70.0772    1.9847 H         1 XBV         0.0871
     58 H22         9.5853   72.0946    2.9802 H         1 XBV         0.1075
@<TRIPOS>BOND
     1    2    1 1  
     2    1    5 1  
     3    1    6 1  
     4    2    3 1  
     5    7    2 1  
     6    3    4 1  
     7    4    5 1  
     8    4   33 1  
     9    6   10 2  
    10    6   11 am 
    11    8    7 am 
    12    7    9 2  
    13   19    8 1  
    14   11   12 1  
    15   12   13 ar 
    16   12   17 ar 
    17   13   16 ar 
    18   15   14 ar 
    19   16   14 ar 
    20   14   18 1  
    21   17   15 ar 
    22   20   19 ar 
    23   24   19 ar 
    24   23   20 ar 
    25   21   22 ar 
    26   21   23 ar 
    27   25   21 1  
    28   22   24 ar 
    29   24   32 1  
    30   26   25 1  
    31   25   30 am 
    32   29   26 2  
    33   27   28 2  
    34   27   29 1  
    35   28   30 1  
    36   30   31 2  
    37   33   34 1  
    38   34   35 1  
    39   34   36 1  
    40    1   37 1  
    41    2   38 1  
    42    3   39 1  
    43    3   40 1  
    44    4   41 1  
    45    5   42 1  
    46    5   43 1  
    47    8   44 1  
    48   11   45 1  
    49   15   46 1  
    50   16   47 1  
    51   17   48 1  
    52   20   49 1  
    53   22   50 1  
    54   23   51 1  
    55   26   52 1  
    56   27   53 1  
    57   28   54 1  
    58   29   55 1  
    59   33   56 1  
    60   33   57 1  
    61   34   58 1  
@<TRIPOS>SUBSTRUCTURE
     1 XBV         1

