### 
### Created by X-TOOL on Mon Sep 10 21:13:03 2018
### 

@<TRIPOS>MOLECULE
2xbw_ligand
   57    60     1     0     0
SMALL
GAST_HUCK


@<TRIPOS>ATOM
      1 S1          9.2600   70.4290    3.4600 S.o2      1 455         0.1160
      2 C2          9.3870   66.4710    3.2300 C.3       1 455         0.0924
      3 C3         10.1820   66.7570    4.4920 C.3       1 455         0.0930
      4 N4          9.6160   68.7380    3.3110 N.am      1 455        -0.2170
      5 C5          8.4580   65.3450    3.3880 C.2       1 455         0.2080
      6 N6          6.8250   58.9940    3.3950 N.am      1 455        -0.1717
      7 C7         11.4680   66.0080    4.4820 C.2       1 455         0.2111
      8 C8         10.3720   68.3190    4.5000 C.3       1 455         0.0535
      9 C9          8.6050   67.7520    2.9760 C.3       1 455         0.0535
     10 C10         5.7050   58.6230    2.5810 C.2       1 455         0.2151
     11 C11         7.3050   60.3490    3.3010 C.ar      1 455         0.0960
     12 N12         9.0420   64.1820    3.0350 N.am      1 455        -0.2376
     13 C13         8.1220   60.6790    2.2470 C.ar      1 455        -0.0056
     14 N14        12.1630   66.0350    5.7030 N.am      1 455        -0.2332
     15 C15         8.4100   62.8870    3.2730 C.ar      1 455         0.0920
     16 C16         8.6600   61.9690    2.2760 C.ar      1 455         0.1465
     17 O17         8.2170   70.5090    4.4670 O.2       1 455        -0.1356
     18 O18        10.4920   71.0500    3.9080 O.2       1 455        -0.1356
     19 C19         7.4230   58.0760    4.3050 C.2       1 455         0.0799
     20 O20         7.3060   65.4260    3.8870 O.2       1 455        -0.3858
     21 O21        11.8150   65.2590    3.5680 O.2       1 455        -0.3842
     22 C22         5.3160   57.2230    2.5810 C.2       1 455        -0.0111
     23 O23         5.3260   59.5080    1.7610 O.2       1 455        -0.4155
     24 C24         6.9790   61.2430    4.3190 C.ar      1 455        -0.0431
     25 C25         7.5390   62.5480    4.2950 C.ar      1 455        -0.0478
     26 C26         6.8680   56.8400    4.4250 C.2       1 455        -0.0402
     27 C27         5.8310   56.3840    3.5330 C.2       1 455        -0.0778
     28 C28        13.3530   65.3200    6.0680 C.ar      1 455         0.0667
     29 N29         8.7910   70.8880    2.0050 N.am      1 455        -0.2487
     30 F30         9.4220   62.3630    1.2390 F         1 455        -0.1956
     31 C31        15.4810   63.8500    6.9430 C.ar      1 455         0.0239
     32 CL         16.6960   62.7040    7.4940 Cl        1 455        -0.0849
     33 C33        13.6670   65.3420    7.4150 C.ar      1 455        -0.0405
     34 C34        14.0410   64.5420    5.1180 C.ar      1 455        -0.0405
     35 C35        15.1370   63.7790    5.5690 C.ar      1 455        -0.0616
     36 C36        14.7550   64.5910    7.8880 C.ar      1 455        -0.0616
     37 H1         10.0690   66.2593    2.3934 H         1 455         0.0587
     38 H2          9.6078   66.4509    5.3789 H         1 455         0.0588
     39 H3         11.4343   68.5906    4.4116 H         1 455         0.0508
     40 H4          9.9542   68.7655    5.4143 H         1 455         0.0508
     41 H5          7.7259   67.8301    3.6325 H         1 455         0.0508
     42 H6          8.2871   67.8344    1.9262 H         1 455         0.0508
     43 H7          9.9395   64.2071    2.5947 H         1 455         0.2221
     44 H8          8.3359   59.9832    1.4438 H         1 455         0.0513
     45 H9         11.7787   66.6295    6.4093 H         1 455         0.2260
     46 H10         8.2993   58.3556    4.8879 H         1 455         0.1228
     47 H11         4.6221   56.8448    1.8317 H         1 455         0.0399
     48 H12         6.3081   60.9469    5.1173 H         1 455         0.0496
     49 H13         7.2883   63.2682    5.0654 H         1 455         0.0473
     50 H14         7.2161   56.1772    5.2158 H         1 455         0.0371
     51 H15         5.4548   55.3655    3.6169 H         1 455         0.0636
     52 H16         8.5291   71.8390    1.8409 H         1 455         0.1648
     53 H17         8.7591   70.2245    1.2575 H         1 455         0.1648
     54 H18        13.0758   65.9363    8.1023 H         1 455         0.0503
     55 H19        13.7389   64.5300    4.0770 H         1 455         0.0503
     56 H20        15.7011   63.1555    4.8848 H         1 455         0.0584
     57 H21        15.0227   64.5839    8.9384 H         1 455         0.0584
@<TRIPOS>BOND
     1    4    1 am 
     2    1   17 2  
     3    1   18 2  
     4    1   29 am 
     5    3    2 1  
     6    2    5 1  
     7    2    9 1  
     8    7    3 1  
     9    3    8 1  
    10    8    4 1  
    11    4    9 1  
    12    5   12 am 
    13    5   20 2  
    14    6   10 am 
    15   11    6 1  
    16    6   19 1  
    17   14    7 am 
    18    7   21 2  
    19   10   22 1  
    20   10   23 2  
    21   13   11 ar 
    22   24   11 ar 
    23   12   15 1  
    24   16   13 ar 
    25   28   14 1  
    26   15   16 ar 
    27   15   25 ar 
    28   16   30 1  
    29   19   26 2  
    30   22   27 2  
    31   25   24 ar 
    32   26   27 1  
    33   33   28 ar 
    34   28   34 ar 
    35   31   32 1  
    36   31   35 ar 
    37   36   31 ar 
    38   33   36 ar 
    39   34   35 ar 
    40    2   37 1  
    41    3   38 1  
    42    8   39 1  
    43    8   40 1  
    44    9   41 1  
    45    9   42 1  
    46   12   43 1  
    47   13   44 1  
    48   14   45 1  
    49   19   46 1  
    50   22   47 1  
    51   24   48 1  
    52   25   49 1  
    53   26   50 1  
    54   27   51 1  
    55   29   52 1  
    56   29   53 1  
    57   33   54 1  
    58   34   55 1  
    59   35   56 1  
    60   36   57 1  
@<TRIPOS>SUBSTRUCTURE
     1 455         1

