### 
### Created by X-TOOL on Mon Sep 10 21:13:03 2018
### 

@<TRIPOS>MOLECULE
2xbx_ligand
   58    61     1     0     0
SMALL
GAST_HUCK


@<TRIPOS>ATOM
      1 S1          9.1560   70.2050    2.7760 S.o2      1 RR8         0.0388
      2 C2          9.5790   66.3220    2.6170 C.3       1 RR8         0.0924
      3 C3         10.1310   66.6000    4.0140 C.3       1 RR8         0.0929
      4 N4          9.6270   68.5610    2.8280 N.am      1 RR8        -0.2334
      5 C5          8.8080   65.0470    2.3840 C.2       1 RR8         0.2080
      6 N6          6.8600   58.8990    3.0480 N.am      1 RR8        -0.1717
      7 C7         11.4700   65.9120    4.1040 C.2       1 RR8         0.2111
      8 C8         10.2760   68.1260    4.0480 C.3       1 RR8         0.0519
      9 C9          8.7270   67.5540    2.3150 C.3       1 RR8         0.0519
     10 C10         5.7550   58.5690    2.1910 C.2       1 RR8         0.2151
     11 C11         7.3430   60.2100    3.0040 C.ar      1 RR8         0.0960
     12 N12         9.0090   64.0560    3.1350 N.am      1 RR8        -0.2376
     13 C13         8.1540   60.5430    1.9470 C.ar      1 RR8        -0.0056
     14 N14        12.1710   65.9950    5.2990 N.am      1 RR8        -0.2332
     15 C15         8.3560   62.7490    3.0380 C.ar      1 RR8         0.0920
     16 C16         8.6500   61.8500    1.9940 C.ar      1 RR8         0.1465
     17 O17        10.2900   70.9980    3.3660 O.2       1 RR8        -0.1556
     18 O18         8.7570   70.5200    1.3810 O.2       1 RR8        -0.1556
     19 C19         7.4320   57.9600    3.9870 C.2       1 RR8         0.0799
     20 O20         7.9920   64.9220    1.4220 O.2       1 RR8        -0.3858
     21 O21        11.8310   65.1250    3.2380 O.2       1 RR8        -0.3842
     22 C22         5.3060   57.2250    2.2240 C.2       1 RR8        -0.0111
     23 O23         5.3770   59.4290    1.3520 O.2       1 RR8        -0.4155
     24 C24         6.9800   61.0620    4.0340 C.ar      1 RR8        -0.0431
     25 C25         7.4990   62.3760    4.0660 C.ar      1 RR8        -0.0478
     26 C26         6.9140   56.6950    4.0070 C.2       1 RR8        -0.0402
     27 C27         5.8340   56.3470    3.1190 C.2       1 RR8        -0.0778
     28 C28        13.3500   65.2380    5.6910 C.ar      1 RR8         0.0667
     29 C29         7.8170   70.2470    3.8950 C.3       1 RR8         0.0734
     30 F30         9.4710   62.2150    0.9720 F         1 RR8        -0.1956
     31 C31        15.4740   63.7690    6.5750 C.ar      1 RR8         0.0239
     32 CL3        16.6610   62.6960    7.1880 Cl        1 RR8        -0.0849
     33 C34        13.7780   65.3470    7.0160 C.ar      1 RR8        -0.0405
     34 C33        14.0020   64.4110    4.7780 C.ar      1 RR8        -0.0405
     35 C36        15.1010   63.6660    5.2060 C.ar      1 RR8        -0.0616
     36 C35        14.8630   64.5980    7.4570 C.ar      1 RR8        -0.0616
     37 H1         10.4312   66.2949    1.9221 H         1 RR8         0.0587
     38 H2          9.4574   66.2442    4.8076 H         1 RR8         0.0588
     39 H3         11.3362   68.4191    4.0540 H         1 RR8         0.0507
     40 H4          9.7739   68.5480    4.9311 H         1 RR8         0.0507
     41 H5          7.7690   67.5391    2.8553 H         1 RR8         0.0507
     42 H6          8.5388   67.6750    1.2380 H         1 RR8         0.0507
     43 H7          9.6790   64.1731    3.8680 H         1 RR8         0.2221
     44 H8          8.3895   59.8524    1.1453 H         1 RR8         0.0513
     45 H9         11.8253   66.6520    5.9690 H         1 RR8         0.2260
     46 H10         8.2440   58.2493    4.6525 H         1 RR8         0.1228
     47 H11         4.5350   56.8938    1.5299 H         1 RR8         0.0399
     48 H12         6.3028   60.7233    4.8098 H         1 RR8         0.0496
     49 H13         7.2388   63.0655    4.8610 H         1 RR8         0.0473
     50 H14         7.3170   55.9515    4.6930 H         1 RR8         0.0371
     51 H15         5.4234   55.3395    3.1662 H         1 RR8         0.0636
     52 H16         7.4184   71.2707    3.9515 H         1 RR8         0.0482
     53 H17         8.1615   69.9322    4.8911 H         1 RR8         0.0482
     54 H18         7.0272   69.5647    3.5476 H         1 RR8         0.0482
     55 H19        13.2652   66.0143    7.6992 H         1 RR8         0.0503
     56 H20        13.6604   64.3477    3.7512 H         1 RR8         0.0503
     57 H21        15.6509   63.0316    4.5203 H         1 RR8         0.0584
     58 H22        15.2118   64.6748    8.4805 H         1 RR8         0.0584
@<TRIPOS>BOND
     1    4    1 am 
     2    1   17 2  
     3    1   18 2  
     4    1   29 1  
     5    3    2 1  
     6    2    5 1  
     7    2    9 1  
     8    7    3 1  
     9    3    8 1  
    10    8    4 1  
    11    4    9 1  
    12    5   12 am 
    13    5   20 2  
    14    6   10 am 
    15   11    6 1  
    16    6   19 1  
    17   14    7 am 
    18    7   21 2  
    19   10   22 1  
    20   10   23 2  
    21   13   11 ar 
    22   24   11 ar 
    23   12   15 1  
    24   16   13 ar 
    25   28   14 1  
    26   15   16 ar 
    27   15   25 ar 
    28   16   30 1  
    29   19   26 2  
    30   22   27 2  
    31   25   24 ar 
    32   26   27 1  
    33   33   28 ar 
    34   28   34 ar 
    35   31   32 1  
    36   31   35 ar 
    37   36   31 ar 
    38   33   36 ar 
    39   34   35 ar 
    40    2   37 1  
    41    3   38 1  
    42    8   39 1  
    43    8   40 1  
    44    9   41 1  
    45    9   42 1  
    46   12   43 1  
    47   13   44 1  
    48   14   45 1  
    49   19   46 1  
    50   22   47 1  
    51   24   48 1  
    52   25   49 1  
    53   26   50 1  
    54   27   51 1  
    55   29   52 1  
    56   29   53 1  
    57   29   54 1  
    58   33   55 1  
    59   34   56 1  
    60   35   57 1  
    61   36   58 1  
@<TRIPOS>SUBSTRUCTURE
     1 RR8         1

