### 
### Created by X-TOOL on Mon Sep 10 21:13:03 2018
### 

@<TRIPOS>MOLECULE
2xc0_ligand
   62    65     1     0     0
SMALL
GAST_HUCK


@<TRIPOS>ATOM
      1 S1          8.2440   70.3370    2.7020 S.o2      1 8NC         0.0388
      2 C2          8.9930   66.4940    2.6590 C.3       1 8NC         0.0923
      3 C3          9.7050   66.9950    3.9520 C.3       1 8NC         0.0923
      4 N4          8.9480   68.8530    2.6600 N.am      1 8NC        -0.2334
      5 C5          8.1710   65.2490    2.9200 C.2       1 8NC         0.2080
      6 N6          6.7750   58.8400    3.0600 N.am      1 8NC        -0.1717
      7 C7         11.0630   66.3590    4.0220 C.2       1 8NC         0.2079
      8 C8          8.1200   67.7040    2.2680 C.3       1 8NC         0.0519
      9 C9          9.8060   68.5100    3.7910 C.3       1 8NC         0.0519
     10 C10         5.8150   58.4860    2.1870 C.2       1 8NC         0.2151
     11 C11         7.2490   60.1590    3.0490 C.ar      1 8NC         0.0960
     12 N12         8.7610   64.0620    2.7470 N.am      1 8NC        -0.2376
     13 C13         8.0550   60.5510    2.0030 C.ar      1 8NC        -0.0056
     14 N14        11.6470   66.1740    5.2030 N.am      1 8NC        -0.2406
     15 C15         8.1880   62.7810    2.9250 C.ar      1 8NC         0.0920
     16 C16         8.5120   61.8550    1.9570 C.ar      1 8NC         0.1465
     17 C17        14.7540   64.3340    4.4280 C.ar      1 8NC         0.1473
     18 C18        13.5710   65.0330    4.2120 C.ar      1 8NC        -0.0157
     19 O19         7.6500   70.4110    1.4110 O.2       1 8NC        -0.1556
     20 O20         9.3240   71.1870    3.0760 O.2       1 8NC        -0.1556
     21 C21         7.2970   57.9240    3.9290 C.2       1 8NC         0.0799
     22 C22        12.8680   65.5150    5.3280 C.ar      1 8NC         0.0537
     23 O23         7.0150   65.3130    3.2990 O.2       1 8NC        -0.3858
     24 O24        11.6300   66.0170    3.0120 O.2       1 8NC        -0.3858
     25 C25         5.3130   57.1700    2.1880 C.2       1 8NC        -0.0111
     26 C26        15.1850   64.0920    5.7280 C.ar      1 8NC         0.1089
     27 O27         5.3530   59.3220    1.4200 O.2       1 8NC        -0.4155
     28 C28         6.8980   61.0850    4.0300 C.ar      1 8NC        -0.0431
     29 C29         7.3880   62.4000    3.9920 C.ar      1 8NC        -0.0478
     30 C30         6.8180   56.6670    3.9690 C.2       1 8NC        -0.0402
     31 C31         5.7990   56.2750    3.0870 C.2       1 8NC        -0.0778
     32 C32        14.4680   64.5530    6.8210 C.ar      1 8NC        -0.0473
     33 C33         7.0290   70.1850    4.0370 C.3       1 8NC         0.0734
     34 F34         9.3150   62.2610    0.9500 F         1 8NC        -0.1956
     35 F35        15.4930   63.8570    3.3840 F         1 8NC        -0.1938
     36 C36        13.2960   65.2550    6.6140 C.ar      1 8NC        -0.0531
     37 O37        16.3370   63.3930    5.9560 O.3       1 8NC        -0.3306
     38 C38        16.4570   62.7470    7.2150 C.3       1 8NC         0.0553
     39 H1          9.7271   66.2753    1.8695 H         1 8NC         0.0587
     40 H2          9.1242   66.7395    4.8506 H         1 8NC         0.0587
     41 H3          7.1674   67.6978    2.8180 H         1 8NC         0.0507
     42 H4          7.9190   67.7129    1.1866 H         1 8NC         0.0507
     43 H5         10.8457   68.8039    3.5848 H         1 8NC         0.0507
     44 H6          9.4561   69.0154    4.7032 H         1 8NC         0.0507
     45 H7          9.7182   64.0819    2.4583 H         1 8NC         0.2221
     46 H8          8.3275   59.8461    1.2259 H         1 8NC         0.0513
     47 H9         11.1957   66.5185    6.0262 H         1 8NC         0.2219
     48 H10        13.2009   65.2015    3.2072 H         1 8NC         0.0463
     49 H11         8.1081   58.2137    4.5954 H         1 8NC         0.1228
     50 H12         4.5440   56.8734    1.4762 H         1 8NC         0.0399
     51 H13         6.2365   60.7851    4.8347 H         1 8NC         0.0496
     52 H14         7.1460   63.1033    4.7806 H         1 8NC         0.0473
     53 H15         7.2213   55.9535    4.6861 H         1 8NC         0.0371
     54 H16         5.4013   55.2619    3.1230 H         1 8NC         0.0636
     55 H17        14.8230   64.3647    7.8278 H         1 8NC         0.0495
     56 H18         6.4912   71.1375    4.1534 H         1 8NC         0.0482
     57 H19         7.5453   69.9383    4.9764 H         1 8NC         0.0482
     58 H20         6.3127   69.3871    3.7918 H         1 8NC         0.0482
     59 H21        12.7137   65.6009    7.4603 H         1 8NC         0.0445
     60 H22        17.4235   62.2245    7.2684 H         1 8NC         0.0570
     61 H23        15.6402   62.0199    7.3334 H         1 8NC         0.0570
     62 H24        16.4004   63.4962    8.0184 H         1 8NC         0.0570
@<TRIPOS>BOND
     1    4    1 am 
     2    1   19 2  
     3    1   20 2  
     4    1   33 1  
     5    3    2 1  
     6    2    5 1  
     7    2    8 1  
     8    7    3 1  
     9    3    9 1  
    10    4    8 1  
    11    9    4 1  
    12    5   12 am 
    13    5   23 2  
    14    6   10 am 
    15   11    6 1  
    16    6   21 1  
    17   14    7 am 
    18    7   24 2  
    19   10   25 1  
    20   10   27 2  
    21   13   11 ar 
    22   11   28 ar 
    23   12   15 1  
    24   16   13 ar 
    25   22   14 1  
    26   15   16 ar 
    27   15   29 ar 
    28   16   34 1  
    29   18   17 ar 
    30   17   26 ar 
    31   17   35 1  
    32   18   22 ar 
    33   21   30 2  
    34   22   36 ar 
    35   25   31 2  
    36   26   32 ar 
    37   26   37 1  
    38   28   29 ar 
    39   30   31 1  
    40   32   36 ar 
    41   37   38 1  
    42    2   39 1  
    43    3   40 1  
    44    8   41 1  
    45    8   42 1  
    46    9   43 1  
    47    9   44 1  
    48   12   45 1  
    49   13   46 1  
    50   14   47 1  
    51   18   48 1  
    52   21   49 1  
    53   25   50 1  
    54   28   51 1  
    55   29   52 1  
    56   30   53 1  
    57   31   54 1  
    58   32   55 1  
    59   33   56 1  
    60   33   57 1  
    61   33   58 1  
    62   36   59 1  
    63   38   60 1  
    64   38   61 1  
    65   38   62 1  
@<TRIPOS>SUBSTRUCTURE
     1 8NC         1

