### 
### Created by X-TOOL on Mon Sep 10 21:13:04 2018
### 

@<TRIPOS>MOLECULE
2xc4_ligand
   59    62     1     0     0
SMALL
GAST_HUCK


@<TRIPOS>ATOM
      1 C1         -3.9090   11.8950   24.8310 C.3       1 IVK         0.1191
      2 C2         -3.8030   12.0200   23.3060 C.3       1 IVK         0.1185
      3 C3         -4.7210   13.2440   23.0170 C.3       1 IVK        -0.0084
      4 N4         -4.3020   14.1740   24.1020 N.4       1 IVK         0.2456
      5 C5         -3.8610   13.3480   25.2830 C.3       1 IVK        -0.0084
      6 C6         -2.7400   11.0360   25.2640 C.2       1 IVK         0.2148
      7 C7         -4.1260   10.7380   22.5450 C.2       1 IVK         0.2118
      8 N8         -5.1580   10.7090   21.6840 N.am      1 IVK        -0.2375
      9 O9         -3.4270    9.7120   22.6660 O.2       1 IVK        -0.3856
     10 O10        -1.6090   11.2460   24.8610 O.2       1 IVK        -0.3841
     11 N11        -3.0440   10.0840   26.1430 N.am      1 IVK        -0.2331
     12 C12        -2.2850    9.0370   26.6440 C.ar      1 IVK         0.0667
     13 C14        -0.9600    6.7770   27.4370 C.ar      1 IVK         0.0239
     14 C15        -1.9990    7.2350   28.2140 C.ar      1 IVK        -0.0616
     15 C16        -0.5750    7.4530   26.2720 C.ar      1 IVK        -0.0616
     16 C17        -2.6990    8.3530   27.7940 C.ar      1 IVK        -0.0405
     17 CL1        -0.0750    5.3720   27.9200 Cl        1 IVK        -0.0849
     18 C19        -5.4960    9.5860   20.8900 C.ar      1 IVK         0.0920
     19 C20        -6.7340    8.9570   20.9530 C.ar      1 IVK        -0.0478
     20 C21        -6.0800    7.4370   19.1720 C.ar      1 IVK         0.0960
     21 C22        -4.8520    8.0840   19.0950 C.ar      1 IVK        -0.0056
     22 C23        -7.0080    7.8860   20.1100 C.ar      1 IVK        -0.0431
     23 C24        -4.5690    9.1370   19.9500 C.ar      1 IVK         0.1465
     24 N25        -6.3720    6.3640   18.2930 N.am      1 IVK        -0.1717
     25 C26        -6.2610    5.0650   18.6570 C.2       1 IVK         0.0799
     26 C27        -6.9000    4.3420   16.4650 C.2       1 IVK        -0.0778
     27 C28        -7.0400    5.6510   16.1050 C.2       1 IVK        -0.0111
     28 C29        -6.4940    4.0550   17.7840 C.2       1 IVK        -0.0402
     29 C30        -6.7570    6.6650   17.0250 C.2       1 IVK         0.2151
     30 O31        -6.8420    7.8290   16.6640 O.2       1 IVK        -0.4155
     31 F32        -3.3820    9.7880   19.8760 F         1 IVK        -0.1956
     32 C33        -5.3490   15.1010   24.5290 C.3       1 IVK         0.0660
     33 C34        -4.6260   16.2930   25.1560 C.3       1 IVK         0.4299
     34 F35        -5.5370   17.3350   25.3690 F         1 IVK        -0.1655
     35 F36        -3.6040   16.7060   24.3030 F         1 IVK        -0.1655
     36 F30        -4.0480   15.9250   26.3800 F         1 IVK        -0.1655
     37 C35        -1.2620    8.5660   25.8520 C.ar      1 IVK        -0.0405
     38 H1         -4.8517   11.4256   25.1487 H         1 IVK         0.0627
     39 H2         -2.7694   12.2850   23.0387 H         1 IVK         0.0626
     40 H3         -5.7855   12.9795   23.1001 H         1 IVK         0.0845
     41 H4         -4.5255   13.6698   22.0218 H         1 IVK         0.0845
     42 H5         -3.5217   14.7175   23.7675 H         1 IVK         0.2040
     43 H6         -2.8371   13.6214   25.5777 H         1 IVK         0.0845
     44 H7         -4.5415   13.5051   26.1328 H         1 IVK         0.0845
     45 H8         -5.7215   11.5307   21.5989 H         1 IVK         0.2221
     46 H9         -3.9760   10.1317   26.5025 H         1 IVK         0.2260
     47 H10        -2.2640    6.7307   29.1362 H         1 IVK         0.0584
     48 H11         0.2716    7.0950   25.6974 H         1 IVK         0.0584
     49 H12        -3.5624    8.6970   28.3518 H         1 IVK         0.0503
     50 H13        -7.4833    9.3004   21.6571 H         1 IVK         0.0473
     51 H14        -4.1159    7.7647   18.3661 H         1 IVK         0.0513
     52 H15        -7.9677    7.3875   20.1841 H         1 IVK         0.0496
     53 H16        -5.9764    4.8247   19.6803 H         1 IVK         0.1228
     54 H17        -7.0965    3.5416   15.7531 H         1 IVK         0.0636
     55 H18        -7.3726    5.9060   15.0999 H         1 IVK         0.0399
     56 H19        -6.3675    3.0211   18.1017 H         1 IVK         0.0371
     57 H20        -6.0065   14.6207   25.2686 H         1 IVK         0.0904
     58 H21        -5.9461   15.4276   23.6648 H         1 IVK         0.0904
     59 H22        -1.0055    9.0602   24.9219 H         1 IVK         0.0503
@<TRIPOS>BOND
     1    2    1 1  
     2    1    5 1  
     3    1    6 1  
     4    2    3 1  
     5    7    2 1  
     6    3    4 1  
     7    4    5 1  
     8    4   32 1  
     9    6   10 2  
    10    6   11 am 
    11    8    7 am 
    12    7    9 2  
    13   18    8 1  
    14   11   12 1  
    15   12   16 ar 
    16   12   37 ar 
    17   14   13 ar 
    18   15   13 ar 
    19   13   17 1  
    20   16   14 ar 
    21   37   15 ar 
    22   19   18 ar 
    23   23   18 ar 
    24   22   19 ar 
    25   20   21 ar 
    26   20   22 ar 
    27   24   20 1  
    28   21   23 ar 
    29   23   31 1  
    30   25   24 1  
    31   24   29 am 
    32   28   25 2  
    33   26   27 2  
    34   26   28 1  
    35   27   29 1  
    36   29   30 2  
    37   32   33 1  
    38   33   34 1  
    39   33   35 1  
    40   33   36 1  
    41    1   38 1  
    42    2   39 1  
    43    3   40 1  
    44    3   41 1  
    45    4   42 1  
    46    5   43 1  
    47    5   44 1  
    48    8   45 1  
    49   11   46 1  
    50   14   47 1  
    51   15   48 1  
    52   16   49 1  
    53   19   50 1  
    54   21   51 1  
    55   22   52 1  
    56   25   53 1  
    57   26   54 1  
    58   27   55 1  
    59   28   56 1  
    60   32   57 1  
    61   32   58 1  
    62   37   59 1  
@<TRIPOS>SUBSTRUCTURE
     1 IVK         1

