### 
### Created by X-TOOL on Mon Sep 10 21:13:02 2018
### 

@<TRIPOS>MOLECULE
2xcg_ligand
   24    26     1     0     0
SMALL
GAST_HUCK


@<TRIPOS>ATOM
      1 CAE        50.1560  161.2080   32.4370 C.2       1 XCG        -0.0162
      2 CAM        49.0500  160.8430   31.7560 C.ar      1 XCG         0.0060
      3 CAC        47.7280  160.5860   32.1500 C.ar      1 XCG        -0.0639
      4 CAA        46.7660  160.2340   31.1960 C.ar      1 XCG        -0.0718
      5 CAB        47.1050  160.1550   29.8380 C.ar      1 XCG        -0.0691
      6 CAD        48.4310  160.4100   29.4440 C.ar      1 XCG        -0.0261
      7 CAN        49.3840  160.7550   30.4080 C.ar      1 XCG         0.1308
      8 OAJ        50.7160  161.0670   30.3110 O.3       1 XCG        -0.2418
      9 CAL        51.1880  161.3300   31.5680 C.2       1 XCG         0.1783
     10 CAK        52.5510  161.6680   31.7170 C.2       1 XCG         0.1429
     11 NAH        53.2290  161.9300   32.8500 N.pl3     1 XCG        -0.2938
     12 CAF        54.6490  162.2570   32.5830 C.3       1 XCG         0.0366
     13 CAG        54.7760  162.0760   31.0530 C.3       1 XCG         0.0032
     14 NAI        53.3620  161.7630   30.6670 N.2       1 XCG        -0.3588
     15 H          50.2104  161.3773   33.5124 H         1 XCG         0.0534
     16 H          47.4496  160.6606   33.2012 H         1 XCG         0.0584
     17 H          45.7450  160.0196   31.5116 H         1 XCG         0.0541
     18 H          46.3493  159.8988   29.0955 H         1 XCG         0.0579
     19 H          48.7142  160.3392   28.3938 H         1 XCG         0.0571
     20 H          52.8143  161.9062   33.7816 H         1 XCG         0.1878
     21 H          55.3372  161.6202   33.1388 H         1 XCG         0.0530
     22 H          54.9160  163.2621   32.9096 H         1 XCG         0.0530
     23 H          55.4872  161.3022   30.7641 H         1 XCG         0.0345
     24 H          55.1826  162.9498   30.5439 H         1 XCG         0.0345
@<TRIPOS>BOND
     1    1    2 1  
     2    1    9 2  
     3    2    3 ar 
     4    2    7 ar 
     5    3    4 ar 
     6    4    5 ar 
     7    5    6 ar 
     8    6    7 ar 
     9    7    8 1  
    10    8    9 1  
    11    9   10 1  
    12   10   11 1  
    13   10   14 2  
    14   11   12 1  
    15   12   13 1  
    16   13   14 1  
    17    1   15 1  
    18    3   16 1  
    19    4   17 1  
    20    5   18 1  
    21    6   19 1  
    22   11   20 1  
    23   12   21 1  
    24   12   22 1  
    25   13   23 1  
    26   13   24 1  
@<TRIPOS>SUBSTRUCTURE
     1 XCG         1

