### 
### Created by X-TOOL on Mon Sep 10 21:13:03 2018
### 

@<TRIPOS>MOLECULE
2xch_ligand
   54    58     1     0     0
SMALL
GAST_HUCK


@<TRIPOS>ATOM
      1 O9        -45.1620   17.3950   10.8320 O.2       1 CKG        -0.3860
      2 C8        -44.3920   18.1550   11.3860 C.2       1 CKG         0.2121
      3 N24       -44.6700   19.4620   11.5330 N.am      1 CKG        -0.3000
      4 C5        -43.0880   17.7000   11.9450 C.2       1 CKG         0.1359
      5 C4        -42.4930   16.4490   11.7980 C.ar      1 CKG         0.0317
      6 C2        -42.9630   15.2100   11.0590 C.ar      1 CKG        -0.0606
      7 N6        -42.2970   18.4730   12.7020 N.2       1 CKG        -0.1708
      8 N7        -41.1770   17.7010   13.0310 N.pl3     1 CKG        -0.1849
      9 C17       -40.1900   18.3530   13.8980 C.3       1 CKG         0.0753
     10 C25       -39.2850   19.3540   13.1810 C.3       1 CKG        -0.0022
     11 C30       -38.9710   18.8840   11.7640 C.3       1 CKG        -0.0070
     12 C29       -38.1290   19.9240   11.0470 C.3       1 CKG        -0.0333
     13 N28       -38.6790   21.2690   11.1590 N.4       1 CKG         0.2270
     14 C27       -39.0910   21.7520   12.4720 C.3       1 CKG        -0.0333
     15 C26       -39.9840   20.7270   13.1480 C.3       1 CKG        -0.0070
     16 C3        -41.2980   16.4620   12.5140 C.ar      1 CKG         0.1227
     17 C11       -40.4220   15.3860   12.5380 C.ar      1 CKG         0.0781
     18 N18       -39.1250   15.5270   12.8810 N.ar      1 CKG        -0.2593
     19 C12       -38.2640   14.4670   12.8250 C.ar      1 CKG         0.2068
     20 N13       -38.7170   13.2550   12.4260 N.ar      1 CKG        -0.2444
     21 C14       -39.9980   13.0930   12.0610 C.ar      1 CKG         0.0268
     22 C10       -40.8830   14.1520   12.1070 C.ar      1 CKG         0.0152
     23 C1        -42.3380   13.9620   11.7070 C.ar      1 CKG        -0.0570
     24 N15       -36.9650   14.5230   13.1860 N.pl3     1 CKG        -0.2426
     25 C16       -36.2230   15.5310   13.7280 C.ar      1 CKG         0.0655
     26 C23       -36.7030   16.8210   13.9440 C.ar      1 CKG        -0.0381
     27 C22       -35.8420   17.7990   14.4930 C.ar      1 CKG        -0.0714
     28 C21       -34.5070   17.4990   14.8110 C.ar      1 CKG        -0.0733
     29 C20       -34.0290   16.2070   14.5860 C.ar      1 CKG        -0.0714
     30 C19       -34.8970   15.2380   14.0540 C.ar      1 CKG        -0.0381
     31 H1        -44.0170   20.0634   11.9934 H         1 CKG         0.1807
     32 H2        -45.5298   19.8329   11.1820 H         1 CKG         0.1807
     33 H3        -43.6341   15.2048   10.2077 H         1 CKG         0.0591
     34 H4        -39.5552   17.5732   14.3441 H         1 CKG         0.0635
     35 H5        -40.7301   18.8862   14.6942 H         1 CKG         0.0635
     36 H6        -38.3413   19.4453   13.7388 H         1 CKG         0.0332
     37 H7        -39.9112   18.7337   11.2132 H         1 CKG         0.0320
     38 H8        -38.4169   17.9349   11.8093 H         1 CKG         0.0320
     39 H9        -38.0704   19.6556    9.9819 H         1 CKG         0.0814
     40 H10       -37.1189   19.9198   11.4824 H         1 CKG         0.0814
     41 H11       -39.4895   21.3085   10.5610 H         1 CKG         0.2013
     42 H12       -37.9770   21.9058   10.8159 H         1 CKG         0.2013
     43 H13       -39.6439   22.6958   12.3555 H         1 CKG         0.0814
     44 H14       -38.1993   21.9236   13.0929 H         1 CKG         0.0814
     45 H15       -40.1960   21.0520   14.1773 H         1 CKG         0.0320
     46 H16       -40.9274   20.6415   12.5888 H         1 CKG         0.0320
     47 H17       -40.3417   12.1208   11.7266 H         1 CKG         0.0962
     48 H18       -42.8819   13.0374   11.8632 H         1 CKG         0.0557
     49 H19       -36.4416   13.6509   13.0237 H         1 CKG         0.2178
     50 H20       -37.7272   17.0726   13.6934 H         1 CKG         0.0536
     51 H21       -36.2193   18.7994   14.6719 H         1 CKG         0.0587
     52 H22       -33.8567   18.2607   15.2256 H         1 CKG         0.0519
     53 H23       -33.0009   15.9541   14.8187 H         1 CKG         0.0587
     54 H24       -34.5259   14.2325   13.8918 H         1 CKG         0.0536
@<TRIPOS>BOND
     1    1    2 2  
     2    2    3 am 
     3    2    4 1  
     4    4    5 1  
     5    4    7 2  
     6    5    6 ar 
     7    5   16 ar 
     8    6   23 ar 
     9    7    8 1  
    10    8    9 1  
    11    8   16 1  
    12    9   10 1  
    13   10   11 1  
    14   10   15 1  
    15   11   12 1  
    16   12   13 1  
    17   13   14 1  
    18   14   15 1  
    19   16   17 ar 
    20   17   18 ar 
    21   17   22 ar 
    22   18   19 ar 
    23   19   20 ar 
    24   19   24 1  
    25   20   21 ar 
    26   21   22 ar 
    27   22   23 ar 
    28   24   25 1  
    29   25   26 ar 
    30   25   30 ar 
    31   26   27 ar 
    32   27   28 ar 
    33   28   29 ar 
    34   29   30 ar 
    35    3   31 1  
    36    3   32 1  
    37    6   33 1  
    38    9   34 1  
    39    9   35 1  
    40   10   36 1  
    41   11   37 1  
    42   11   38 1  
    43   12   39 1  
    44   12   40 1  
    45   13   41 1  
    46   13   42 1  
    47   14   43 1  
    48   14   44 1  
    49   15   45 1  
    50   15   46 1  
    51   21   47 1  
    52   23   48 1  
    53   24   49 1  
    54   26   50 1  
    55   27   51 1  
    56   28   52 1  
    57   29   53 1  
    58   30   54 1  
@<TRIPOS>SUBSTRUCTURE
     1 CKG         1

