### 
### Created by X-TOOL on Mon Sep 10 21:13:02 2018
### 

@<TRIPOS>MOLECULE
2xct_ligand
   43    46     1     0     0
SMALL
GAST_HUCK


@<TRIPOS>ATOM
      1 O2          3.4710   40.5350   73.0810 O.co2     1 CPF        -0.5535
      2 C3          2.9970   41.9090   73.0340 C.2       1 CPF         0.0945
      3 O1          2.7240   42.4920   74.0840 O.co2     1 CPF        -0.5535
      4 C2          2.8510   42.5690   71.6880 C.ar      1 CPF         0.1245
      5 C1          2.4030   43.8890   71.5720 C.ar      1 CPF         0.0520
      6 N1          2.2870   44.4660   70.3630 N.ar      1 CPF        -0.3291
      7 C10         2.5820   43.7780   69.2480 C.ar      1 CPF         0.0917
      8 C9          2.4370   44.4080   68.0220 C.ar      1 CPF         0.0470
      9 C8          2.7360   43.7310   66.8560 C.ar      1 CPF         0.1519
     10 N2          2.5970   44.4380   65.6610 N.pl3     1 CPF        -0.2708
     11 C17         2.2360   45.8450   65.7660 C.3       1 CPF         0.0762
     12 C16         3.3020   46.5560   64.9430 C.3       1 CPF        -0.0114
     13 N3          3.1910   46.1330   63.5680 N.4       1 CPF         0.2301
     14 C15         2.5000   44.8870   63.3130 C.3       1 CPF        -0.0114
     15 C14         2.8590   43.8290   64.3550 C.3       1 CPF         0.0762
     16 C7          3.1880   42.4240   66.9000 C.ar      1 CPF         0.2096
     17 F1          3.4910   41.7660   65.7640 F         1 CPF        -0.1684
     18 C6          3.3330   41.7790   68.1220 C.ar      1 CPF         0.0301
     19 C5          3.0320   42.4580   69.3010 C.ar      1 CPF         0.0984
     20 C4          3.1650   41.8460   70.5460 C.ar      1 CPF         0.1928
     21 O3          3.6030   40.5430   70.6600 O.3       1 CPF        -0.2796
     22 C11         1.8090   45.8460   70.2200 C.3       1 CPF         0.0348
     23 C12         1.9450   46.5890   71.5390 C.3       1 CPF        -0.0309
     24 C13         2.9770   46.7880   70.4370 C.3       1 CPF        -0.0309
     25 H           2.1461   44.4539   72.4681 H         1 CPF         0.1000
     26 H           2.0865   45.4392   67.9780 H         1 CPF         0.1103
     27 H           2.2103   46.1908   66.7994 H         1 CPF         0.0593
     28 H           1.2285   46.0433   65.4003 H         1 CPF         0.0593
     29 H           4.2911   46.3058   65.3266 H         1 CPF         0.0835
     30 H           3.1597   47.6346   65.0091 H         1 CPF         0.0835
     31 H           4.1476   45.9905   63.2440 H         1 CPF         0.2015
     32 H           2.6429   46.8545   63.0997 H         1 CPF         0.2015
     33 H           2.7970   44.5206   62.3303 H         1 CPF         0.0835
     34 H           1.4265   45.0699   63.3602 H         1 CPF         0.0835
     35 H           2.2671   42.9242   64.2170 H         1 CPF         0.0593
     36 H           3.9020   43.5257   64.2645 H         1 CPF         0.0593
     37 H           3.6806   40.7466   68.1583 H         1 CPF         0.0992
     38 H           3.6308   40.2959   71.5872 H         1 CPF         0.2802
     39 H           1.0171   45.7326   69.4797 H         1 CPF         0.0519
     40 H           1.9181   46.3738   72.6072 H         1 CPF         0.0285
     41 H           1.3308   47.1946   72.2054 H         1 CPF         0.0285
     42 H           3.4714   47.6097   69.9190 H         1 CPF         0.0285
     43 H           4.0609   46.7859   70.3223 H         1 CPF         0.0285
@<TRIPOS>BOND
     1    1    2 ar 
     2    2    3 ar 
     3    2    4 1  
     4    4    5 ar 
     5    4   20 ar 
     6    5    6 ar 
     7    6    7 ar 
     8    6   22 1  
     9    7    8 ar 
    10    7   19 ar 
    11    8    9 ar 
    12    9   10 1  
    13    9   16 ar 
    14   10   11 1  
    15   10   15 1  
    16   11   12 1  
    17   12   13 1  
    18   13   14 1  
    19   14   15 1  
    20   16   17 1  
    21   16   18 ar 
    22   18   19 ar 
    23   19   20 ar 
    24   20   21 1  
    25   22   23 1  
    26   22   24 1  
    27   23   24 1  
    28    5   25 1  
    29    8   26 1  
    30   11   27 1  
    31   11   28 1  
    32   12   29 1  
    33   12   30 1  
    34   13   31 1  
    35   13   32 1  
    36   14   33 1  
    37   14   34 1  
    38   15   35 1  
    39   15   36 1  
    40   18   37 1  
    41   21   38 1  
    42   22   39 1  
    43   23   40 1  
    44   23   41 1  
    45   24   42 1  
    46   24   43 1  
@<TRIPOS>SUBSTRUCTURE
     1 CPF         1

