### 
### Created by X-TOOL on Mon Sep 10 21:13:02 2018
### 

@<TRIPOS>MOLECULE
2xd6_ligand
   46    47     1     0     0
SMALL
GAST_HUCK


@<TRIPOS>ATOM
      1 C1        -18.8570    2.3090   -5.9370 C.2       1 XD6         0.2450
      2 C2        -18.8500    3.2050   -4.7530 C.ar      1 XD6         0.0836
      3 C3        -19.8360    4.3840   -4.7180 C.ar      1 XD6         0.0971
      4 C4        -19.8370    5.3300   -3.5590 C.ar      1 XD6        -0.0045
      5 C5        -18.9020    5.1160   -2.4930 C.ar      1 XD6         0.0932
      6 C6        -17.8910    3.9030   -2.5390 C.ar      1 XD6         0.0655
      7 C7        -17.8900    2.9860   -3.6450 C.ar      1 XD6        -0.0054
      8 C8        -16.9000    1.8330   -3.6940 C.3       1 XD6         0.0540
      9 C9        -15.4430    2.1980   -3.8190 C.2       1 XD6         0.1171
     10 C10       -14.3840    1.1680   -3.4700 C.3       1 XD6         0.0233
     11 C11       -13.1140    1.1130   -4.3050 C.3       1 XD6        -0.0353
     12 C12       -13.2160    0.8620   -5.7960 C.3       1 XD6        -0.0424
     13 C13       -13.1920    2.0850   -6.7430 C.3       1 XD6        -0.0261
     14 C14       -14.3520    2.2420   -7.6980 C.2       1 XD6        -0.0558
     15 C15       -15.2220    1.1770   -7.8560 C.2       1 XD6        -0.1041
     16 C16       -16.5000    1.4090   -8.5470 C.3       1 XD6        -0.0193
     17 C17       -17.7300    1.3060   -7.7060 C.3       1 XD6         0.0781
     18 O1        -17.7390    2.0470   -6.5110 O.3       1 XD6        -0.2805
     19 O2        -19.9310    1.7580   -6.2830 O.2       1 XD6        -0.3725
     20 O3        -20.7320    4.5080   -5.7720 O.3       1 XD6        -0.3313
     21 O4        -18.8300    5.9760   -1.4070 O.3       1 XD6        -0.3330
     22 CL1       -16.8490    3.6760   -1.1850 Cl        1 XD6        -0.0932
     23 O5        -15.1340    3.3100   -4.2850 O.2       1 XD6        -0.3883
     24 C21       -14.7050    3.6060   -8.4050 C.3       1 XD6         0.0693
     25 O22       -13.7380    4.5890   -8.5730 O.3       1 XD6        -0.3840
     26 H1        -20.5315    6.1616   -3.5257 H         1 XD6         0.0425
     27 H2        -17.1618    1.2051   -4.5584 H         1 XD6         0.0663
     28 H3        -17.0197    1.2510   -2.7683 H         1 XD6         0.0663
     29 H4        -14.8597    0.1786   -3.5391 H         1 XD6         0.0495
     30 H5        -14.0795    1.3566   -2.4300 H         1 XD6         0.0495
     31 H6        -12.4896    0.3099   -3.8866 H         1 XD6         0.0292
     32 H7        -12.6036    2.0789   -4.1766 H         1 XD6         0.0292
     33 H8        -14.1619    0.3295   -5.9739 H         1 XD6         0.0288
     34 H9        -12.3723    0.2146   -6.0769 H         1 XD6         0.0288
     35 H10       -12.2741    2.0190   -7.3455 H         1 XD6         0.0411
     36 H11       -13.1550    2.9882   -6.1162 H         1 XD6         0.0411
     37 H12       -14.9660    0.1887   -7.4770 H         1 XD6         0.0244
     38 H13       -16.5835    0.6690   -9.3565 H         1 XD6         0.0365
     39 H14       -16.4707    2.4211   -8.9769 H         1 XD6         0.0365
     40 H15       -17.8668    0.2467   -7.4429 H         1 XD6         0.0626
     41 H16       -18.5805    1.6453   -8.3155 H         1 XD6         0.0626
     42 H17       -20.5726    3.8174   -6.4045 H         1 XD6         0.2508
     43 H18       -19.4861    6.6568   -1.4996 H         1 XD6         0.2502
     44 H19       -15.5178    4.0617   -7.8205 H         1 XD6         0.0705
     45 H20       -15.0734    3.3528   -9.4101 H         1 XD6         0.0705
     46 H21       -14.1222    5.3375   -9.0142 H         1 XD6         0.2125
@<TRIPOS>BOND
     1    1    2 1  
     2    1   18 1  
     3    1   19 2  
     4    2    3 ar 
     5    2    7 ar 
     6    3    4 ar 
     7    3   20 1  
     8    4    5 ar 
     9    5    6 ar 
    10    5   21 1  
    11    6    7 ar 
    12    6   22 1  
    13    7    8 1  
    14    8    9 1  
    15    9   10 1  
    16    9   23 2  
    17   10   11 1  
    18   11   12 1  
    19   12   13 1  
    20   13   14 1  
    21   14   15 2  
    22   14   24 1  
    23   15   16 1  
    24   16   17 1  
    25   17   18 1  
    26   24   25 1  
    27    4   26 1  
    28    8   27 1  
    29    8   28 1  
    30   10   29 1  
    31   10   30 1  
    32   11   31 1  
    33   11   32 1  
    34   12   33 1  
    35   12   34 1  
    36   13   35 1  
    37   13   36 1  
    38   15   37 1  
    39   16   38 1  
    40   16   39 1  
    41   17   40 1  
    42   17   41 1  
    43   20   42 1  
    44   21   43 1  
    45   24   44 1  
    46   24   45 1  
    47   25   46 1  
@<TRIPOS>SUBSTRUCTURE
     1 XD6         1

