### 
### Created by X-TOOL on Mon Sep 10 21:13:04 2018
### 

@<TRIPOS>MOLECULE
2xd9_ligand
   31    32     1     0     0
SMALL
GAST_HUCK


@<TRIPOS>ATOM
      1 CAA       -26.8140   48.3580   18.9240 C.3       1 XD9        -0.0314
      2 CAG       -25.7720   48.2530   17.7820 C.2       1 XD9        -0.0733
      3 CAH       -26.0810   48.2810   16.4240 C.2       1 XD9        -0.0511
      4 CAM       -25.1040   48.2110   15.4260 C.2       1 XD9         0.0341
      5 CAI       -25.3320   48.2550   14.0870 C.2       1 XD9        -0.0688
      6 SAK       -23.4050   47.9920   15.6880 S.3       1 XD9         0.0404
      7 CAO       -23.0490   48.0310   14.0180 C.2       1 XD9         0.1194
      8 CAN       -24.2250   48.1720   13.2780 C.2       1 XD9        -0.0249
      9 CAR       -24.1500   48.2120   11.7190 C.3       1 XD9         0.0598
     10 CAL       -25.3120   49.1050   11.2690 C.2       1 XD9         0.0063
     11 OAC       -25.1320   50.3390   11.0160 O.co2     1 XD9        -0.5722
     12 OAB       -26.4170   48.5140   11.2210 O.co2     1 XD9        -0.5722
     13 OAF       -24.3510   46.9460   11.1440 O.3       1 XD9        -0.4542
     14 CAJ       -22.7790   48.7240   11.2060 C.3       1 XD9        -0.0351
     15 CAP       -21.6130   47.9280   11.8750 C.3       1 XD9         0.0966
     16 OAD       -20.3620   48.5350   11.5310 O.3       1 XD9        -0.3855
     17 CAQ       -21.6530   47.9420   13.4340 C.3       1 XD9         0.1702
     18 OAE       -20.8670   46.9130   14.1780 O.3       1 XD9        -0.3565
     19 H1        -26.2998   48.3090   19.8952 H         1 XD9         0.0439
     20 H2        -27.5292   47.5260   18.8455 H         1 XD9         0.0439
     21 H3        -27.3527   49.3136   18.8422 H         1 XD9         0.0439
     22 H4        -24.7243   48.1501   18.0607 H         1 XD9         0.0746
     23 H5        -27.1258   48.3606   16.1275 H         1 XD9         0.0462
     24 H6        -26.3367   48.3508   13.6780 H         1 XD9         0.0355
     25 H7        -25.1802   46.5917   11.4429 H         1 XD9         0.1840
     26 H8        -22.6762   49.7913   11.4514 H         1 XD9         0.0143
     27 H9        -22.7283   48.5920   10.1151 H         1 XD9         0.0143
     28 H10       -21.6462   46.8886   11.5165 H         1 XD9         0.0660
     29 H11       -20.2542   48.5226   10.5872 H         1 XD9         0.2103
     30 H12       -21.1695   48.8951   13.6942 H         1 XD9         0.1043
     31 H13       -20.9840   47.0410   15.1120 H         1 XD9         0.2174
@<TRIPOS>BOND
     1    1    2 1  
     2    2    3 2  
     3    3    4 1  
     4    4    5 2  
     5    4    6 1  
     6    5    8 1  
     7    6    7 1  
     8    7    8 2  
     9    7   17 1  
    10    8    9 1  
    11    9   10 1  
    12    9   13 1  
    13    9   14 1  
    14   10   11 ar 
    15   10   12 ar 
    16   14   15 1  
    17   15   16 1  
    18   15   17 1  
    19   17   18 1  
    20    1   19 1  
    21    1   20 1  
    22    1   21 1  
    23    2   22 1  
    24    3   23 1  
    25    5   24 1  
    26   13   25 1  
    27   14   26 1  
    28   14   27 1  
    29   15   28 1  
    30   16   29 1  
    31   17   30 1  
    32   18   31 1  
@<TRIPOS>SUBSTRUCTURE
     1 XD9         1

