### 
### Created by X-TOOL on Mon Sep 10 21:13:02 2018
### 

@<TRIPOS>MOLECULE
2xda_ligand
   37    39     1     0     0
SMALL
GAST_HUCK


@<TRIPOS>ATOM
      1 CAA         1.0330   18.5770   26.5630 C.3       1 JPS        -0.0388
      2 CAG         1.1820   17.4800   25.4960 C.3       1 JPS        -0.0376
      3 CAH         2.3770   16.5370   25.7270 C.3       1 JPS        -0.0030
      4 CAM         2.2390   15.3590   24.7630 C.2       1 JPS         0.0333
      5 CAI         2.0960   14.0500   25.0410 C.2       1 JPS        -0.0716
      6 SAK         2.2610   15.5580   23.1290 S.3       1 JPS         0.0454
      7 CAO         2.0760   13.9370   22.7770 C.2       1 JPS         0.1150
      8 CAN         2.0010   13.2210   23.9740 C.2       1 JPS        -0.0321
      9 CAR         1.8090   11.6790   23.9580 C.3       1 JPS         0.0612
     10 CAL         0.9480   11.2750   25.1550 C.2       1 JPS         0.0091
     11 OAC         1.5710   11.1780   26.2130 O.co2     1 JPS        -0.5711
     12 OAB        -0.2760   11.0620   25.0200 O.co2     1 JPS        -0.5711
     13 OAF         3.0760   10.9940   24.1390 O.3       1 JPS        -0.4516
     14 CAJ         1.2290   11.1970   22.6140 C.3       1 JPS        -0.0334
     15 CAP         2.0610   11.8050   21.4570 C.3       1 JPS         0.0958
     16 OAD         1.5430   11.3300   20.2010 O.3       1 JPS        -0.3857
     17 CAQ         1.9390   13.3210   21.4230 C.3       1 JPS         0.1665
     18 OAE         2.8510   13.9730   20.5060 O.3       1 JPS        -0.3579
     19 CA0        -0.3070   19.3200   26.5630 C.3       1 JPS        -0.0498
     20 CA1         0.9320   20.0080   26.0390 C.3       1 JPS        -0.0498
     21 H1          1.5686   18.3283   27.4911 H         1 JPS         0.0303
     22 H2          1.3090   17.9652   24.5170 H         1 JPS         0.0295
     23 H3          0.2621   16.8768   25.4898 H         1 JPS         0.0295
     24 H4          2.3708   16.1731   26.7650 H         1 JPS         0.0468
     25 H5          3.3182   17.0716   25.5315 H         1 JPS         0.0468
     26 H6          2.0588   13.6789   26.0642 H         1 JPS         0.0267
     27 H7          3.4699   11.2703   24.9582 H         1 JPS         0.1849
     28 H8          0.1822   11.5232   22.5261 H         1 JPS         0.0149
     29 H9          1.2764   10.0991   22.5646 H         1 JPS         0.0149
     30 H10         3.1157   11.5147   21.5725 H         1 JPS         0.0659
     31 H11         1.6024   10.3822   20.1733 H         1 JPS         0.2103
     32 H12         0.9209   13.5390   21.0682 H         1 JPS         0.1024
     33 H13         2.7155   14.9127   20.5409 H         1 JPS         0.2171
     34 H14        -0.7551   19.6447   27.5137 H         1 JPS         0.0268
     35 H15        -1.1031   19.0171   25.8669 H         1 JPS         0.0268
     36 H16         1.0352   20.2062   24.9619 H         1 JPS         0.0268
     37 H17         1.3831   20.8338   26.6087 H         1 JPS         0.0268
@<TRIPOS>BOND
     1    1    2 1  
     2    1   19 1  
     3    1   20 1  
     4    2    3 1  
     5    3    4 1  
     6    4    5 2  
     7    4    6 1  
     8    5    8 1  
     9    6    7 1  
    10    7    8 2  
    11    7   17 1  
    12    8    9 1  
    13    9   10 1  
    14    9   13 1  
    15    9   14 1  
    16   10   11 ar 
    17   10   12 ar 
    18   14   15 1  
    19   15   16 1  
    20   15   17 1  
    21   17   18 1  
    22   19   20 1  
    23    1   21 1  
    24    2   22 1  
    25    2   23 1  
    26    3   24 1  
    27    3   25 1  
    28    5   26 1  
    29   13   27 1  
    30   14   28 1  
    31   14   29 1  
    32   15   30 1  
    33   16   31 1  
    34   17   32 1  
    35   18   33 1  
    36   19   34 1  
    37   19   35 1  
    38   20   36 1  
    39   20   37 1  
@<TRIPOS>SUBSTRUCTURE
     1 JPS         1

