### 
### Created by X-TOOL on Mon Sep 10 21:13:03 2018
### 

@<TRIPOS>MOLECULE
2xde_ligand
   59    62     1     0     0
SMALL
GAST_HUCK


@<TRIPOS>ATOM
      1 O24         1.1970    4.6210   18.6350 O.2       1 1B0        -0.3959
      2 C23         0.0920    4.1490   18.4170 C.2       1 1B0         0.1811
      3 N4         -0.1120    2.8540   18.1640 N.am      1 1B0        -0.2627
      4 C5          0.9840    1.9240   17.9150 C.3       1 1B0         0.1463
      5 C13         1.4780    2.0460   16.4950 C.2       1 1B0         0.2335
      6 N15         2.8010    2.0990   16.2580 N.am      1 1B0        -0.2210
      7 C17         3.7260    1.9350   17.3050 C.ar      1 1B0         0.0688
      8 C22         4.1510    0.6480   17.6590 C.ar      1 1B0        -0.0411
      9 C21         5.0650    0.4890   18.6900 C.ar      1 1B0        -0.0755
     10 C20         5.5620    1.6070   19.3640 C.ar      1 1B0        -0.0772
     11 C19         5.1510    2.8890   19.0110 C.ar      1 1B0        -0.0755
     12 C18         4.2300    3.0580   17.9770 C.ar      1 1B0        -0.0411
     13 C16         3.3740    2.3470   14.9390 C.3       1 1B0         0.0445
     14 O14         0.6690    2.1180   15.5870 O.2       1 1B0        -0.3819
     15 C6          0.5610    0.4810   18.2020 C.3       1 1B0         0.0219
     16 C7          0.2680    0.3300   19.6780 C.ar      1 1B0        -0.0385
     17 C12         1.2810    0.0130   20.5840 C.ar      1 1B0        -0.0601
     18 C11         1.0030   -0.1170   21.9410 C.ar      1 1B0        -0.0686
     19 C10        -0.2960    0.0810   22.4060 C.ar      1 1B0        -0.0687
     20 C9         -1.3050    0.4000   21.5030 C.ar      1 1B0        -0.0686
     21 C8         -1.0310    0.5220   20.1430 C.ar      1 1B0        -0.0601
     22 C25        -1.1250    5.0430   18.4380 C.3       1 1B0         0.0481
     23 C1         -1.0650    5.8400   19.7220 C.2       1 1B0        -0.0299
     24 C26        -1.0220    5.2950   21.1000 C.ar      1 1B0        -0.0298
     25 C31        -1.0310    3.9810   21.5670 C.ar      1 1B0        -0.0797
     26 C30        -0.9850    3.7570   22.9430 C.ar      1 1B0        -0.0830
     27 C29        -0.9290    4.8410   23.8240 C.ar      1 1B0        -0.0802
     28 C28        -0.9210    6.1490   23.3350 C.ar      1 1B0        -0.0482
     29 C27        -0.9620    6.3790   21.9600 C.ar      1 1B0         0.0561
     30 N3         -0.9650    7.5120   21.2070 N.pl3     1 1B0        -0.2813
     31 C2         -1.0230    7.2260   19.8770 C.2       1 1B0         0.0375
     32 C32        -1.0390    8.2540   18.7750 C.3       1 1B0        -0.0119
     33 H1         -1.0504    2.5090   18.1445 H         1 1B0         0.1885
     34 H2          1.8115    2.1816   18.5924 H         1 1B0         0.0829
     35 H3          3.7681   -0.2177   17.1308 H         1 1B0         0.0502
     36 H4          5.3941   -0.5043   18.9732 H         1 1B0         0.0577
     37 H5          6.2748    1.4748   20.1699 H         1 1B0         0.0487
     38 H6          5.5444    3.7515   19.5367 H         1 1B0         0.0577
     39 H7          3.9054    4.0528   17.6942 H         1 1B0         0.0502
     40 H8          2.5645    2.4586   14.2027 H         1 1B0         0.0550
     41 H9          4.0157    1.5006   14.6529 H         1 1B0         0.0550
     42 H10         3.9736    3.2688   14.9671 H         1 1B0         0.0550
     43 H11         1.3733   -0.2037   17.9168 H         1 1B0         0.0474
     44 H12        -0.3420    0.2405   17.6217 H         1 1B0         0.0474
     45 H13         2.2940   -0.1333   20.2271 H         1 1B0         0.0557
     46 H14         1.7953   -0.3719   22.6355 H         1 1B0         0.0599
     47 H15        -0.5182   -0.0128   23.4628 H         1 1B0         0.0559
     48 H16        -2.3160    0.5554   21.8620 H         1 1B0         0.0599
     49 H17        -1.8265    0.7657   19.4481 H         1 1B0         0.0557
     50 H18        -2.0412    4.4348   18.4132 H         1 1B0         0.0555
     51 H19        -1.1112    5.7206   17.5716 H         1 1B0         0.0555
     52 H20        -1.0730    3.1490   20.8734 H         1 1B0         0.0510
     53 H21        -0.9927    2.7439   23.3286 H         1 1B0         0.0500
     54 H22        -0.8916    4.6652   24.8930 H         1 1B0         0.0502
     55 H23        -0.8829    6.9852   24.0238 H         1 1B0         0.0531
     56 H24        -0.9281    8.4658   21.5941 H         1 1B0         0.2218
     57 H25        -1.0891    7.7461   17.8005 H         1 1B0         0.0409
     58 H26        -0.1226    8.8603   18.8258 H         1 1B0         0.0409
     59 H27        -1.9170    8.9058   18.8943 H         1 1B0         0.0409
@<TRIPOS>BOND
     1    1    2 2  
     2    2    3 am 
     3    2   22 1  
     4    3    4 1  
     5    4    5 1  
     6    4   15 1  
     7    5    6 am 
     8    5   14 2  
     9    6    7 1  
    10    6   13 1  
    11    7    8 ar 
    12    7   12 ar 
    13    8    9 ar 
    14    9   10 ar 
    15   10   11 ar 
    16   11   12 ar 
    17   15   16 1  
    18   16   17 ar 
    19   16   21 ar 
    20   17   18 ar 
    21   18   19 ar 
    22   19   20 ar 
    23   20   21 ar 
    24   22   23 1  
    25   23   24 1  
    26   23   31 2  
    27   24   25 ar 
    28   24   29 ar 
    29   25   26 ar 
    30   26   27 ar 
    31   27   28 ar 
    32   28   29 ar 
    33   29   30 1  
    34   30   31 1  
    35   31   32 1  
    36    3   33 1  
    37    4   34 1  
    38    8   35 1  
    39    9   36 1  
    40   10   37 1  
    41   11   38 1  
    42   12   39 1  
    43   13   40 1  
    44   13   41 1  
    45   13   42 1  
    46   15   43 1  
    47   15   44 1  
    48   17   45 1  
    49   18   46 1  
    50   19   47 1  
    51   20   48 1  
    52   21   49 1  
    53   22   50 1  
    54   22   51 1  
    55   25   52 1  
    56   26   53 1  
    57   27   54 1  
    58   28   55 1  
    59   30   56 1  
    60   32   57 1  
    61   32   58 1  
    62   32   59 1  
@<TRIPOS>SUBSTRUCTURE
     1 1B0         1

