### 
### Created by X-TOOL on Mon Sep 10 21:13:02 2018
### 

@<TRIPOS>MOLECULE
2xdk_ligand
   21    22     1     0     0
SMALL
GAST_HUCK


@<TRIPOS>ATOM
      1 C7A         6.2120    4.1810    9.3060 C.ar      1 XDK        -0.0301
      2 C3A         5.8060    4.2540    7.9860 C.ar      1 XDK         0.0142
      3 N2A         5.8580    3.2030    7.1600 N.ar      1 XDK        -0.2920
      4 C1A         6.3050    2.0380    7.6540 C.ar      1 XDK         0.0248
      5 C5A         6.7250    1.8730    8.9730 C.ar      1 XDK         0.0314
      6 C4          7.2110    0.5550    9.4690 C.ar      1 XDK         0.0612
      7 N3          6.7280    0.1430   10.6520 N.ar      1 XDK        -0.2492
      8 C5          8.1040   -0.2210    8.7530 C.ar      1 XDK        -0.0159
      9 C6          8.4900   -1.4350    9.2720 C.ar      1 XDK         0.0138
     10 N1          8.0230   -1.8670   10.4440 N.ar      1 XDK        -0.2552
     11 C2          7.1480   -1.0650   11.0960 C.ar      1 XDK         0.1876
     12 N7          6.6440   -1.5080   12.2960 N.pl3     1 XDK        -0.3031
     13 C9          6.6690    2.9810    9.8090 C.ar      1 XDK        -0.0291
     14 H1          6.1714    5.0595    9.9398 H         1 XDK         0.0718
     15 H2          5.4317    5.1979    7.6066 H         1 XDK         0.0847
     16 H3          6.3414    1.1800    6.9925 H         1 XDK         0.0864
     17 H4          8.4926    0.1210    7.8006 H         1 XDK         0.0673
     18 H5          9.1873   -2.0525    8.7175 H         1 XDK         0.0892
     19 H6          5.9761   -0.9253   12.8206 H         1 XDK         0.1825
     20 H7          6.9344   -2.4226   12.6704 H         1 XDK         0.1825
     21 H8          6.9808    2.9033   10.8443 H         1 XDK         0.0773
@<TRIPOS>BOND
     1    1    2 ar 
     2    1   13 ar 
     3    2    3 ar 
     4    3    4 ar 
     5    4    5 ar 
     6    5    6 1  
     7    5   13 ar 
     8    6    7 ar 
     9    6    8 ar 
    10    7   11 ar 
    11    8    9 ar 
    12    9   10 ar 
    13   10   11 ar 
    14   11   12 1  
    15    1   14 1  
    16    2   15 1  
    17    4   16 1  
    18    8   17 1  
    19    9   18 1  
    20   12   19 1  
    21   12   20 1  
    22   13   21 1  
@<TRIPOS>SUBSTRUCTURE
     1 XDK         1

