### 
### Created by X-TOOL on Mon Sep 10 21:13:03 2018
### 

@<TRIPOS>MOLECULE
2xdl_ligand
   33    33     1     0     0
SMALL
GAST_HUCK


@<TRIPOS>ATOM
      1 C1         64.9910   33.1470   27.7090 C.ar      1 2DL         0.1220
      2 C2         66.0820   33.4500   26.8880 C.ar      1 2DL         0.1250
      3 C3         65.8810   34.1640   25.7290 C.ar      1 2DL        -0.0217
      4 C4         64.6130   34.5720   25.3420 C.ar      1 2DL         0.0297
      5 C5         63.5170   34.2650   26.1560 C.ar      1 2DL        -0.0615
      6 C6         63.7040   33.5570   27.3290 C.ar      1 2DL        -0.0351
      7 O7         65.1940   32.4660   28.8720 O.3       1 2DL        -0.3332
      8 C9         65.1120   38.5490   25.2530 C.3       1 2DL        -0.0447
      9 C10        65.7340   37.1830   25.0660 C.3       1 2DL         0.0303
     10 C12        65.2710   37.1500   22.6150 C.3       1 2DL         0.0303
     11 C13        66.7140   37.4160   22.2250 C.3       1 2DL        -0.0447
     12 C14        64.4420   35.3230   24.0650 C.2       1 2DL         0.1966
     13 O15        63.7100   34.8850   23.2070 O.2       1 2DL        -0.3896
     14 O16        67.3140   33.0280   27.3160 O.3       1 2DL        -0.3239
     15 N3         65.1750   36.4640   23.9030 N.am      1 2DL        -0.2747
     16 C15        68.4560   33.8620   26.9850 C.3       1 2DL         0.0569
     17 H1         66.7318   34.4129   25.1051 H         1 2DL         0.0557
     18 H2         62.5215   34.5821   25.8671 H         1 2DL         0.0551
     19 H3         62.8535   33.3179   27.9571 H         1 2DL         0.0524
     20 H4         64.6989   31.6555   28.8536 H         1 2DL         0.2463
     21 H5         65.5617   39.0398   26.1287 H         1 2DL         0.0249
     22 H6         64.0287   38.4403   25.4097 H         1 2DL         0.0249
     23 H7         65.2934   39.1603   24.3567 H         1 2DL         0.0249
     24 H8         65.5525   36.5852   25.9714 H         1 2DL         0.0519
     25 H9         66.8172   37.3053   24.9184 H         1 2DL         0.0519
     26 H10        64.8028   36.5231   21.8418 H         1 2DL         0.0519
     27 H11        64.7374   38.1096   22.6819 H         1 2DL         0.0519
     28 H12        66.7422   37.9315   21.2537 H         1 2DL         0.0249
     29 H13        67.2553   36.4614   22.1493 H         1 2DL         0.0249
     30 H14        67.1899   38.0478   22.9894 H         1 2DL         0.0249
     31 H15        69.3722   33.4057   27.3879 H         1 2DL         0.0573
     32 H16        68.3201   34.8611   27.4246 H         1 2DL         0.0573
     33 H17        68.5407   33.9507   25.8919 H         1 2DL         0.0573
@<TRIPOS>BOND
     1    2    1 ar 
     2    6    1 ar 
     3    1    7 1  
     4    3    2 ar 
     5    2   14 1  
     6    4    3 ar 
     7    4    5 ar 
     8   12    4 1  
     9    5    6 ar 
    10    9    8 1  
    11   15    9 1  
    12   10   11 1  
    13   15   10 1  
    14   12   13 2  
    15   12   15 am 
    16   14   16 1  
    17    3   17 1  
    18    5   18 1  
    19    6   19 1  
    20    7   20 1  
    21    8   21 1  
    22    8   22 1  
    23    8   23 1  
    24    9   24 1  
    25    9   25 1  
    26   10   26 1  
    27   10   27 1  
    28   11   28 1  
    29   11   29 1  
    30   11   30 1  
    31   16   31 1  
    32   16   32 1  
    33   16   33 1  
@<TRIPOS>SUBSTRUCTURE
     1 2DL         1

