### 
### Created by X-TOOL on Mon Sep 10 21:13:02 2018
### 

@<TRIPOS>MOLECULE
2xdw_ligand
   51    53     1     0     0
SMALL
GAST_HUCK


@<TRIPOS>ATOM
      1 C1         45.1100   37.4500   88.2230 C.ar      1 PHQ        -0.0578
      2 C2         45.7190   36.4260   88.9420 C.ar      1 PHQ        -0.0685
      3 C3         45.8460   35.1560   88.3670 C.ar      1 PHQ        -0.0687
      4 C4         45.4000   34.8960   87.0770 C.ar      1 PHQ        -0.0685
      5 C5         44.7800   35.9200   86.3600 C.ar      1 PHQ        -0.0578
      6 C6         44.6350   37.1820   86.9300 C.ar      1 PHQ        -0.0130
      7 C7         43.9710   38.2880   86.1530 C.3       1 PHQ         0.1113
      8 O12        42.5510   38.0930   86.3090 O.3       1 PHQ        -0.2504
      9 C14        41.8040   37.5250   85.2350 C.2       1 PHQ         0.3265
     10 O15        42.3650   37.2600   84.1690 O.2       1 PHQ        -0.3772
     11 N          40.4980   37.3490   85.4990 N.am      1 PRO        -0.2273
     12 CA         39.5960   36.8000   84.5140 C.3       1 PRO         0.1357
     13 C          39.2830   37.8560   83.4850 C.2       1 PRO         0.2046
     14 O          39.6890   39.0340   83.6500 O.2       1 PRO        -0.3943
     15 CB         38.3480   36.5200   85.3550 C.3       1 PRO        -0.0104
     16 CG         38.4110   37.5160   86.4960 C.3       1 PRO        -0.0282
     17 CD         39.8920   37.6880   86.7900 C.3       1 PRO         0.0388
     18 C          36.7440   39.0120   81.7070 C.3       1 YCP         0.0673
     19 N          38.5630   37.5020   82.4160 N.am      1 YCP        -0.2661
     20 O          35.8670   37.8970   81.9070 O.3       1 YCP        -0.3927
     21 CA         38.1990   38.5680   81.4270 C.3       1 YCP         0.0681
     22 CB         38.3260   38.0370   79.9700 C.3       1 YCP        -0.0274
     23 CD         38.2230   35.6820   80.7310 C.3       1 YCP        -0.0324
     24 CE         38.0240   36.1230   82.1780 C.3       1 YCP         0.0343
     25 CG         37.6530   36.6850   79.7300 C.3       1 YCP        -0.0491
     26 H          45.0036   38.4442   88.6571 H         1 PHQ         0.0557
     27 H          46.0953   36.6119   89.9480 H         1 PHQ         0.0599
     28 H          46.3050   34.3532   88.9441 H         1 PHQ         0.0559
     29 H          45.5321   33.9094   86.6329 H         1 PHQ         0.0599
     30 H          44.4088   35.7317   85.3526 H         1 PHQ         0.0557
     31 H          44.2587   38.2574   85.1021 H         1 PHQ         0.0776
     32 H          44.2763   39.2666   86.5236 H         1 PHQ         0.0776
     33 H          39.9819   35.9302   83.9823 H         1 PRO         0.0801
     34 H          38.3277   35.4921   85.7172 H         1 PRO         0.0313
     35 H          37.4344   36.6323   84.7712 H         1 PRO         0.0313
     36 H          37.8649   37.1622   87.3705 H         1 PRO         0.0287
     37 H          37.9401   38.4627   86.2311 H         1 PRO         0.0287
     38 H          40.1503   38.6875   87.1400 H         1 PRO         0.0523
     39 H          40.2454   37.0640   87.6109 H         1 PRO         0.0523
     40 H          36.7418   39.6127   82.6166 H         1 YCP         0.0580
     41 H          36.3882   39.5726   80.8426 H         1 YCP         0.0580
     42 H          36.1719   37.3821   82.6577 H         1 YCP         0.2095
     43 H          38.8793   39.4130   81.5326 H         1 YCP         0.0581
     44 H          39.3892   37.9055   79.7688 H         1 YCP         0.0288
     45 H          37.8315   38.7602   79.3215 H         1 YCP         0.0288
     46 H          37.7005   34.7354   80.5931 H         1 YCP         0.0285
     47 H          39.2945   35.5978   80.5495 H         1 YCP         0.0285
     48 H          36.9551   36.1303   82.3911 H         1 YCP         0.0522
     49 H          38.5590   35.4284   82.8256 H         1 YCP         0.0522
     50 H          37.8446   36.3472   78.7115 H         1 YCP         0.0267
     51 H          36.5749   36.7749   79.8631 H         1 YCP         0.0267
@<TRIPOS>BOND
     1    1    2 ar 
     2    6    1 ar 
     3    2    3 ar 
     4    4    3 ar 
     5    5    4 ar 
     6    6    5 ar 
     7    7    6 1  
     8    8    7 1  
     9    9    8 1  
    10    9   10 2  
    11   11    9 am 
    12   12   11 1  
    13   11   17 1  
    14   13   12 1  
    15   12   15 1  
    16   13   14 2  
    17   19   13 am 
    18   15   16 1  
    19   16   17 1  
    20   18   20 1  
    21   21   18 1  
    22   19   21 1  
    23   19   24 1  
    24   21   22 1  
    25   22   25 1  
    26   24   23 1  
    27   23   25 1  
    28    1   26 1  
    29    2   27 1  
    30    3   28 1  
    31    4   29 1  
    32    5   30 1  
    33    7   31 1  
    34    7   32 1  
    35   12   33 1  
    36   15   34 1  
    37   15   35 1  
    38   16   36 1  
    39   16   37 1  
    40   17   38 1  
    41   17   39 1  
    42   18   40 1  
    43   18   41 1  
    44   20   42 1  
    45   21   43 1  
    46   22   44 1  
    47   22   45 1  
    48   23   46 1  
    49   23   47 1  
    50   24   48 1  
    51   24   49 1  
    52   25   50 1  
    53   25   51 1  
@<TRIPOS>SUBSTRUCTURE
     1 PHQ         1

