### 
### Created by X-TOOL on Mon Sep 10 21:13:04 2018
### 

@<TRIPOS>MOLECULE
2xdx_ligand
   26    27     1     0     0
SMALL
GAST_HUCK


@<TRIPOS>ATOM
      1 C1          7.8430    1.1960   11.3880 C.3       1 WOE         0.0613
      2 O2          7.1520    0.0690   10.8440 O.3       1 WOE        -0.3157
      3 C3          6.6110    0.1980    9.5910 C.ar      1 WOE         0.1076
      4 C4          6.0840    1.3720    9.0780 C.ar      1 WOE        -0.0273
      5 C5          5.5590    1.3950    7.8060 C.ar      1 WOE        -0.0667
      6 C6          5.5890    0.2530    7.0220 C.ar      1 WOE        -0.0680
      7 C7          6.1200   -0.9240    7.5200 C.ar      1 WOE        -0.0558
      8 C8          6.6510   -0.9650    8.8020 C.ar      1 WOE         0.0333
      9 C9          7.2110   -2.2400    9.3090 C.ar      1 WOE         0.0465
     10 C10         8.1140   -2.9860    8.5920 C.ar      1 WOE        -0.0054
     11 C11         8.5540   -4.1750    9.1470 C.ar      1 WOE         0.1170
     12 CL1         9.6710   -5.1730    8.2680 Cl        1 WOE        -0.0332
     13 N13         8.1690   -4.6230   10.3490 N.ar      1 WOE        -0.2440
     14 C14         7.2720   -3.8210   11.0000 C.ar      1 WOE         0.1796
     15 N15         6.8410   -4.2230   12.2520 N.pl3     1 WOE        -0.3046
     16 N16         6.7980   -2.6350   10.5260 N.ar      1 WOE        -0.2600
     17 H1          8.2195    0.9461   12.3909 H         1 WOE         0.0581
     18 H2          7.1536    2.0503   11.4575 H         1 WOE         0.0581
     19 H3          8.6877    1.4588   10.7343 H         1 WOE         0.0581
     20 H4          6.0851    2.2739    9.6794 H         1 WOE         0.0553
     21 H5          5.1216    2.3074    7.4171 H         1 WOE         0.0620
     22 H6          5.1943    0.2816    6.0128 H         1 WOE         0.0536
     23 H7          6.1213   -1.8176    6.9064 H         1 WOE         0.0627
     24 H8          8.4703   -2.6545    7.6234 H         1 WOE         0.0628
     25 H9          7.1737   -5.1128   12.6500 H         1 WOE         0.1824
     26 H10         6.1875   -3.6324   12.7859 H         1 WOE         0.1824
@<TRIPOS>BOND
     1    1    2 1  
     2    2    3 1  
     3    3    4 ar 
     4    3    8 ar 
     5    4    5 ar 
     6    5    6 ar 
     7    6    7 ar 
     8    7    8 ar 
     9    8    9 1  
    10    9   10 ar 
    11    9   16 ar 
    12   10   11 ar 
    13   11   12 1  
    14   11   13 ar 
    15   13   14 ar 
    16   14   15 1  
    17   14   16 ar 
    18    1   17 1  
    19    1   18 1  
    20    1   19 1  
    21    4   20 1  
    22    5   21 1  
    23    6   22 1  
    24    7   23 1  
    25   10   24 1  
    26   15   25 1  
    27   15   26 1  
@<TRIPOS>SUBSTRUCTURE
     1 WOE         1

