### 
### Created by X-TOOL on Mon Sep 10 21:13:02 2018
### 

@<TRIPOS>MOLECULE
2xe4_ligand
   90    90     1     0     0
SMALL
GAST_HUCK


@<TRIPOS>ATOM
      1 CD1        -3.5310   24.2540   67.4760 C.ar      1 FC0        -0.0602
      2 CE1        -3.7450   22.9060   67.1500 C.ar      1 FC0        -0.0686
      3 CZ         -4.4130   22.5740   65.9770 C.ar      1 FC0        -0.0687
      4 CE2        -4.8680   23.5960   65.1230 C.ar      1 FC0        -0.0686
      5 CD2        -4.6640   24.9470   65.4650 C.ar      1 FC0        -0.0602
      6 CG         -3.9970   25.2840   66.6640 C.ar      1 FC0        -0.0392
      7 CB         -3.7720   26.7790   67.0450 C.3       1 FC0         0.0157
      8 CA         -3.8270   27.0900   68.5840 C.3       1 FC0         0.1042
      9 C          -3.7760   28.6370   68.8900 C.2       1 FC0         0.0619
     10 O          -3.5640   29.0220   70.0930 O.co2     1 FC0        -0.5665
     11 OXT        -4.0210   29.3910   67.9320 O.co2     1 FC0        -0.5665
     12 N          -5.0430   26.5660   69.2790 N.am      1 FC0        -0.2557
     13 C1         -5.0930   26.4850   70.6370 C.2       1 FC0         0.2615
     14 O1         -4.1030   26.8640   71.3010 O.2       1 FC0        -0.4006
     15 N          -6.2240   25.9640   71.2350 N.am      1 ARG        -0.2518
     16 CA         -6.4750   25.8520   72.7050 C.3       1 ARG         0.1314
     17 C          -5.7520   24.5030   73.1310 C.2       1 ARG         0.2037
     18 O          -6.3630   23.4780   73.5020 O.2       1 ARG        -0.3944
     19 CB         -7.9670   25.6240   72.9410 C.3       1 ARG        -0.0095
     20 CG         -8.7800   26.8910   72.7380 C.3       1 ARG        -0.0156
     21 CD        -10.3340   26.5640   72.8860 C.3       1 ARG         0.0627
     22 NE        -10.8520   25.9250   74.2530 N.pl3     1 ARG        -0.2723
     23 CZ        -11.1950   24.7790   75.0580 C.cat     1 ARG         0.2882
     24 NH1       -11.6200   23.3510   74.7900 N.pl3     1 ARG        -0.2849
     25 NH2       -11.3460   25.3200   76.3390 N.pl3     1 ARG        -0.2849
     26 N          -4.4400   24.4790   73.0300 N.am      1 VAL        -0.2635
     27 CA         -3.6670   23.2590   73.2650 C.3       1 VAL         0.1331
     28 C          -2.8530   23.4040   74.5240 C.2       1 VAL         0.2022
     29 O          -2.5020   24.4950   74.9430 O.2       1 VAL        -0.3945
     30 CB         -2.7600   22.9390   71.9890 C.3       1 VAL        -0.0063
     31 CG1        -3.7730   22.5520   70.7830 C.3       1 VAL        -0.0584
     32 CG2        -1.7700   24.1130   71.6820 C.3       1 VAL        -0.0584
     33 N          -2.4120   22.2230   74.9770 N.am      1 RGL        -0.2798
     34 CA         -1.4650   22.1680   76.1230 C.3       1 RGL         0.0652
     35 C          -0.0800   22.3510   75.4320 C.3       1 RGL         0.0671
     36 O           0.2710   21.2790   74.5170 O.3       1 RGL        -0.3927
     37 CB         -1.4950   20.8250   76.8900 C.3       1 RGL        -0.0246
     38 CG         -2.9840   20.7780   77.5020 C.3       1 RGL        -0.0176
     39 CD         -3.0690   19.4630   78.3310 C.3       1 RGL         0.0626
     40 NE         -4.4500   19.0820   78.5430 N.pl3     1 RGL        -0.2723
     41 CZ         -5.2000   19.2860   79.6930 C.cat     1 RGL         0.2882
     42 NH1        -4.7650   20.1190   80.6800 N.pl3     1 RGL        -0.2849
     43 NH2        -6.3570   18.5760   79.6780 N.pl3     1 RGL        -0.2849
     44 H          -2.9865   24.5005   68.3875 H         1 FC0         0.0557
     45 H          -3.3879   22.1203   67.8157 H         1 FC0         0.0599
     46 H          -4.5834   21.5285   65.7202 H         1 FC0         0.0559
     47 H          -5.3795   23.3414   64.1947 H         1 FC0         0.0599
     48 H          -5.0219   25.7351   64.8025 H         1 FC0         0.0557
     49 H          -4.5792   27.3460   66.5812 H         1 FC0         0.0466
     50 H          -2.7694   27.0414   66.7074 H         1 FC0         0.0466
     51 H          -2.9431   26.5779   68.9643 H         1 FC0         0.0746
     52 H          -5.8466   26.2649   68.7276 H         1 FC0         0.1871
     53 H          -6.9583   25.6230   70.6145 H         1 ARG         0.1877
     54 H          -6.1358   26.7376   73.2424 H         1 ARG         0.0797
     55 H          -8.1012   25.2964   73.9719 H         1 ARG         0.0313
     56 H          -8.3140   24.8798   72.2242 H         1 ARG         0.0313
     57 H          -8.5880   27.2869   71.7408 H         1 ARG         0.0301
     58 H          -8.4933   27.6277   73.4884 H         1 ARG         0.0301
     59 H         -10.5403   25.8121   72.1243 H         1 ARG         0.0689
     60 H         -10.8358   27.5290   72.8149 H         1 ARG         0.0689
     61 H         -11.0283   26.7260   74.8594 H         1 ARG         0.2642
     62 H         -11.7170   23.0193   73.8303 H         1 ARG         0.2615
     63 H         -11.8093   22.7205   75.5691 H         1 ARG         0.2615
     64 H         -11.2076   26.3192   76.4902 H         1 ARG         0.2615
     65 H         -11.5945   24.7153   77.1220 H         1 ARG         0.2615
     66 H          -3.9473   25.3365   72.7804 H         1 VAL         0.1883
     67 H          -4.3392   22.4129   73.4079 H         1 VAL         0.0802
     68 H          -2.0937   22.0928   72.1568 H         1 VAL         0.0343
     69 H          -4.3613   21.6804   71.0699 H         1 VAL         0.0234
     70 H          -4.4387   23.3923   70.5856 H         1 VAL         0.0234
     71 H          -3.1975   22.3242   69.8858 H         1 VAL         0.0234
     72 H          -2.3372   25.0226   71.4844 H         1 VAL         0.0234
     73 H          -1.1170   24.2698   72.5405 H         1 VAL         0.0234
     74 H          -1.1692   23.8609   70.8082 H         1 VAL         0.0234
     75 H          -2.7263   21.3592   74.5350 H         1 RGL         0.1855
     76 H          -1.7091   22.9170   76.8763 H         1 RGL         0.0579
     77 H           0.6743   22.3640   76.2188 H         1 RGL         0.0580
     78 H          -0.1291   23.2704   74.8486 H         1 RGL         0.0580
     79 H           1.1315   21.4582   74.1310 H         1 RGL         0.2095
     80 H          -0.7243   20.7643   77.6584 H         1 RGL         0.0289
     81 H          -1.2791   19.9711   76.2478 H         1 RGL         0.0289
     82 H          -3.7351   20.7949   76.7122 H         1 RGL         0.0300
     83 H          -3.1812   21.6500   78.1255 H         1 RGL         0.0300
     84 H          -2.5948   19.6247   79.2990 H         1 RGL         0.0689
     85 H          -2.5633   18.6674   77.7838 H         1 RGL         0.0689
     86 H          -4.9200   18.6156   77.7672 H         1 RGL         0.2642
     87 H          -3.8740   20.6055   80.5809 H         1 RGL         0.2615
     88 H          -5.3305   20.2560   81.5178 H         1 RGL         0.2615
     89 H          -6.5809   17.9827   78.8791 H         1 RGL         0.2615
     90 H          -7.0024   18.6359   80.4656 H         1 RGL         0.2615
@<TRIPOS>BOND
     1    1    2 ar 
     2    1    6 ar 
     3    2    3 ar 
     4    3    4 ar 
     5    4    5 ar 
     6    5    6 ar 
     7    6    7 1  
     8    7    8 1  
     9    8    9 1  
    10    8   12 1  
    11    9   10 ar 
    12    9   11 ar 
    13   12   13 am 
    14   13   14 2  
    15   13   15 am 
    16   15   16 1  
    17   16   17 1  
    18   16   19 1  
    19   17   18 2  
    20   17   26 am 
    21   19   20 1  
    22   20   21 1  
    23   21   22 1  
    24   22   23 ar 
    25   23   24 ar 
    26   23   25 ar 
    27   26   27 1  
    28   27   28 1  
    29   27   30 1  
    30   28   29 2  
    31   28   33 am 
    32   30   31 1  
    33   30   32 1  
    34   33   34 1  
    35   34   35 1  
    36   34   37 1  
    37   35   36 1  
    38   37   38 1  
    39   38   39 1  
    40   39   40 1  
    41   40   41 ar 
    42   41   42 ar 
    43   41   43 ar 
    44    1   44 1  
    45    2   45 1  
    46    3   46 1  
    47    4   47 1  
    48    5   48 1  
    49    7   49 1  
    50    7   50 1  
    51    8   51 1  
    52   12   52 1  
    53   15   53 1  
    54   16   54 1  
    55   19   55 1  
    56   19   56 1  
    57   20   57 1  
    58   20   58 1  
    59   21   59 1  
    60   21   60 1  
    61   22   61 1  
    62   24   62 1  
    63   24   63 1  
    64   25   64 1  
    65   25   65 1  
    66   26   66 1  
    67   27   67 1  
    68   30   68 1  
    69   31   69 1  
    70   31   70 1  
    71   31   71 1  
    72   32   72 1  
    73   32   73 1  
    74   32   74 1  
    75   33   75 1  
    76   34   76 1  
    77   35   77 1  
    78   35   78 1  
    79   36   79 1  
    80   37   80 1  
    81   37   81 1  
    82   38   82 1  
    83   38   83 1  
    84   39   84 1  
    85   39   85 1  
    86   40   86 1  
    87   42   87 1  
    88   42   88 1  
    89   43   89 1  
    90   43   90 1  
@<TRIPOS>SUBSTRUCTURE
     1 FC0         1

