### 
### Created by X-TOOL on Mon Sep 10 21:13:02 2018
### 

@<TRIPOS>MOLECULE
2xef_ligand
  119   120     1     0     0
SMALL
GAST_HUCK


@<TRIPOS>ATOM
      1 OAA        13.6780   48.5550   40.4320 O.co2     1 AR8        -0.5690
      2 CBZ        13.7100   47.3180   40.1820 C.2       1 AR8         0.0350
      3 OAG        12.9160   46.7110   39.4310 O.co2     1 AR8        -0.5690
      4 CBH        14.8640   46.5160   40.8210 C.3       1 AR8         0.0038
      5 CBJ        14.6130   45.0040   41.0280 C.3       1 AR8        -0.0066
      6 CCI        15.9530   44.2980   41.3870 C.3       1 AR8         0.0962
      7 CCB        16.9260   44.4800   40.1820 C.2       1 AR8         0.0600
      8 OAI        16.8290   43.6820   39.2200 O.co2     1 AR8        -0.5666
      9 OAC        17.8310   45.3600   40.2180 O.co2     1 AR8        -0.5666
     10 NBQ        16.6050   44.9270   42.5620 N.am      1 AR8        -0.2575
     11 CCC        17.8670   44.5470   42.8730 C.2       1 AR8         0.2608
     12 OAD        18.3030   43.4720   42.4230 O.2       1 AR8        -0.4006
     13 N          18.5170   45.3040   43.7580 N.am      1 AR8        -0.2576
     14 CA         19.8540   44.9550   44.2150 C.3       1 AR8         0.0947
     15 C          20.0470   45.6070   45.5870 C.2       1 AR8         0.0599
     16 OXT        20.6410   44.9100   46.4450 O.co2     1 AR8        -0.5666
     17 O          19.5110   46.7230   45.7860 O.co2     1 AR8        -0.5666
     18 CB         20.7270   45.6880   43.1890 C.3       1 AR8        -0.0181
     19 CAP        22.2140   45.3450   43.1670 C.3       1 AR8        -0.0467
     20 CAQ        22.7530   46.1600   41.9810 C.3       1 AR8        -0.0223
     21 CBK        24.1760   45.7860   41.5860 C.3       1 AR8         0.0754
     22 NCJ        24.6640   46.7580   40.5820 N.pl3     1 AR8        -0.1812
     23 CAO        24.9100   48.0490   40.8200 C.2       1 AR8         0.0716
     24 NBN        24.9000   46.4700   39.3960 N.2       1 AR8        -0.1019
     25 NBM        25.2980   47.4730   38.7760 N.2       1 AR8        -0.2242
     26 CCD        25.3180   48.4970   39.6360 C.2       1 AR8         0.0625
     27 CBL        25.7160   49.8140   39.3400 C.3       1 AR8         0.0825
     28 OBY        24.8670   50.9660   39.6180 O.3       1 AR8        -0.3688
     29 CBG        25.5780   52.0450   40.2580 C.3       1 AR8         0.0729
     30 CBF        25.2060   52.2120   41.7450 C.3       1 AR8         0.0713
     31 OBX        25.2280   53.5980   42.1700 O.3       1 AR8        -0.3752
     32 CBE        26.5500   53.9950   42.5860 C.3       1 AR8         0.0711
     33 CBD        27.0290   55.2170   41.8030 C.3       1 AR8         0.0711
     34 OBW        27.9940   55.9200   42.6180 O.3       1 AR8        -0.3752
     35 CBC        29.1800   56.2430   41.8270 C.3       1 AR8         0.0711
     36 CBB        29.5210   57.7510   41.9710 C.3       1 AR8         0.0711
     37 OBV        29.9510   57.9940   43.3550 O.3       1 AR8        -0.3752
     38 CBA        29.3900   59.2770   43.8130 C.3       1 AR8         0.0711
     39 CAZ        28.3590   59.1040   44.9820 C.3       1 AR8         0.0711
     40 OBU        27.2840   58.2190   44.5910 O.3       1 AR8        -0.3752
     41 CAY        26.1090   58.9570   44.0750 C.3       1 AR8         0.0711
     42 CAX        25.2120   58.0390   43.2250 C.3       1 AR8         0.0711
     43 OBT        23.9380   57.5710   43.8790 O.3       1 AR8        -0.3752
     44 CAW        24.1860   56.9210   45.1310 C.3       1 AR8         0.0711
     45 CAV        23.0620   55.9480   45.4400 C.3       1 AR8         0.0711
     46 OBS        23.3750   54.5230   45.4660 O.3       1 AR8        -0.3752
     47 CAU        24.7760   54.2090   45.4550 C.3       1 AR8         0.0711
     48 CAT        25.1800   53.3100   46.6010 C.3       1 AR8         0.0711
     49 OBR        26.5540   52.9360   46.4100 O.3       1 AR8        -0.3755
     50 CAS        27.3190   53.4180   47.5260 C.3       1 AR8         0.0677
     51 CAR        28.6570   54.0450   47.1140 C.3       1 AR8         0.0505
     52 NBO        29.6730   53.6210   48.0950 N.pl3     1 AR8        -0.3104
     53 CCF        31.0010   53.7140   47.9320 C.ar      1 AR8         0.0904
     54 CAM        31.5480   54.5880   46.9860 C.ar      1 AR8        -0.0264
     55 CAL        32.9320   54.6830   46.8420 C.ar      1 AR8        -0.0246
     56 CCE        33.7840   53.9150   47.6410 C.ar      1 AR8         0.1943
     57 NCK        35.1200   54.0020   47.4960 N.2       1 AR8         0.3062
     58 OAJ        35.6970   54.8660   46.5070 O.2       1 AR8         0.1724
     59 OAE        36.0120   53.2200   48.3080 O.2       1 AR8         0.1724
     60 CAN        33.2310   53.0480   48.5890 C.ar      1 AR8         0.0139
     61 CCG        31.8470   52.9370   48.7440 C.ar      1 AR8         0.2256
     62 NCL        31.3570   52.0880   49.6660 N.2       1 AR8         0.3082
     63 OAK        29.9680   51.8380   49.7760 O.2       1 AR8         0.1714
     64 OAF        32.2200   51.4110   50.5550 O.2       1 AR8         0.1714
     65 H1         15.0754   46.9588   41.8055 H         1 AR8         0.0432
     66 H2         15.7465   46.6239   40.1733 H         1 AR8         0.0432
     67 H3         14.2068   44.5700   40.1025 H         1 AR8         0.0323
     68 H4         13.8927   44.8610   41.8470 H         1 AR8         0.0323
     69 H5         15.7709   43.2312   41.5840 H         1 AR8         0.0724
     70 H6         16.1255   45.6129   43.1094 H         1 AR8         0.1869
     71 H7         18.0768   46.1280   44.1148 H         1 AR8         0.1869
     72 H8         20.0390   43.8711   44.2442 H         1 AR8         0.0723
     73 H9         20.6390   46.7660   43.3895 H         1 AR8         0.0305
     74 H10        20.3215   45.4663   42.1908 H         1 AR8         0.0305
     75 H11        22.3666   44.2677   43.0053 H         1 AR8         0.0268
     76 H12        22.7012   45.6476   44.1056 H         1 AR8         0.0268
     77 H13        22.7356   47.2255   42.2537 H         1 AR8         0.0294
     78 H14        22.0955   45.9922   41.1153 H         1 AR8         0.0294
     79 H15        24.1862   44.7737   41.1558 H         1 AR8         0.0648
     80 H16        24.8254   45.8139   42.4734 H         1 AR8         0.0648
     81 H17        24.8029   48.5993   41.7536 H         1 AR8         0.0899
     82 H18        25.9192   49.8370   38.2592 H         1 AR8         0.0677
     83 H19        26.6519   49.9828   39.8928 H         1 AR8         0.0677
     84 H20        25.3432   52.9813   39.7305 H         1 AR8         0.0584
     85 H21        26.6573   51.8447   40.1869 H         1 AR8         0.0584
     86 H22        25.9248   51.6446   42.3545 H         1 AR8         0.0583
     87 H23        24.1941   51.8106   41.9029 H         1 AR8         0.0583
     88 H24        27.2467   53.1616   42.4128 H         1 AR8         0.0583
     89 H25        26.5309   54.2401   43.6582 H         1 AR8         0.0583
     90 H26        26.1766   55.8762   41.5817 H         1 AR8         0.0583
     91 H27        27.4987   54.8964   40.8614 H         1 AR8         0.0583
     92 H28        28.9858   56.0131   40.7690 H         1 AR8         0.0583
     93 H29        30.0298   55.6420   42.1828 H         1 AR8         0.0583
     94 H30        28.6312   58.3572   41.7456 H         1 AR8         0.0583
     95 H31        30.3317   58.0175   41.2769 H         1 AR8         0.0583
     96 H32        28.8831   59.7619   42.9657 H         1 AR8         0.0583
     97 H33        30.2139   59.9167   44.1623 H         1 AR8         0.0583
     98 H34        27.9402   60.0873   45.2421 H         1 AR8         0.0583
     99 H35        28.8738   58.6814   45.8575 H         1 AR8         0.0583
    100 H36        26.4554   59.7966   43.4545 H         1 AR8         0.0583
    101 H37        25.5261   59.3443   44.9236 H         1 AR8         0.0583
    102 H38        25.7996   57.1485   42.9571 H         1 AR8         0.0583
    103 H39        24.9395   58.5871   42.3111 H         1 AR8         0.0583
    104 H40        24.2442   57.6761   45.9287 H         1 AR8         0.0583
    105 H41        25.1379   56.3726   45.0750 H         1 AR8         0.0583
    106 H42        22.2821   56.0973   44.6788 H         1 AR8         0.0583
    107 H43        22.6634   56.2130   46.4304 H         1 AR8         0.0583
    108 H44        25.3475   55.1463   45.5244 H         1 AR8         0.0583
    109 H45        25.0159   53.7024   44.5086 H         1 AR8         0.0583
    110 H46        24.5465   52.4108   46.6111 H         1 AR8         0.0583
    111 H47        25.0687   53.8477   47.5542 H         1 AR8         0.0583
    112 H48        27.5215   52.5742   48.2019 H         1 AR8         0.0580
    113 H49        26.7250   54.1775   48.0554 H         1 AR8         0.0580
    114 H50        28.5721   55.1417   47.1132 H         1 AR8         0.0542
    115 H51        28.9393   53.6983   46.1090 H         1 AR8         0.0542
    116 H52        29.3340   53.2192   48.9808 H         1 AR8         0.1814
    117 H53        30.8959   55.1914   46.3649 H         1 AR8         0.0551
    118 H54        33.3505   55.3581   46.1043 H         1 AR8         0.0702
    119 H55        33.8869   52.4525   49.2136 H         1 AR8         0.0738
@<TRIPOS>BOND
     1    1    2 ar 
     2    2    3 ar 
     3    2    4 1  
     4    4    5 1  
     5    5    6 1  
     6    6    7 1  
     7    6   10 1  
     8    7    8 ar 
     9    7    9 ar 
    10   10   11 am 
    11   11   12 2  
    12   11   13 am 
    13   13   14 1  
    14   14   15 1  
    15   14   18 1  
    16   15   16 ar 
    17   15   17 ar 
    18   18   19 1  
    19   19   20 1  
    20   20   21 1  
    21   21   22 1  
    22   22   23 1  
    23   22   24 1  
    24   23   26 2  
    25   24   25 2  
    26   25   26 1  
    27   26   27 1  
    28   27   28 1  
    29   28   29 1  
    30   29   30 1  
    31   30   31 1  
    32   31   32 1  
    33   32   33 1  
    34   33   34 1  
    35   34   35 1  
    36   35   36 1  
    37   36   37 1  
    38   37   38 1  
    39   38   39 1  
    40   39   40 1  
    41   40   41 1  
    42   41   42 1  
    43   42   43 1  
    44   43   44 1  
    45   44   45 1  
    46   45   46 1  
    47   46   47 1  
    48   47   48 1  
    49   48   49 1  
    50   49   50 1  
    51   50   51 1  
    52   51   52 1  
    53   52   53 1  
    54   53   54 ar 
    55   53   61 ar 
    56   54   55 ar 
    57   55   56 ar 
    58   56   57 1  
    59   56   60 ar 
    60   57   58 2  
    61   57   59 2  
    62   60   61 ar 
    63   61   62 1  
    64   62   63 2  
    65   62   64 2  
    66    4   65 1  
    67    4   66 1  
    68    5   67 1  
    69    5   68 1  
    70    6   69 1  
    71   10   70 1  
    72   13   71 1  
    73   14   72 1  
    74   18   73 1  
    75   18   74 1  
    76   19   75 1  
    77   19   76 1  
    78   20   77 1  
    79   20   78 1  
    80   21   79 1  
    81   21   80 1  
    82   23   81 1  
    83   27   82 1  
    84   27   83 1  
    85   29   84 1  
    86   29   85 1  
    87   30   86 1  
    88   30   87 1  
    89   32   88 1  
    90   32   89 1  
    91   33   90 1  
    92   33   91 1  
    93   35   92 1  
    94   35   93 1  
    95   36   94 1  
    96   36   95 1  
    97   38   96 1  
    98   38   97 1  
    99   39   98 1  
   100   39   99 1  
   101   41  100 1  
   102   41  101 1  
   103   42  102 1  
   104   42  103 1  
   105   44  104 1  
   106   44  105 1  
   107   45  106 1  
   108   45  107 1  
   109   47  108 1  
   110   47  109 1  
   111   48  110 1  
   112   48  111 1  
   113   50  112 1  
   114   50  113 1  
   115   51  114 1  
   116   51  115 1  
   117   52  116 1  
   118   54  117 1  
   119   55  118 1  
   120   60  119 1  
@<TRIPOS>SUBSTRUCTURE
     1 AR8         1

