### 
### Created by X-TOOL on Mon Sep 10 21:13:02 2018
### 

@<TRIPOS>MOLECULE
2xeg_ligand
   91    92     1     0     0
SMALL
GAST_HUCK


@<TRIPOS>ATOM
      1 OAA        13.7020   48.5580   40.5760 O.co2     1 CI9        -0.5690
      2 CBN        13.7120   47.3160   40.3690 C.2       1 CI9         0.0350
      3 OAG        12.9150   46.7450   39.5870 O.co2     1 CI9        -0.5690
      4 CAZ        14.9080   46.5360   41.0030 C.3       1 CI9         0.0038
      5 CBB        14.6520   45.0170   41.0800 C.3       1 CI9        -0.0066
      6 CBW        15.9460   44.2760   41.5020 C.3       1 CI9         0.0962
      7 CBP        16.9300   44.4460   40.3110 C.2       1 CI9         0.0600
      8 OAI        16.8180   43.6460   39.3350 O.co2     1 CI9        -0.5666
      9 OAC        17.8070   45.3580   40.3270 O.co2     1 CI9        -0.5666
     10 NBI        16.5940   44.8950   42.6820 N.am      1 CI9        -0.2575
     11 CBQ        17.8440   44.5010   43.0280 C.2       1 CI9         0.2608
     12 OAD        18.2660   43.4480   42.5360 O.2       1 CI9        -0.4006
     13 N          18.5260   45.2760   43.8900 N.am      1 CI9        -0.2576
     14 CA         19.8490   44.8910   44.3680 C.3       1 CI9         0.0947
     15 C          20.1030   45.5920   45.6950 C.2       1 CI9         0.0599
     16 OXT        19.5420   46.7030   45.8650 O.co2     1 CI9        -0.5666
     17 O          20.7180   44.9100   46.5530 O.co2     1 CI9        -0.5666
     18 CB         20.6780   45.5800   43.3050 C.3       1 CI9        -0.0181
     19 CAP        22.1830   45.3150   43.3580 C.3       1 CI9        -0.0467
     20 CAQ        22.7260   46.0410   42.0950 C.3       1 CI9        -0.0223
     21 CBC        24.1740   45.7140   41.8460 C.3       1 CI9         0.0754
     22 NBX        24.6550   46.5480   40.7160 N.pl3     1 CI9        -0.1812
     23 CAO        24.8670   47.8620   40.7470 C.2       1 CI9         0.0716
     24 NBF        24.9060   46.0780   39.5870 N.2       1 CI9        -0.1019
     25 NBE        25.2900   46.9640   38.8100 N.2       1 CI9        -0.2242
     26 CBR        25.2820   48.1010   39.5020 C.2       1 CI9         0.0625
     27 CBD        25.6370   49.3390   38.9910 C.3       1 CI9         0.0825
     28 OBM        25.8740   50.4140   39.9140 O.3       1 CI9        -0.3688
     29 CAY        24.9720   51.4770   39.6480 C.3       1 CI9         0.0729
     30 CAX        25.4190   52.6820   40.4430 C.3       1 CI9         0.0713
     31 OBL        25.3230   52.3510   41.8400 O.3       1 CI9        -0.3752
     32 CAW        24.8250   53.4820   42.5480 C.3       1 CI9         0.0711
     33 CAV        25.8450   53.8020   43.5980 C.3       1 CI9         0.0711
     34 OBK        26.6950   54.8880   43.1500 O.3       1 CI9        -0.3752
     35 CAU        27.8120   55.0360   44.0710 C.3       1 CI9         0.0711
     36 CAT        27.3410   55.1320   45.5460 C.3       1 CI9         0.0711
     37 OBJ        28.2090   54.4100   46.4380 O.3       1 CI9        -0.3755
     38 CAS        27.4660   53.6230   47.3750 C.3       1 CI9         0.0677
     39 CAR        28.5610   52.8010   48.0570 C.3       1 CI9         0.0505
     40 NBG        29.6050   53.6830   48.6110 N.pl3     1 CI9        -0.3104
     41 CBT        30.9170   53.7030   48.3080 C.ar      1 CI9         0.0904
     42 CAM        31.3510   54.5970   47.3180 C.ar      1 CI9        -0.0264
     43 CAL        32.7060   54.6920   46.9960 C.ar      1 CI9        -0.0246
     44 CBS        33.6400   53.8990   47.6700 C.ar      1 CI9         0.1943
     45 NBY        34.9550   53.9560   47.3790 N.2       1 CI9         0.3062
     46 OAJ        35.4390   53.7840   46.0280 O.2       1 CI9         0.1724
     47 OAE        35.9210   54.1390   48.4280 O.2       1 CI9         0.1724
     48 CAN        33.2050   53.0240   48.6670 C.ar      1 CI9         0.0139
     49 CBU        31.8560   52.9090   49.0060 C.ar      1 CI9         0.2256
     50 NBZ        31.5270   52.0240   49.9740 N.2       1 CI9         0.3082
     51 OAK        30.2060   51.6440   50.2310 O.2       1 CI9         0.1714
     52 OAF        32.5280   51.3920   50.7440 O.2       1 CI9         0.1714
     53 H1         15.0767   46.9167   42.0211 H         1 CI9         0.0432
     54 H2         15.8060   46.7113   40.3925 H         1 CI9         0.0432
     55 H3         14.3301   44.6524   40.0934 H         1 CI9         0.0323
     56 H4         13.8624   44.8188   41.8197 H         1 CI9         0.0323
     57 H5         15.7320   43.2155   41.7008 H         1 CI9         0.0724
     58 H6         16.1162   45.5931   43.2153 H         1 CI9         0.1869
     59 H7         18.1186   46.1317   44.2090 H         1 CI9         0.1869
     60 H8         20.0078   43.8044   44.4326 H         1 CI9         0.0723
     61 H9         20.5227   46.6643   43.4062 H         1 CI9         0.0305
     62 H10        20.3113   45.2471   42.3228 H         1 CI9         0.0305
     63 H11        22.3939   44.2364   43.3122 H         1 CI9         0.0268
     64 H12        22.6241   45.7363   44.2734 H         1 CI9         0.0268
     65 H13        22.6249   47.1271   42.2367 H         1 CI9         0.0294
     66 H14        22.1345   45.7284   41.2219 H         1 CI9         0.0294
     67 H15        24.2758   44.6488   41.5912 H         1 CI9         0.0648
     68 H16        24.7648   45.9335   42.7475 H         1 CI9         0.0648
     69 H17        24.7359   48.5595   41.5730 H         1 CI9         0.0899
     70 H18        24.8265   49.6589   38.3197 H         1 CI9         0.0677
     71 H19        26.5605   49.1990   38.4101 H         1 CI9         0.0677
     72 H20        23.9548   51.1874   39.9503 H         1 CI9         0.0584
     73 H21        24.9818   51.7144   38.5740 H         1 CI9         0.0584
     74 H22        24.7697   53.5407   40.2170 H         1 CI9         0.0583
     75 H23        26.4596   52.9323   40.1890 H         1 CI9         0.0583
     76 H24        23.8585   53.2434   43.0159 H         1 CI9         0.0583
     77 H25        24.7010   54.3351   41.8647 H         1 CI9         0.0583
     78 H26        26.4622   52.9118   43.7895 H         1 CI9         0.0583
     79 H27        25.3326   54.0993   44.5249 H         1 CI9         0.0583
     80 H28        28.3647   55.9518   43.8145 H         1 CI9         0.0583
     81 H29        28.4762   54.1654   43.9664 H         1 CI9         0.0583
     82 H30        26.3264   54.7141   45.6226 H         1 CI9         0.0583
     83 H31        27.3253   56.1903   45.8454 H         1 CI9         0.0583
     84 H32        26.7418   52.9729   46.8623 H         1 CI9         0.0580
     85 H33        26.9379   54.2605   48.0994 H         1 CI9         0.0580
     86 H34        29.0152   52.1223   47.3201 H         1 CI9         0.0542
     87 H35        28.1157   52.2120   48.8723 H         1 CI9         0.0542
     88 H36        29.2928   54.3668   49.3152 H         1 CI9         0.1814
     89 H37        30.6295   55.2181   46.7996 H         1 CI9         0.0551
     90 H38        33.0337   55.3795   46.2246 H         1 CI9         0.0702
     91 H39        33.9344   52.4177   49.1919 H         1 CI9         0.0738
@<TRIPOS>BOND
     1    1    2 ar 
     2    2    3 ar 
     3    2    4 1  
     4    4    5 1  
     5    5    6 1  
     6    6    7 1  
     7    6   10 1  
     8    7    8 ar 
     9    7    9 ar 
    10   10   11 am 
    11   11   12 2  
    12   11   13 am 
    13   13   14 1  
    14   14   15 1  
    15   14   18 1  
    16   15   16 ar 
    17   15   17 ar 
    18   18   19 1  
    19   19   20 1  
    20   20   21 1  
    21   21   22 1  
    22   22   23 1  
    23   22   24 1  
    24   23   26 2  
    25   24   25 2  
    26   25   26 1  
    27   26   27 1  
    28   27   28 1  
    29   28   29 1  
    30   29   30 1  
    31   30   31 1  
    32   31   32 1  
    33   32   33 1  
    34   33   34 1  
    35   34   35 1  
    36   35   36 1  
    37   36   37 1  
    38   37   38 1  
    39   38   39 1  
    40   39   40 1  
    41   40   41 1  
    42   41   42 ar 
    43   41   49 ar 
    44   42   43 ar 
    45   43   44 ar 
    46   44   45 1  
    47   44   48 ar 
    48   45   46 2  
    49   45   47 2  
    50   48   49 ar 
    51   49   50 1  
    52   50   51 2  
    53   50   52 2  
    54    4   53 1  
    55    4   54 1  
    56    5   55 1  
    57    5   56 1  
    58    6   57 1  
    59   10   58 1  
    60   13   59 1  
    61   14   60 1  
    62   18   61 1  
    63   18   62 1  
    64   19   63 1  
    65   19   64 1  
    66   20   65 1  
    67   20   66 1  
    68   21   67 1  
    69   21   68 1  
    70   23   69 1  
    71   27   70 1  
    72   27   71 1  
    73   29   72 1  
    74   29   73 1  
    75   30   74 1  
    76   30   75 1  
    77   32   76 1  
    78   32   77 1  
    79   33   78 1  
    80   33   79 1  
    81   35   80 1  
    82   35   81 1  
    83   36   82 1  
    84   36   83 1  
    85   38   84 1  
    86   38   85 1  
    87   39   86 1  
    88   39   87 1  
    89   40   88 1  
    90   42   89 1  
    91   43   90 1  
    92   48   91 1  
@<TRIPOS>SUBSTRUCTURE
     1 CI9         1

