### 
### Created by X-TOOL on Mon Sep 10 21:13:02 2018
### 

@<TRIPOS>MOLECULE
2xei_ligand
   77    78     1     0     0
SMALL
GAST_HUCK


@<TRIPOS>ATOM
      1 OAA        13.8580   48.6980   40.2150 O.co2     1 ARK        -0.5690
      2 CBH        13.8130   47.4440   40.0450 C.2       1 ARK         0.0350
      3 OAG        12.9960   46.8660   39.2970 O.co2     1 ARK        -0.5690
      4 CAV        14.8560   46.5360   40.8130 C.3       1 ARK         0.0038
      5 CAX        14.5740   45.0180   41.0420 C.3       1 ARK        -0.0066
      6 CBQ        15.8840   44.2070   41.3900 C.3       1 ARK         0.0962
      7 CBJ        16.8710   44.4170   40.1890 C.2       1 ARK         0.0600
      8 OAI        16.7740   43.6240   39.1930 O.co2     1 ARK        -0.5666
      9 OAC        17.7270   45.3520   40.2580 O.co2     1 ARK        -0.5666
     10 NBE        16.5830   44.7700   42.5550 N.am      1 ARK        -0.2575
     11 CBK        17.8350   44.4130   42.8540 C.2       1 ARK         0.2608
     12 OAD        18.3320   43.3920   42.3470 O.2       1 ARK        -0.4006
     13 N          18.4540   45.1910   43.7420 N.am      1 ARK        -0.2576
     14 CA         19.7960   44.9610   44.2420 C.3       1 ARK         0.0947
     15 C          19.8960   45.5560   45.6450 C.2       1 ARK         0.0599
     16 OXT        19.4160   46.7110   45.8000 O.co2     1 ARK        -0.5666
     17 O          20.5170   44.8510   46.5040 O.co2     1 ARK        -0.5666
     18 CB         20.6690   45.8260   43.2640 C.3       1 ARK        -0.0181
     19 CAP        22.1130   45.3160   43.2340 C.3       1 ARK        -0.0467
     20 CAQ        23.0570   46.4900   43.0370 C.3       1 ARK        -0.0223
     21 CAY        24.0150   46.2750   41.8720 C.3       1 ARK         0.0754
     22 NBR        24.7260   47.5610   41.6450 N.pl3     1 ARK        -0.1812
     23 CAO        25.1310   48.3660   42.6430 C.2       1 ARK         0.0716
     24 NBB        25.0110   48.0450   40.5320 N.2       1 ARK        -0.1019
     25 NBA        25.5910   49.1330   40.6720 N.2       1 ARK        -0.2242
     26 CBL        25.6940   49.3760   41.9910 C.2       1 ARK         0.0625
     27 CAZ        26.2810   50.4960   42.6020 C.3       1 ARK         0.0825
     28 OBG        25.4330   51.6030   42.9880 O.3       1 ARK        -0.3688
     29 CAU        25.3380   51.6780   44.4300 C.3       1 ARK         0.0729
     30 CAT        25.2900   53.1410   44.9550 C.3       1 ARK         0.0713
     31 OBF        26.6030   53.5570   45.4100 O.3       1 ARK        -0.3755
     32 CAS        26.7750   53.2150   46.8050 C.3       1 ARK         0.0677
     33 CAR        28.0000   52.3310   47.0920 C.3       1 ARK         0.0505
     34 NBC        29.0940   53.1810   47.5930 N.pl3     1 ARK        -0.3104
     35 CBN        30.1790   52.7280   48.2440 C.ar      1 ARK         0.0904
     36 CAM        30.0740   52.0780   49.4750 C.ar      1 ARK        -0.0264
     37 CAL        31.2230   51.6420   50.1160 C.ar      1 ARK        -0.0246
     38 CBM        32.4800   51.8650   49.5500 C.ar      1 ARK         0.1943
     39 NBS        33.6230   51.4540   50.1130 N.2       1 ARK         0.3062
     40 OAJ        34.8510   51.6570   49.4320 O.2       1 ARK         0.1724
     41 OAE        33.6620   50.6920   51.3290 O.2       1 ARK         0.1724
     42 CAN        32.5800   52.5240   48.3420 C.ar      1 ARK         0.0139
     43 CBO        31.4430   52.9590   47.6900 C.ar      1 ARK         0.2256
     44 NBT        31.6050   53.5650   46.5170 N.2       1 ARK         0.3082
     45 OAK        32.9100   53.7050   45.9770 O.2       1 ARK         0.1714
     46 OAF        30.4760   53.9710   45.7520 O.2       1 ARK         0.1714
     47 H1         14.9899   46.9844   41.8085 H         1 ARK         0.0432
     48 H2         15.8003   46.5991   40.2524 H         1 ARK         0.0432
     49 H3         14.1322   44.5988   40.1260 H         1 ARK         0.0323
     50 H4         13.8621   44.9127   41.8739 H         1 ARK         0.0323
     51 H5         15.6494   43.1442   41.5494 H         1 ARK         0.0724
     52 H6         16.1113   45.4338   43.1354 H         1 ARK         0.1869
     53 H7         17.9589   45.9883   44.0873 H         1 ARK         0.1869
     54 H8         20.0771   43.8976   44.2344 H         1 ARK         0.0723
     55 H9         20.6624   46.8723   43.6034 H         1 ARK         0.0305
     56 H10        20.2437   45.7663   42.2513 H         1 ARK         0.0305
     57 H11        22.2340   44.6042   42.4041 H         1 ARK         0.0268
     58 H12        22.3450   44.8137   44.1847 H         1 ARK         0.0268
     59 H13        23.6445   46.6292   43.9565 H         1 ARK         0.0294
     60 H14        22.4611   47.3938   42.8422 H         1 ARK         0.0294
     61 H15        23.4536   45.9903   40.9699 H         1 ARK         0.0648
     62 H16        24.7376   45.4834   42.1193 H         1 ARK         0.0648
     63 H17        25.0239   48.2247   43.7175 H         1 ARK         0.0899
     64 H18        27.0301   50.8918   41.9004 H         1 ARK         0.0677
     65 H19        26.7839   50.1408   43.5135 H         1 ARK         0.0677
     66 H20        26.2142   51.1765   44.8666 H         1 ARK         0.0584
     67 H21        24.4218   51.1597   44.7494 H         1 ARK         0.0584
     68 H22        24.5796   53.2027   45.7926 H         1 ARK         0.0583
     69 H23        24.9595   53.8067   44.1441 H         1 ARK         0.0583
     70 H24        25.8760   52.6781   47.1417 H         1 ARK         0.0580
     71 H25        26.8812   54.1479   47.3781 H         1 ARK         0.0580
     72 H26        28.3173   51.8278   46.1668 H         1 ARK         0.0542
     73 H27        27.7418   51.5766   47.8497 H         1 ARK         0.0542
     74 H28        29.0221   54.1959   47.4328 H         1 ARK         0.1814
     75 H29        29.1017   51.9156   49.9259 H         1 ARK         0.0551
     76 H30        31.1452   51.1235   51.0648 H         1 ARK         0.0702
     77 H31        33.5551   52.7010   47.9029 H         1 ARK         0.0738
@<TRIPOS>BOND
     1    1    2 ar 
     2    2    3 ar 
     3    2    4 1  
     4    4    5 1  
     5    5    6 1  
     6    6    7 1  
     7    6   10 1  
     8    7    8 ar 
     9    7    9 ar 
    10   10   11 am 
    11   11   12 2  
    12   11   13 am 
    13   13   14 1  
    14   14   15 1  
    15   14   18 1  
    16   15   16 ar 
    17   15   17 ar 
    18   18   19 1  
    19   19   20 1  
    20   20   21 1  
    21   21   22 1  
    22   22   23 1  
    23   22   24 1  
    24   23   26 2  
    25   24   25 2  
    26   25   26 1  
    27   26   27 1  
    28   27   28 1  
    29   28   29 1  
    30   29   30 1  
    31   30   31 1  
    32   31   32 1  
    33   32   33 1  
    34   33   34 1  
    35   34   35 1  
    36   35   36 ar 
    37   35   43 ar 
    38   36   37 ar 
    39   37   38 ar 
    40   38   39 1  
    41   38   42 ar 
    42   39   40 2  
    43   39   41 2  
    44   42   43 ar 
    45   43   44 1  
    46   44   45 2  
    47   44   46 2  
    48    4   47 1  
    49    4   48 1  
    50    5   49 1  
    51    5   50 1  
    52    6   51 1  
    53   10   52 1  
    54   13   53 1  
    55   14   54 1  
    56   18   55 1  
    57   18   56 1  
    58   19   57 1  
    59   19   58 1  
    60   20   59 1  
    61   20   60 1  
    62   21   61 1  
    63   21   62 1  
    64   23   63 1  
    65   27   64 1  
    66   27   65 1  
    67   29   66 1  
    68   29   67 1  
    69   30   68 1  
    70   30   69 1  
    71   32   70 1  
    72   32   71 1  
    73   33   72 1  
    74   33   73 1  
    75   34   74 1  
    76   36   75 1  
    77   37   76 1  
    78   42   77 1  
@<TRIPOS>SUBSTRUCTURE
     1 ARK         1

