### 
### Created by X-TOOL on Mon Sep 10 21:13:02 2018
### 

@<TRIPOS>MOLECULE
2xej_ligand
   79    79     1     0     0
SMALL
GAST_HUCK


@<TRIPOS>ATOM
      1 CAA        28.5360   62.2460   40.7690 C.3       1 OKD         0.0365
      2 OBC        29.0310   61.8880   39.4610 O.3       1 OKD        -0.3807
      3 CAL        28.5600   60.5670   39.0970 C.3       1 OKD         0.0706
      4 CAM        29.7120   59.7380   38.5070 C.3       1 OKD         0.0711
      5 OBD        29.3250   58.3530   38.3020 O.3       1 OKD        -0.3752
      6 CAN        29.9960   57.4640   39.2290 C.3       1 OKD         0.0711
      7 CAO        29.1110   57.0170   40.4130 C.3       1 OKD         0.0711
      8 OBE        27.6640   57.0300   40.1680 O.3       1 OKD        -0.3752
      9 CAP        27.1750   55.6770   40.0090 C.3       1 OKD         0.0711
     10 CAQ        26.5950   55.0780   41.2950 C.3       1 OKD         0.0711
     11 OBF        26.5170   53.6570   41.0790 O.3       1 OKD        -0.3752
     12 CAR        25.2770   53.2050   41.7720 C.3       1 OKD         0.0713
     13 CAS        25.6130   51.7300   41.4260 C.3       1 OKD         0.0729
     14 OBG        25.2830   51.2830   40.0310 O.3       1 OKD        -0.3688
     15 CAX        25.9460   49.9750   39.5960 C.3       1 OKD         0.0825
     16 CBL        25.5110   48.6570   39.9510 C.2       1 OKD         0.0625
     17 CAI        25.0760   48.3000   41.1660 C.2       1 OKD         0.0716
     18 NAY        25.4630   47.5540   39.1750 N.2       1 OKD        -0.2242
     19 NAZ        25.0300   46.6100   39.8780 N.2       1 OKD        -0.1019
     20 NBO        24.7780   47.0030   41.0380 N.pl3     1 OKD        -0.1812
     21 CAW        24.2730   46.1940   42.1920 C.3       1 OKD         0.0754
     22 CAK        22.8500   45.7190   41.9930 C.3       1 OKD        -0.0223
     23 CAJ        22.2330   45.2740   43.3600 C.3       1 OKD        -0.0467
     24 CB         20.7290   45.6430   43.3010 C.3       1 OKD        -0.0181
     25 CA         19.8660   44.9500   44.3800 C.3       1 OKD         0.0947
     26 C          20.1240   45.6530   45.7320 C.2       1 OKD         0.0599
     27 OXT        20.7800   44.9820   46.5610 O.co2     1 OKD        -0.5666
     28 O          19.5350   46.7260   45.9510 O.co2     1 OKD        -0.5666
     29 N          18.5110   45.2280   43.9040 N.am      1 OKD        -0.2576
     30 CBK        17.8820   44.4800   43.0190 C.2       1 OKD         0.2608
     31 OAE        18.3540   43.4410   42.5700 O.2       1 OKD        -0.4006
     32 NBB        16.6270   44.8180   42.7210 N.am      1 OKD        -0.2575
     33 CBN        16.0080   44.2380   41.5470 C.3       1 OKD         0.0962
     34 CBJ        16.9940   44.4600   40.3680 C.2       1 OKD         0.0600
     35 OAH        16.8500   43.6860   39.3980 O.co2     1 OKD        -0.5666
     36 OAD        17.8880   45.3620   40.4300 O.co2     1 OKD        -0.5666
     37 CAV        14.6910   44.9800   41.1240 C.3       1 OKD        -0.0066
     38 CAT        14.8820   46.5380   41.1420 C.3       1 OKD         0.0038
     39 CBH        13.7560   47.3390   40.4280 C.2       1 OKD         0.0350
     40 OAF        13.7050   48.5650   40.6570 O.co2     1 OKD        -0.5690
     41 OAB        12.9430   46.7190   39.7060 O.co2     1 OKD        -0.5690
     42 H1         28.8986   63.2496   41.0362 H         1 OKD         0.0524
     43 H2         28.8962   61.5168   41.5096 H         1 OKD         0.0524
     44 H3         27.4361   62.2445   40.7579 H         1 OKD         0.0524
     45 H4         27.7588   60.6600   38.3491 H         1 OKD         0.0582
     46 H5         28.1692   60.0609   39.9920 H         1 OKD         0.0582
     47 H6         30.5663   59.7710   39.1991 H         1 OKD         0.0583
     48 H7         30.0061   60.1730   37.5405 H         1 OKD         0.0583
     49 H8         30.8778   57.9838   39.6317 H         1 OKD         0.0583
     50 H9         30.3182   56.5677   38.6788 H         1 OKD         0.0583
     51 H10        29.3161   57.6880   41.2601 H         1 OKD         0.0583
     52 H11        29.3989   55.9897   40.6809 H         1 OKD         0.0583
     53 H12        28.0096   55.0427   39.6758 H         1 OKD         0.0583
     54 H13        26.3874   55.6800   39.2411 H         1 OKD         0.0583
     55 H14        25.5934   55.4893   41.4889 H         1 OKD         0.0583
     56 H15        27.2533   55.2980   42.1484 H         1 OKD         0.0583
     57 H16        24.3476   53.5724   41.3125 H         1 OKD         0.0583
     58 H17        25.2627   53.4201   42.8507 H         1 OKD         0.0583
     59 H18        25.0575   51.0868   42.1244 H         1 OKD         0.0584
     60 H19        26.6933   51.5879   41.5768 H         1 OKD         0.0584
     61 H20        26.9838   50.0435   39.9541 H         1 OKD         0.0677
     62 H21        25.9353   49.9968   38.4963 H         1 OKD         0.0677
     63 H22        24.9857   48.9231   42.0545 H         1 OKD         0.0899
     64 H23        24.3137   46.8129   43.1004 H         1 OKD         0.0648
     65 H24        24.9230   45.3155   42.3174 H         1 OKD         0.0648
     66 H25        22.8453   44.8667   41.2976 H         1 OKD         0.0294
     67 H26        22.2487   46.5386   41.5726 H         1 OKD         0.0294
     68 H27        22.7228   45.8050   44.1895 H         1 OKD         0.0268
     69 H28        22.3536   44.1892   43.4969 H         1 OKD         0.0268
     70 H29        20.3415   45.3563   42.3122 H         1 OKD         0.0305
     71 H30        20.6351   46.7313   43.4302 H         1 OKD         0.0305
     72 H31        20.0663   43.8710   44.4546 H         1 OKD         0.0723
     73 H32        18.0362   46.0286   44.2696 H         1 OKD         0.1869
     74 H33        16.1223   45.4604   43.2977 H         1 OKD         0.1869
     75 H34        15.8089   43.1692   41.7140 H         1 OKD         0.0724
     76 H35        13.8869   44.7097   41.8243 H         1 OKD         0.0323
     77 H36        14.4132   44.6650   40.1074 H         1 OKD         0.0323
     78 H37        15.8359   46.7721   40.6467 H         1 OKD         0.0432
     79 H38        14.9234   46.8661   42.1911 H         1 OKD         0.0432
@<TRIPOS>BOND
     1    1    2 1  
     2    2    3 1  
     3    3    4 1  
     4    4    5 1  
     5    5    6 1  
     6    6    7 1  
     7    7    8 1  
     8    8    9 1  
     9    9   10 1  
    10   10   11 1  
    11   11   12 1  
    12   12   13 1  
    13   13   14 1  
    14   14   15 1  
    15   15   16 1  
    16   16   17 2  
    17   16   18 1  
    18   17   20 1  
    19   18   19 2  
    20   19   20 1  
    21   20   21 1  
    22   21   22 1  
    23   22   23 1  
    24   23   24 1  
    25   24   25 1  
    26   25   26 1  
    27   25   29 1  
    28   26   27 ar 
    29   26   28 ar 
    30   29   30 am 
    31   30   31 2  
    32   30   32 am 
    33   32   33 1  
    34   33   34 1  
    35   33   37 1  
    36   34   35 ar 
    37   34   36 ar 
    38   37   38 1  
    39   38   39 1  
    40   39   40 ar 
    41   39   41 ar 
    42    1   42 1  
    43    1   43 1  
    44    1   44 1  
    45    3   45 1  
    46    3   46 1  
    47    4   47 1  
    48    4   48 1  
    49    6   49 1  
    50    6   50 1  
    51    7   51 1  
    52    7   52 1  
    53    9   53 1  
    54    9   54 1  
    55   10   55 1  
    56   10   56 1  
    57   12   57 1  
    58   12   58 1  
    59   13   59 1  
    60   13   60 1  
    61   15   61 1  
    62   15   62 1  
    63   17   63 1  
    64   21   64 1  
    65   21   65 1  
    66   22   66 1  
    67   22   67 1  
    68   23   68 1  
    69   23   69 1  
    70   24   70 1  
    71   24   71 1  
    72   25   72 1  
    73   29   73 1  
    74   32   74 1  
    75   33   75 1  
    76   37   76 1  
    77   37   77 1  
    78   38   78 1  
    79   38   79 1  
@<TRIPOS>SUBSTRUCTURE
     1 OKD         1

