### 
### Created by X-TOOL on Mon Sep 10 21:13:07 2018
### 

@<TRIPOS>MOLECULE
2xel_ligand
   21    22     1     0     0
SMALL
GAST_HUCK


@<TRIPOS>ATOM
      1 CL18       30.3450   46.9300   28.1360 Cl        1 IA2        -0.0477
      2 C10        28.6460   47.2330   28.2970 C.2       1 IA2         0.1329
      3 C9         27.8740   47.4030   29.4650 C.2       1 IA2         0.0465
      4 CL17       28.4540   47.3500   31.1110 Cl        1 IA2        -0.1033
      5 C8         26.5170   47.6280   29.0610 C.2       1 IA2         0.0381
      6 CL16       25.2250   47.8860   30.2070 Cl        1 IA2        -0.1034
      7 C7         26.4680   47.5920   27.6130 C.2       1 IA2         0.0697
      8 C4         25.3880   47.7410   26.5220 C.ar      1 IA2         0.0300
      9 C5         25.8580   47.4990   25.1430 C.ar      1 IA2        -0.0497
     10 C6         24.9640   47.5920   24.0090 C.ar      1 IA2         0.0267
     11 CL13       25.5390   47.3050   22.4020 Cl        1 IA2        -0.0815
     12 C3         23.9490   48.0930   26.7210 C.ar      1 IA2         0.1115
     13 C2         23.0830   48.1720   25.5410 C.ar      1 IA2         0.0670
     14 N1         27.7920   47.3510   27.2450 N.pl3     1 IA2        -0.2772
     15 CL14       21.4120   48.5640   25.6940 Cl        1 IA2        -0.0799
     16 C1         23.5810   47.9270   24.2130 C.ar      1 IA2        -0.0453
     17 O12        23.4190   48.3350   27.9500 O.3       1 IA2        -0.3306
     18 H1         26.8986   47.2454   24.9762 H         1 IA2         0.0572
     19 H2         28.0957   47.2697   26.2641 H         1 IA2         0.2314
     20 H3         22.9109   47.9953   23.3637 H         1 IA2         0.0577
     21 H4         24.0974   48.2468   28.6091 H         1 IA2         0.2498
@<TRIPOS>BOND
     1    1    2 1  
     2    2    3 2  
     3    2   14 1  
     4    3    4 1  
     5    3    5 1  
     6    5    6 1  
     7    5    7 2  
     8    7    8 1  
     9    7   14 1  
    10    8    9 ar 
    11    8   12 ar 
    12    9   10 ar 
    13   10   11 1  
    14   10   16 ar 
    15   12   13 ar 
    16   12   17 1  
    17   13   15 1  
    18   13   16 ar 
    19    9   18 1  
    20   14   19 1  
    21   16   20 1  
    22   17   21 1  
@<TRIPOS>SUBSTRUCTURE
     1 IA2         1

