### 
### Created by X-TOOL on Mon Sep 10 21:13:04 2018
### 

@<TRIPOS>MOLECULE
2xey_ligand
   35    39     1     0     0
SMALL
GAST_HUCK


@<TRIPOS>ATOM
      1 CAV         0.6380   -4.7300   19.0870 C.ar      1 YVQ        -0.0152
      2 CAF         0.1060   -3.9280   20.0810 C.ar      1 YVQ        -0.0734
      3 CAB        -1.2290   -4.0620   20.4210 C.ar      1 YVQ        -0.0782
      4 CAA        -2.0200   -5.0000   19.7780 C.ar      1 YVQ        -0.0757
      5 CAE        -1.4790   -5.8090   18.7910 C.ar      1 YVQ        -0.0424
      6 CAU        -0.1430   -5.6740   18.4500 C.ar      1 YVQ         0.0656
      7 NAO         0.6230   -6.2970   17.5610 N.pl3     1 YVQ        -0.2790
      8 CAI         1.8580   -5.7990   17.6190 C.2       1 YVQ         0.0324
      9 CAR         1.9030   -4.8640   18.5580 C.2       1 YVQ         0.0075
     10 CAS         2.9560   -4.0490   18.9480 C.2       1 YVQ         0.0815
     11 CAD         2.8930   -2.9740   19.7160 C.2       1 YVQ        -0.0211
     12 NAM         4.1070   -2.4430   19.8270 N.2       1 YVQ        -0.3319
     13 CAT         4.9680   -3.1560   19.1130 C.2       1 YVQ         0.1652
     14 CAG         6.3280   -3.0300   18.8900 C.2       1 YVQ         0.0592
     15 NAL         6.9630   -3.8900   18.1200 N.2       1 YVQ        -0.2969
     16 NAW         4.2710   -4.1860   18.5160 N.pl3     1 YVQ        -0.2026
     17 CAJ         4.9630   -5.0930   17.7140 C.2       1 YVQ         0.0909
     18 CAQ         6.3320   -4.9160   17.5360 C.2       1 YVQ         0.0595
     19 CAP         7.0660   -5.7770   16.7290 C.2       1 YVQ         0.0100
     20 CAC         8.3460   -5.6600   16.4250 C.2       1 YVQ         0.0048
     21 CAH         6.6370   -6.8520   16.0870 C.2       1 YVQ         0.0580
     22 NAN         7.6690   -7.3660   15.4250 N.pl3     1 YVQ        -0.2190
     23 NAK         8.6630   -6.6690   15.6230 N.2       1 YVQ        -0.2172
     24 H           0.7327   -3.1970   20.5919 H         1 YVQ         0.0544
     25 H          -1.6589   -3.4280   21.1965 H         1 YVQ         0.0515
     26 H          -3.0708   -5.1022   20.0490 H         1 YVQ         0.0535
     27 H          -2.1014   -6.5475   18.2858 H         1 YVQ         0.0546
     28 H           0.3146   -7.0393   16.9331 H         1 YVQ         0.2276
     29 H           2.6958   -6.1102   16.9951 H         1 YVQ         0.0929
     30 H           1.9888   -2.5848   20.1840 H         1 YVQ         0.0477
     31 H           6.8785   -2.2123   19.3553 H         1 YVQ         0.0977
     32 H           4.4426   -5.9232   17.2365 H         1 YVQ         0.1124
     33 H           9.0203   -4.8763   16.7704 H         1 YVQ         0.0666
     34 H           5.6204   -7.2452   16.0989 H         1 YVQ         0.1002
     35 H           7.6410   -8.2047   14.8452 H         1 YVQ         0.2587
@<TRIPOS>BOND
     1    1    2 ar 
     2    1    6 ar 
     3    1    9 1  
     4    2    3 ar 
     5    3    4 ar 
     6    4    5 ar 
     7    5    6 ar 
     8    6    7 1  
     9    7    8 1  
    10    8    9 2  
    11    9   10 1  
    12   10   11 2  
    13   10   16 1  
    14   11   12 1  
    15   12   13 2  
    16   13   14 1  
    17   13   16 1  
    18   14   15 2  
    19   15   18 1  
    20   16   17 1  
    21   17   18 2  
    22   18   19 1  
    23   19   20 1  
    24   19   21 2  
    25   20   23 2  
    26   21   22 1  
    27   22   23 1  
    28    2   24 1  
    29    3   25 1  
    30    4   26 1  
    31    5   27 1  
    32    7   28 1  
    33    8   29 1  
    34   11   30 1  
    35   14   31 1  
    36   17   32 1  
    37   20   33 1  
    38   21   34 1  
    39   22   35 1  
@<TRIPOS>SUBSTRUCTURE
     1 YVQ         1

