### 
### Created by X-TOOL on Mon Sep 10 21:13:04 2018
### 

@<TRIPOS>MOLECULE
2xez_ligand
   28    31     1     0     0
SMALL
GAST_HUCK


@<TRIPOS>ATOM
      1 CAC        13.2210   -3.5500   12.5070 C.2       1 XEZ         0.0052
      2 NAH        12.1800   -4.0970   13.1210 N.2       1 XEZ        -0.2170
      3 NAM        11.1670   -3.4410   12.8790 N.pl3     1 XEZ        -0.2187
      4 CAF        11.4780   -2.4210   12.0900 C.2       1 XEZ         0.0587
      5 CAN        12.7760   -2.4920   11.8550 C.2       1 XEZ         0.0117
      6 CAP        13.5300   -1.6280   11.0780 C.2       1 XEZ         0.0640
      7 CAG        14.8890   -1.8500   10.9500 C.2       1 XEZ         0.0954
      8 NAS        15.6290   -0.9820   10.1730 N.pl3     1 XEZ        -0.1922
      9 NAI        12.9500   -0.5880   10.4660 N.2       1 XEZ        -0.2921
     10 CAE        13.6440    0.2500    9.7170 C.2       1 XEZ         0.0640
     11 CAR        15.0110    0.0790    9.5480 C.2       1 XEZ         0.1724
     12 NAJ        15.9460    0.7460    8.8750 N.2       1 XEZ        -0.3203
     13 CAD        17.1270    0.1510    9.0520 C.2       1 XEZ        -0.0046
     14 CAQ        16.9570   -0.9040    9.8380 C.2       1 XEZ         0.1298
     15 CAO        17.8760   -1.8160   10.3160 C.2       1 XEZ         0.1054
     16 CAB        17.6070   -2.8230   11.1240 C.2       1 XEZ        -0.0463
     17 CAA        18.7570   -3.4310   11.3480 C.2       1 XEZ        -0.0114
     18 NAL        19.6890   -2.7710   10.6760 N.2       1 XEZ        -0.2281
     19 NAK        19.1760   -1.8310   10.0760 N.pl3     1 XEZ        -0.2203
     20 H          14.2504   -3.9071   12.5355 H         1 XEZ         0.0668
     21 H          10.2326   -3.6495   13.2309 H         1 XEZ         0.2589
     22 H          10.7913   -1.6659   11.7074 H         1 XEZ         0.1007
     23 H          15.3653   -2.6922   11.4519 H         1 XEZ         0.1149
     24 H          13.1389    1.0827    9.2276 H         1 XEZ         0.0987
     25 H          18.0740    0.4775    8.6222 H         1 XEZ         0.0579
     26 H          16.6317   -3.0978   11.5258 H         1 XEZ         0.0313
     27 H          18.9113   -4.3125   11.9703 H         1 XEZ         0.0646
     28 H          19.6745   -1.1658    9.4849 H         1 XEZ         0.2508
@<TRIPOS>BOND
     1    1    2 2  
     2    1    5 1  
     3    2    3 1  
     4    3    4 1  
     5    4    5 2  
     6    5    6 1  
     7    6    7 2  
     8    6    9 1  
     9    7    8 1  
    10    8   11 1  
    11    8   14 1  
    12    9   10 2  
    13   10   11 1  
    14   11   12 2  
    15   12   13 1  
    16   13   14 2  
    17   14   15 1  
    18   15   16 2  
    19   15   19 1  
    20   16   17 1  
    21   17   18 2  
    22   18   19 1  
    23    1   20 1  
    24    3   21 1  
    25    4   22 1  
    26    7   23 1  
    27   10   24 1  
    28   13   25 1  
    29   16   26 1  
    30   17   27 1  
    31   19   28 1  
@<TRIPOS>SUBSTRUCTURE
     1 XEZ         1

