### 
### Created by X-TOOL on Mon Sep 10 21:13:03 2018
### 

@<TRIPOS>MOLECULE
2xf0_ligand
   31    34     1     0     0
SMALL
GAST_HUCK


@<TRIPOS>ATOM
      1 C1         15.0250   -4.6190    8.1190 C.ar      1 4UB        -0.0580
      2 C2         16.0230   -5.4970    8.5160 C.ar      1 4UB        -0.0662
      3 C3         17.3130   -5.3580    8.0240 C.ar      1 4UB        -0.0663
      4 C4         17.6070   -4.3350    7.1330 C.ar      1 4UB        -0.0662
      5 C5         16.6070   -3.4560    6.7370 C.ar      1 4UB        -0.0580
      6 C8         10.6130   -5.3280    9.7280 C.2       1 4UB         0.0052
      7 N9          9.5710   -5.8050   10.4010 N.2       1 4UB        -0.2170
      8 N10         8.5890   -5.0870   10.2100 N.pl3     1 4UB        -0.2187
      9 C12         8.9200   -4.0920    9.3970 C.2       1 4UB         0.0587
     10 C13        10.1980   -4.2480    9.0880 C.2       1 4UB         0.0116
     11 C14        10.9510   -3.4180    8.2720 C.2       1 4UB         0.0639
     12 C15        12.3040   -3.6600    8.0800 C.2       1 4UB         0.0953
     13 C17        12.3660   -1.7280    6.6700 C.2       1 4UB         0.1722
     14 N18        13.2580   -1.0610    5.9440 N.2       1 4UB        -0.3212
     15 C19        14.4470   -1.6510    6.0440 C.2       1 4UB        -0.0079
     16 C20        14.3310   -2.7120    6.8320 C.2       1 4UB         0.1026
     17 CAO        15.3170   -3.6030    7.2230 C.ar      1 4UB         0.0008
     18 NAT        13.0160   -2.7930    7.2600 N.pl3     1 4UB        -0.1949
     19 C22        11.0140   -1.5390    6.9070 C.2       1 4UB         0.0640
     20 N23        10.3530   -2.3690    7.6920 N.2       1 4UB        -0.2922
     21 H          14.0137   -4.7280    8.5108 H         1 4UB         0.0582
     22 H          15.7929   -6.2992    9.2172 H         1 4UB         0.0605
     23 H          18.0941   -6.0509    8.3366 H         1 4UB         0.0579
     24 H          18.6194   -4.2218    6.7453 H         1 4UB         0.0605
     25 H          16.8372   -2.6484    6.0422 H         1 4UB         0.0582
     26 H          11.6188   -5.7475    9.7075 H         1 4UB         0.0667
     27 H           7.6642   -5.2344   10.6142 H         1 4UB         0.2589
     28 H           8.2628   -3.2952    9.0487 H         1 4UB         0.1007
     29 H          12.7948   -4.5070    8.5593 H         1 4UB         0.1147
     30 H          15.3643   -1.3176    5.5587 H         1 4UB         0.0573
     31 H          10.4939   -0.7010    6.4430 H         1 4UB         0.0987
@<TRIPOS>BOND
     1    1    2 ar 
     2   17    1 ar 
     3    2    3 ar 
     4    4    3 ar 
     5    5    4 ar 
     6   17    5 ar 
     7    6    7 2  
     8   10    6 1  
     9    8    7 1  
    10    9    8 1  
    11   10    9 2  
    12   11   10 1  
    13   12   11 2  
    14   11   20 1  
    15   18   12 1  
    16   14   13 2  
    17   13   18 1  
    18   13   19 1  
    19   15   14 1  
    20   16   15 2  
    21   16   17 1  
    22   16   18 1  
    23   19   20 2  
    24    1   21 1  
    25    2   22 1  
    26    3   23 1  
    27    4   24 1  
    28    5   25 1  
    29    6   26 1  
    30    8   27 1  
    31    9   28 1  
    32   12   29 1  
    33   15   30 1  
    34   19   31 1  
@<TRIPOS>SUBSTRUCTURE
     1 4UB         1

