### 
### Created by X-TOOL on Mon Sep 10 21:13:02 2018
### 

@<TRIPOS>MOLECULE
2xfi_ligand
   86    89     1     0     0
SMALL
GAST_HUCK


@<TRIPOS>ATOM
      1 C1         29.6070    6.3810   36.4010 C.3       1 XFI        -0.0039
      2 C2         28.9230    6.7310   35.0910 C.3       1 XFI         0.0639
      3 N3         28.1410    5.5790   34.5770 N.4       1 XFI         0.2478
      4 C4         28.9860    4.4330   34.1910 C.3       1 XFI        -0.0026
      5 C5         28.2110    3.5670   33.1970 C.3       1 XFI         0.1193
      6 O6         27.8750    4.4430   32.1150 O.3       1 XFI        -0.3840
      7 C7         29.0210    2.3670   32.7280 C.3       1 XFI         0.0818
      8 C8         28.3780    1.6430   31.5490 C.3       1 XFI         0.0065
      9 C9         29.0330    0.3130   31.2650 C.ar      1 XFI        -0.0408
     10 C10        30.4000    0.2030   31.0560 C.ar      1 XFI        -0.0603
     11 C11        30.9700   -1.0340   30.8030 C.ar      1 XFI        -0.0686
     12 C12        30.1810   -2.1700   30.7530 C.ar      1 XFI        -0.0687
     13 C13        28.8220   -2.0650   30.9570 C.ar      1 XFI        -0.0686
     14 C14        28.2520   -0.8300   31.2110 C.ar      1 XFI        -0.0603
     15 N15        29.2370    1.4270   33.8340 N.am      1 XFI        -0.2786
     16 C16        30.4470    1.3530   34.4680 C.2       1 XFI         0.2019
     17 O17        31.3610    2.1640   34.3170 O.2       1 XFI        -0.3847
     18 C18        30.5680    0.1920   35.3700 C.ar      1 XFI         0.0365
     19 C19        30.0220   -1.0270   35.0120 C.ar      1 XFI        -0.0574
     20 C20        30.1260   -2.1130   35.8710 C.ar      1 XFI        -0.0698
     21 C21        30.7850   -1.9780   37.0860 C.ar      1 XFI        -0.0342
     22 C22        31.3300   -0.7470   37.4240 C.ar      1 XFI         0.0981
     23 C23        31.2220    0.3400   36.5750 C.ar      1 XFI        -0.0187
     24 N24        32.0280   -0.5490   38.6630 N.am      1 XFI        -0.1229
     25 C25        33.3660   -0.0390   38.6070 C.ar      1 XFI         0.0927
     26 C26        34.3440   -0.8070   38.0150 C.ar      1 XFI        -0.0385
     27 C27        35.6280   -0.3000   37.9580 C.ar      1 XFI        -0.0754
     28 C28        35.9040    0.9370   38.4930 C.ar      1 XFI        -0.0772
     29 C29        34.9160    1.6930   39.0810 C.ar      1 XFI        -0.0754
     30 C30        33.6290    1.2060   39.1410 C.ar      1 XFI        -0.0385
     31 S31        31.5150   -1.2490   40.1120 S.o2      1 XFI         0.0775
     32 C32        32.4640   -2.7430   40.1980 C.3       1 XFI         0.0837
     33 O33        30.1330   -1.6250   39.9610 O.2       1 XFI        -0.1452
     34 O34        31.9710   -0.4250   41.2070 O.2       1 XFI        -0.1452
     35 C35        29.9470    7.1730   34.0610 C.2       1 XFI         0.2245
     36 O36        31.1440    6.8980   34.1210 O.2       1 XFI        -0.3909
     37 N37        29.3990    7.9330   33.0520 N.am      1 XFI        -0.2793
     38 C38        30.2540    8.4090   31.9610 C.3       1 XFI         0.0422
     39 C39        29.5130    8.2470   30.6570 C.3       1 XFI        -0.0299
     40 C40        30.3160    8.7410   29.4560 C.3       1 XFI        -0.0510
     41 C41        30.6940   10.1970   29.6490 C.3       1 XFI        -0.0529
     42 C42        31.4730   10.3290   30.9520 C.3       1 XFI        -0.0510
     43 C43        30.6130    9.8700   32.1310 C.3       1 XFI        -0.0299
     44 H1         30.1785    7.2497   36.7597 H         1 XFI         0.0310
     45 H2         30.2895    5.5329   36.2432 H         1 XFI         0.0310
     46 H3         28.8484    6.1070   37.1490 H         1 XFI         0.0310
     47 H4         28.2305    7.5658   35.2743 H         1 XFI         0.1096
     48 H5         27.6198    5.8801   33.7685 H         1 XFI         0.2036
     49 H6         27.5018    5.2785   35.2961 H         1 XFI         0.2036
     50 H7         29.2356    3.8397   35.0830 H         1 XFI         0.0840
     51 H8         29.9119    4.7969   33.7218 H         1 XFI         0.0840
     52 H9         27.2902    3.1966   33.6712 H         1 XFI         0.0672
     53 H10        27.3877    3.9602   31.4578 H         1 XFI         0.2101
     54 H11        30.0024    2.7379   32.3974 H         1 XFI         0.0606
     55 H12        28.4645    2.2776   30.6547 H         1 XFI         0.0449
     56 H13        27.3153    1.4722   31.7761 H         1 XFI         0.0449
     57 H14        31.0245    1.0883   31.0908 H         1 XFI         0.0557
     58 H15        32.0393   -1.1126   30.6434 H         1 XFI         0.0599
     59 H16        30.6293   -3.1368   30.5545 H         1 XFI         0.0559
     60 H17        28.1988   -2.9511   30.9184 H         1 XFI         0.0599
     61 H18        27.1822   -0.7560   31.3695 H         1 XFI         0.0557
     62 H19        28.4891    0.8321   34.1284 H         1 XFI         0.1851
     63 H20        29.5129   -1.1347   34.0610 H         1 XFI         0.0538
     64 H21        29.6925   -3.0669   35.5930 H         1 XFI         0.0588
     65 H22        30.8725   -2.8219   37.7607 H         1 XFI         0.0540
     66 H23        31.6468    1.2975   36.8539 H         1 XFI         0.0556
     67 H24        34.1125   -1.7833   37.6047 H         1 XFI         0.0505
     68 H25        36.4182   -0.8771   37.4916 H         1 XFI         0.0577
     69 H26        36.9163    1.3224   38.4507 H         1 XFI         0.0487
     70 H27        35.1495    2.6672   39.4950 H         1 XFI         0.0577
     71 H28        32.8382    1.7893   39.5987 H         1 XFI         0.0505
     72 H29        32.2065   -3.2885   41.1179 H         1 XFI         0.0492
     73 H30        33.5360   -2.4965   40.2058 H         1 XFI         0.0492
     74 H31        32.2386   -3.3715   39.3238 H         1 XFI         0.0492
     75 H32        28.4248    8.1585   33.0636 H         1 XFI         0.1856
     76 H33        31.1769    7.8109   31.9401 H         1 XFI         0.0556
     77 H34        28.5750    8.8190   30.7121 H         1 XFI         0.0287
     78 H35        29.2844    7.1808   30.5126 H         1 XFI         0.0287
     79 H36        29.7081    8.6401   28.5448 H         1 XFI         0.0266
     80 H37        31.2301    8.1375   29.3557 H         1 XFI         0.0266
     81 H38        29.7838   10.8128   29.6976 H         1 XFI         0.0265
     82 H39        31.3190   10.5321   28.8082 H         1 XFI         0.0265
     83 H40        31.7594   11.3808   31.0991 H         1 XFI         0.0266
     84 H41        32.3783    9.7065   30.8987 H         1 XFI         0.0266
     85 H42        31.1752   10.0021   33.0672 H         1 XFI         0.0287
     86 H43        29.6925   10.4710   32.1682 H         1 XFI         0.0287
@<TRIPOS>BOND
     1    1    2 1  
     2    2    3 1  
     3    2   35 1  
     4    3    4 1  
     5    4    5 1  
     6    5    6 1  
     7    5    7 1  
     8    7    8 1  
     9    7   15 1  
    10    8    9 1  
    11    9   10 ar 
    12    9   14 ar 
    13   10   11 ar 
    14   11   12 ar 
    15   12   13 ar 
    16   13   14 ar 
    17   15   16 am 
    18   16   17 2  
    19   16   18 1  
    20   18   19 ar 
    21   18   23 ar 
    22   19   20 ar 
    23   20   21 ar 
    24   21   22 ar 
    25   22   23 ar 
    26   22   24 1  
    27   24   25 1  
    28   24   31 am 
    29   25   26 ar 
    30   25   30 ar 
    31   26   27 ar 
    32   27   28 ar 
    33   28   29 ar 
    34   29   30 ar 
    35   31   32 1  
    36   31   33 2  
    37   31   34 2  
    38   35   36 2  
    39   35   37 am 
    40   37   38 1  
    41   38   39 1  
    42   38   43 1  
    43   39   40 1  
    44   40   41 1  
    45   41   42 1  
    46   42   43 1  
    47    1   44 1  
    48    1   45 1  
    49    1   46 1  
    50    2   47 1  
    51    3   48 1  
    52    3   49 1  
    53    4   50 1  
    54    4   51 1  
    55    5   52 1  
    56    6   53 1  
    57    7   54 1  
    58    8   55 1  
    59    8   56 1  
    60   10   57 1  
    61   11   58 1  
    62   12   59 1  
    63   13   60 1  
    64   14   61 1  
    65   15   62 1  
    66   19   63 1  
    67   20   64 1  
    68   21   65 1  
    69   23   66 1  
    70   26   67 1  
    71   27   68 1  
    72   28   69 1  
    73   29   70 1  
    74   30   71 1  
    75   32   72 1  
    76   32   73 1  
    77   32   74 1  
    78   37   75 1  
    79   38   76 1  
    80   39   77 1  
    81   39   78 1  
    82   40   79 1  
    83   40   80 1  
    84   41   81 1  
    85   41   82 1  
    86   42   83 1  
    87   42   84 1  
    88   43   85 1  
    89   43   86 1  
@<TRIPOS>SUBSTRUCTURE
     1 XFI         1

