### 
### Created by X-TOOL on Mon Sep 10 21:13:02 2018
### 

@<TRIPOS>MOLECULE
2xfj_ligand
   87    90     1     0     0
SMALL
GAST_HUCK


@<TRIPOS>ATOM
      1 C1         31.2150   -0.8160   37.2620 C.ar      1 VG5         0.0624
      2 C2         31.1000    0.2670   36.4170 C.ar      1 VG5        -0.0344
      3 C3         30.4960    0.1200   35.1780 C.ar      1 VG5         0.0255
      4 C4         29.9840   -1.1100   34.7910 C.ar      1 VG5        -0.0401
      5 C5         30.0820   -2.1960   35.6560 C.ar      1 VG5         0.0288
      6 C6         30.7110   -2.0430   36.8970 C.ar      1 VG5        -0.0210
      7 C7         30.3960    1.3190   34.3130 C.2       1 VG5         0.1991
      8 N8         29.1550    1.4690   33.7620 N.am      1 VG5        -0.2787
      9 O9         31.3360    2.1030   34.1630 O.2       1 VG5        -0.3847
     10 C10        28.9190    2.3760   32.6420 C.3       1 VG5         0.0818
     11 C11        28.2150    1.6280   31.5050 C.3       1 VG5         0.0065
     12 C12        28.1150    3.5750   33.1580 C.3       1 VG5         0.1193
     13 O13        27.7510    4.4470   32.0750 O.3       1 VG5        -0.3840
     14 C14        28.9390    0.3470   31.1690 C.ar      1 VG5        -0.0408
     15 C15        28.9190    4.4620   34.1270 C.3       1 VG5        -0.0026
     16 N16        28.0690    5.5800   34.5670 N.4       1 VG5         0.2478
     17 C17        28.8320    6.7690   35.0310 C.3       1 VG5         0.0639
     18 C18        29.8700    7.2150   34.0190 C.2       1 VG5         0.2245
     19 N19        29.3280    7.9270   32.9840 N.am      1 VG5        -0.2793
     20 O20        31.0720    6.9750   34.1130 O.2       1 VG5        -0.3909
     21 C21        30.1690    8.3710   31.8710 C.3       1 VG5         0.0422
     22 C22        29.4850    6.5020   36.3620 C.3       1 VG5        -0.0039
     23 C23        29.3720    8.3130   30.5880 C.3       1 VG5        -0.0299
     24 C24        30.1630    8.8230   29.3930 C.3       1 VG5        -0.0510
     25 C25        30.6930   10.2300   29.6380 C.3       1 VG5        -0.0529
     26 C26        31.4840   10.2850   30.9420 C.3       1 VG5        -0.0510
     27 C27        30.6330    9.8010   32.1120 C.3       1 VG5        -0.0299
     28 C56        30.3110    0.3300   30.9710 C.ar      1 VG5        -0.0603
     29 C57        30.9290   -0.8780   30.6840 C.ar      1 VG5        -0.0686
     30 C58        30.1950   -2.0490   30.5820 C.ar      1 VG5        -0.0687
     31 C59        28.8290   -2.0250   30.7740 C.ar      1 VG5        -0.0686
     32 C60        28.2110   -0.8230   31.0740 C.ar      1 VG5        -0.0603
     33 N1         29.6100   -3.4890   35.3840 N.pl3     1 VG5        -0.3254
     34 C67        29.0850   -3.6860   34.0370 C.3       1 VG5         0.0206
     35 C68        27.5850   -3.7200   34.0980 C.3       1 VG5        -0.0457
     36 N77        31.8580   -0.6610   38.5110 N.am      1 VG5        -0.2220
     37 C78        33.1370    0.0010   38.5710 C.3       1 VG5         0.0574
     38 C79        33.5930   -0.2080   40.0040 C.3       1 VG5        -0.0100
     39 C80        32.4720   -0.9060   40.7350 C.3       1 VG5         0.0456
     40 C81        31.4020   -1.1390   39.7030 C.2       1 VG5         0.2058
     41 O88        30.3180   -1.6550   39.9250 O.2       1 VG5        -0.3848
     42 H1         31.4823    1.2345   36.7217 H         1 VG5         0.0448
     43 H2         29.5112   -1.2244   33.8223 H         1 VG5         0.0442
     44 H3         30.8008   -2.8890   37.5687 H         1 VG5         0.0426
     45 H4         28.3893    0.9448   34.1348 H         1 VG5         0.1851
     46 H5         29.8856    2.7411   32.2648 H         1 VG5         0.0606
     47 H6         28.1897    2.2712   30.6130 H         1 VG5         0.0449
     48 H7         27.1867    1.3892   31.8142 H         1 VG5         0.0449
     49 H8         27.2120    3.2000   33.6618 H         1 VG5         0.0672
     50 H9         27.2211    3.9681   31.4487 H         1 VG5         0.2101
     51 H10        29.8099    4.8548   33.6151 H         1 VG5         0.0840
     52 H11        29.2293    3.8685   34.9996 H         1 VG5         0.0840
     53 H12        27.4893    5.2585   35.3264 H         1 VG5         0.2036
     54 H13        27.4857    5.8590   33.7937 H         1 VG5         0.2036
     55 H14        28.1159    7.5935   35.1627 H         1 VG5         0.1096
     56 H15        28.3521    8.1453   32.9878 H         1 VG5         0.1856
     57 H16        31.0454    7.7113   31.7892 H         1 VG5         0.0556
     58 H17        30.0420    7.3947   36.6828 H         1 VG5         0.0310
     59 H18        30.1772    5.6524   36.2670 H         1 VG5         0.0310
     60 H19        28.7127    6.2640   37.1082 H         1 VG5         0.0310
     61 H20        28.4693    8.9307   30.7042 H         1 VG5         0.0287
     62 H21        29.0804    7.2692   30.3996 H         1 VG5         0.0287
     63 H22        29.5082    8.8359   28.5093 H         1 VG5         0.0266
     64 H23        31.0117    8.1474   29.2107 H         1 VG5         0.0266
     65 H24        29.8466   10.9300   29.6985 H         1 VG5         0.0265
     66 H25        31.3495   10.5196   28.8042 H         1 VG5         0.0265
     67 H26        31.7986   11.3222   31.1296 H         1 VG5         0.0266
     68 H27        32.3725    9.6428   30.8523 H         1 VG5         0.0266
     69 H28        31.2302    9.8382   33.0350 H         1 VG5         0.0287
     70 H29        29.7547   10.4549   32.2169 H         1 VG5         0.0287
     71 H30        30.8900    1.2439   31.0392 H         1 VG5         0.0557
     72 H31        32.0026   -0.9066   30.5372 H         1 VG5         0.0599
     73 H32        30.6939   -2.9834   30.3515 H         1 VG5         0.0559
     74 H33        28.2470   -2.9357   30.6910 H         1 VG5         0.0599
     75 H34        27.1395   -0.7997   31.2368 H         1 VG5         0.0557
     76 H35        29.6325   -4.2441   36.0842 H         1 VG5         0.1751
     77 H36        29.4593   -4.6371   33.6305 H         1 VG5         0.0508
     78 H37        29.4092   -2.8577   33.3898 H         1 VG5         0.0508
     79 H38        27.1802   -3.8683   33.0860 H         1 VG5         0.0249
     80 H39        27.2129   -2.7686   34.5059 H         1 VG5         0.0249
     81 H40        27.2631   -4.5480   34.7466 H         1 VG5         0.0249
     82 H41        33.0333    1.0728   38.3463 H         1 VG5         0.0587
     83 H42        33.8465   -0.4548   37.8647 H         1 VG5         0.0587
     84 H43        33.8040    0.7624   40.4771 H         1 VG5         0.0314
     85 H44        34.4998   -0.8303   40.0234 H         1 VG5         0.0314
     86 H45        32.0898   -0.2716   41.5483 H         1 VG5         0.0508
     87 H46        32.8209   -1.8632   41.1497 H         1 VG5         0.0508
@<TRIPOS>BOND
     1    1    2 ar 
     2    1    6 ar 
     3    1   36 1  
     4    2    3 ar 
     5    3    4 ar 
     6    3    7 1  
     7    4    5 ar 
     8    5    6 ar 
     9    5   33 1  
    10    7    8 am 
    11    7    9 2  
    12    8   10 1  
    13   10   11 1  
    14   10   12 1  
    15   11   14 1  
    16   12   13 1  
    17   12   15 1  
    18   14   28 ar 
    19   14   32 ar 
    20   15   16 1  
    21   16   17 1  
    22   17   18 1  
    23   17   22 1  
    24   18   19 am 
    25   18   20 2  
    26   19   21 1  
    27   21   23 1  
    28   21   27 1  
    29   23   24 1  
    30   24   25 1  
    31   25   26 1  
    32   26   27 1  
    33   28   29 ar 
    34   29   30 ar 
    35   30   31 ar 
    36   31   32 ar 
    37   33   34 1  
    38   34   35 1  
    39   36   37 1  
    40   36   40 am 
    41   37   38 1  
    42   38   39 1  
    43   39   40 1  
    44   40   41 2  
    45    2   42 1  
    46    4   43 1  
    47    6   44 1  
    48    8   45 1  
    49   10   46 1  
    50   11   47 1  
    51   11   48 1  
    52   12   49 1  
    53   13   50 1  
    54   15   51 1  
    55   15   52 1  
    56   16   53 1  
    57   16   54 1  
    58   17   55 1  
    59   19   56 1  
    60   21   57 1  
    61   22   58 1  
    62   22   59 1  
    63   22   60 1  
    64   23   61 1  
    65   23   62 1  
    66   24   63 1  
    67   24   64 1  
    68   25   65 1  
    69   25   66 1  
    70   26   67 1  
    71   26   68 1  
    72   27   69 1  
    73   27   70 1  
    74   28   71 1  
    75   29   72 1  
    76   30   73 1  
    77   31   74 1  
    78   32   75 1  
    79   33   76 1  
    80   34   77 1  
    81   34   78 1  
    82   35   79 1  
    83   35   80 1  
    84   35   81 1  
    85   37   82 1  
    86   37   83 1  
    87   38   84 1  
    88   38   85 1  
    89   39   86 1  
    90   39   87 1  
@<TRIPOS>SUBSTRUCTURE
     1 VG5         1

