### 
### Created by X-TOOL on Mon Sep 10 21:13:02 2018
### 

@<TRIPOS>MOLECULE
2xfk_ligand
   94    97     1     0     0
SMALL
GAST_HUCK


@<TRIPOS>ATOM
      1 C1         27.5630   -3.5650   34.1790 C.3       1 AA9        -0.0457
      2 C2         29.0610   -3.7920   34.0990 C.3       1 AA9         0.0206
      3 N3         29.6140   -3.5750   35.4280 N.pl3     1 AA9        -0.3254
      4 C4         30.0220   -2.2520   35.7330 C.ar      1 AA9         0.0289
      5 C5         30.6320   -2.0560   36.9640 C.ar      1 AA9        -0.0185
      6 C6         31.0850   -0.8140   37.3490 C.ar      1 AA9         0.0863
      7 C7         30.9370    0.2760   36.5180 C.ar      1 AA9        -0.0317
      8 C8         30.3320    0.0870   35.2900 C.ar      1 AA9         0.0257
      9 C9         29.8860   -1.1610   34.8850 C.ar      1 AA9        -0.0401
     10 C10        30.1900    1.2500   34.4000 C.2       1 AA9         0.1991
     11 O11        31.1230    2.0300   34.2560 O.2       1 AA9        -0.3847
     12 N12        28.9870    1.3640   33.7580 N.am      1 AA9        -0.2787
     13 C13        28.8060    2.3140   32.6780 C.3       1 AA9         0.0818
     14 C14        28.1680    1.5970   31.4960 C.3       1 AA9         0.0065
     15 C15        28.8370    0.2890   31.1760 C.ar      1 AA9        -0.0408
     16 C16        30.2070    0.2350   30.9830 C.ar      1 AA9        -0.0603
     17 C17        30.7950   -0.9860   30.6990 C.ar      1 AA9        -0.0686
     18 C18        30.0390   -2.1370   30.6040 C.ar      1 AA9        -0.0687
     19 C19        28.6780   -2.0860   30.7990 C.ar      1 AA9        -0.0686
     20 C20        28.0800   -0.8700   31.0830 C.ar      1 AA9        -0.0603
     21 C21        28.0030    3.5130   33.1880 C.3       1 AA9         0.1193
     22 O22        27.6660    4.4140   32.1310 O.3       1 AA9        -0.3840
     23 C23        28.7760    4.3690   34.1860 C.3       1 AA9        -0.0026
     24 N24        27.9320    5.5060   34.5710 N.4       1 AA9         0.2478
     25 C25        28.6770    6.6800   35.0680 C.3       1 AA9         0.0639
     26 C26        29.3050    6.3930   36.4160 C.3       1 AA9        -0.0039
     27 C27        29.7100    7.1320   34.0590 C.2       1 AA9         0.2245
     28 O28        30.9010    6.8360   34.1300 O.2       1 AA9        -0.3909
     29 N29        29.1840    7.9150   33.0650 N.am      1 AA9        -0.2793
     30 C30        30.0620    8.3430   31.9630 C.3       1 AA9         0.0422
     31 C31        29.3110    8.1870   30.6640 C.3       1 AA9        -0.0299
     32 C32        30.1140    8.6680   29.4700 C.3       1 AA9        -0.0510
     33 C33        30.3660   10.1480   29.6630 C.3       1 AA9        -0.0529
     34 C34        31.1780   10.3720   30.9270 C.3       1 AA9        -0.0510
     35 C35        30.4750    9.7930   32.1570 C.3       1 AA9        -0.0299
     36 N36        31.7320   -0.6130   38.6070 N.am      1 AA9        -0.1262
     37 C37        33.0590   -0.0680   38.5710 C.ar      1 AA9         0.0924
     38 C38        33.2700    1.2070   39.0430 C.ar      1 AA9        -0.0385
     39 C39        34.5430    1.7380   39.0150 C.ar      1 AA9        -0.0754
     40 C40        35.5790    0.9900   38.5040 C.ar      1 AA9        -0.0773
     41 C41        35.3570   -0.2840   38.0210 C.ar      1 AA9        -0.0754
     42 C42        34.0820   -0.8290   38.0550 C.ar      1 AA9        -0.0385
     43 S43        31.2370   -1.3210   40.0560 S.o2      1 AA9         0.0772
     44 C44        32.1890   -2.8120   40.1570 C.3       1 AA9         0.0837
     45 O45        29.8380   -1.6560   39.8980 O.2       1 AA9        -0.1452
     46 O46        31.6580   -0.4500   41.1410 O.2       1 AA9        -0.1452
     47 H1         27.1149   -3.7221   33.1868 H         1 AA9         0.0249
     48 H2         27.3654   -2.5353   34.5117 H         1 AA9         0.0249
     49 H3         27.1226   -4.2730   34.8964 H         1 AA9         0.0249
     50 H4         29.5095   -3.0840   33.3866 H         1 AA9         0.0508
     51 H5         29.2668   -4.8217   33.7714 H         1 AA9         0.0508
     52 H6         29.7040   -4.3415   36.1101 H         1 AA9         0.1751
     53 H7         30.7543   -2.8977   37.6361 H         1 AA9         0.0428
     54 H8         31.2864    1.2566   36.8202 H         1 AA9         0.0452
     55 H9         29.4320   -1.2852   33.9085 H         1 AA9         0.0442
     56 H10        28.2220    0.7839   34.0377 H         1 AA9         0.1851
     57 H11        29.7924    2.6813   32.3584 H         1 AA9         0.0606
     58 H12        28.2324    2.2497   30.6129 H         1 AA9         0.0449
     59 H13        27.1114    1.4025   31.7319 H         1 AA9         0.0449
     60 H14        30.8092    1.1336   31.0531 H         1 AA9         0.0557
     61 H15        31.8672   -1.0389   30.5487 H         1 AA9         0.0599
     62 H16        30.5181   -3.0821   30.3755 H         1 AA9         0.0559
     63 H17        28.0805   -2.9879   30.7310 H         1 AA9         0.0599
     64 H18        27.0077   -0.8229   31.2345 H         1 AA9         0.0557
     65 H19        27.0854    3.1338   33.6615 H         1 AA9         0.0672
     66 H20        27.1428    3.9579   31.4823 H         1 AA9         0.2101
     67 H21        29.7035    4.7351   33.7216 H         1 AA9         0.0840
     68 H22        29.0226    3.7712   35.0758 H         1 AA9         0.0840
     69 H23        27.3043    5.2004   35.2981 H         1 AA9         0.2036
     70 H24        27.3987    5.7899   33.7641 H         1 AA9         0.2036
     71 H25        27.9586    7.5021   35.2022 H         1 AA9         0.1096
     72 H26        29.8525    7.2821   36.7621 H         1 AA9         0.0310
     73 H27        30.0014    5.5466   36.3234 H         1 AA9         0.0310
     74 H28        28.5173    6.1420   37.1416 H         1 AA9         0.0310
     75 H29        28.2229    8.1903   33.0875 H         1 AA9         0.1856
     76 H30        30.9620    7.7108   31.9445 H         1 AA9         0.0556
     77 H31        28.3803    8.7704   30.7218 H         1 AA9         0.0287
     78 H32        29.0689    7.1235   30.5215 H         1 AA9         0.0287
     79 H33        29.5464    8.5007   28.5427 H         1 AA9         0.0266
     80 H34        31.0704    8.1272   29.4172 H         1 AA9         0.0266
     81 H35        29.4038   10.6739   29.7494 H         1 AA9         0.0265
     82 H36        30.9216   10.5395   28.7981 H         1 AA9         0.0265
     83 H37        31.3207   11.4529   31.0730 H         1 AA9         0.0266
     84 H38        32.1576    9.8848   30.8132 H         1 AA9         0.0266
     85 H39        31.1601    9.8528   33.0155 H         1 AA9         0.0287
     86 H40        29.5754   10.3914   32.3633 H         1 AA9         0.0287
     87 H41        32.4432    1.7892   39.4335 H         1 AA9         0.0505
     88 H42        34.7259    2.7374   39.3929 H         1 AA9         0.0577
     89 H43        36.5799    1.4056   38.4805 H         1 AA9         0.0487
     90 H44        36.1807   -0.8596   37.6144 H         1 AA9         0.0577
     91 H45        33.8963   -1.8304   37.6839 H         1 AA9         0.0505
     92 H46        31.9317   -3.3494   41.0817 H         1 AA9         0.0492
     93 H47        33.2605   -2.5632   40.1636 H         1 AA9         0.0492
     94 H48        31.9658   -3.4491   39.2885 H         1 AA9         0.0492
@<TRIPOS>BOND
     1    1    2 1  
     2    2    3 1  
     3    3    4 1  
     4    4    5 ar 
     5    4    9 ar 
     6    5    6 ar 
     7    6    7 ar 
     8    6   36 1  
     9    7    8 ar 
    10    8    9 ar 
    11    8   10 1  
    12   10   11 2  
    13   10   12 am 
    14   12   13 1  
    15   13   14 1  
    16   13   21 1  
    17   14   15 1  
    18   15   16 ar 
    19   15   20 ar 
    20   16   17 ar 
    21   17   18 ar 
    22   18   19 ar 
    23   19   20 ar 
    24   21   22 1  
    25   21   23 1  
    26   23   24 1  
    27   24   25 1  
    28   25   26 1  
    29   25   27 1  
    30   27   28 2  
    31   27   29 am 
    32   29   30 1  
    33   30   31 1  
    34   30   35 1  
    35   31   32 1  
    36   32   33 1  
    37   33   34 1  
    38   34   35 1  
    39   36   37 1  
    40   36   43 am 
    41   37   38 ar 
    42   37   42 ar 
    43   38   39 ar 
    44   39   40 ar 
    45   40   41 ar 
    46   41   42 ar 
    47   43   44 1  
    48   43   45 2  
    49   43   46 2  
    50    1   47 1  
    51    1   48 1  
    52    1   49 1  
    53    2   50 1  
    54    2   51 1  
    55    3   52 1  
    56    5   53 1  
    57    7   54 1  
    58    9   55 1  
    59   12   56 1  
    60   13   57 1  
    61   14   58 1  
    62   14   59 1  
    63   16   60 1  
    64   17   61 1  
    65   18   62 1  
    66   19   63 1  
    67   20   64 1  
    68   21   65 1  
    69   22   66 1  
    70   23   67 1  
    71   23   68 1  
    72   24   69 1  
    73   24   70 1  
    74   25   71 1  
    75   26   72 1  
    76   26   73 1  
    77   26   74 1  
    78   29   75 1  
    79   30   76 1  
    80   31   77 1  
    81   31   78 1  
    82   32   79 1  
    83   32   80 1  
    84   33   81 1  
    85   33   82 1  
    86   34   83 1  
    87   34   84 1  
    88   35   85 1  
    89   35   86 1  
    90   38   87 1  
    91   39   88 1  
    92   40   89 1  
    93   41   90 1  
    94   42   91 1  
    95   44   92 1  
    96   44   93 1  
    97   44   94 1  
@<TRIPOS>SUBSTRUCTURE
     1 AA9         1

