### 
### Created by X-TOOL on Mon Sep 10 21:13:02 2018
### 

@<TRIPOS>MOLECULE
2xg3_ligand
   64    66     1     0     0
SMALL
GAST_HUCK


@<TRIPOS>ATOM
      1 O08       -15.8410    7.6400   -3.4740 O.2       1 UNU        -0.3846
      2 C07       -15.4830    8.2180   -2.3290 C.2       1 UNU         0.2053
      3 N09       -16.4240    8.4940   -1.4520 N.am      1 UNU        -0.2778
      4 C06       -14.1270    8.8430   -2.1480 C.ar      1 UNU         0.0498
      5 C01       -14.0120   10.0600   -1.4820 C.ar      1 UNU        -0.0419
      6 C05       -12.9810    8.2060   -2.5890 C.ar      1 UNU        -0.0419
      7 C04       -11.7280    8.7880   -2.4450 C.ar      1 UNU        -0.0562
      8 C03       -11.6070   10.0050   -1.7830 C.ar      1 UNU        -0.0575
      9 C02       -12.7560   10.6330   -1.2970 C.ar      1 UNU        -0.0562
     10 C1        -20.1870    8.8450   -1.3780 C.3       1 GAL         0.1882
     11 C2        -18.7150    9.2800   -1.2880 C.3       1 GAL         0.1311
     12 C3        -17.8080    8.1200   -1.6310 C.3       1 GAL         0.1004
     13 C4        -18.1200    6.9310   -0.7500 C.3       1 GAL         0.1089
     14 C5        -19.6000    6.6270   -0.8210 C.3       1 GAL         0.1127
     15 C6        -19.9620    5.4710    0.1270 C.3       1 GAL         0.0730
     16 O2        -18.5120   10.3090   -2.2490 O.3       1 GAL        -0.3844
     17 O4        -17.7430    7.2510    0.5980 O.3       1 GAL        -0.3868
     18 O5        -20.3790    7.7640   -0.4820 O.3       1 GAL        -0.3405
     19 O6        -21.3790    5.2750   -0.0710 O.3       1 GAL        -0.3924
     20 C1        -25.0370   11.0390   -1.0620 C.3       1 NAG         0.1823
     21 C2        -24.5470   10.2880    0.1630 C.3       1 NAG         0.1208
     22 C3        -23.0240   10.3180    0.2840 C.3       1 NAG         0.1114
     23 C4        -22.3500    9.8780   -1.0020 C.3       1 NAG         0.1181
     24 C5        -22.9480   10.7540   -2.0990 C.3       1 NAG         0.1133
     25 C6        -22.3340   10.4710   -3.4570 C.3       1 NAG         0.0730
     26 C7        -25.9710   10.7010    2.0780 C.2       1 NAG         0.1733
     27 C8        -26.2840   11.6320    3.2240 C.3       1 NAG         0.0257
     28 N2        -24.9510   11.0740    1.3090 N.am      1 NAG        -0.2766
     29 O1        -26.4520   10.8330   -1.2030 O.3       1 NAG        -0.3651
     30 O3        -22.6670    9.4820    1.3520 O.3       1 NAG        -0.3867
     31 O4        -20.9330    9.9570   -0.8850 O.3       1 NAG        -0.3402
     32 O5        -24.3540   10.5180   -2.2060 O.3       1 NAG        -0.3409
     33 O6        -22.5320    9.0980   -3.7810 O.3       1 NAG        -0.3924
     34 O7        -26.5210    9.6110    1.9300 O.2       1 NAG        -0.3974
     35 H         -16.1636    8.9969   -0.6037 H         1 UNU         0.1850
     36 H         -14.9028   10.5633   -1.1062 H         1 UNU         0.0669
     37 H         -13.0630    7.2263   -3.0596 H         1 UNU         0.0669
     38 H         -10.8444    8.2935   -2.8487 H         1 UNU         0.0629
     39 H         -10.6276   10.4631   -1.6451 H         1 UNU         0.0653
     40 H         -12.6689   11.5816   -0.7673 H         1 UNU         0.0629
     41 H         -20.4782    8.5535   -2.3871 H         1 UNU         0.0937
     42 H         -18.4894    9.6233   -0.2784 H         1 UNU         0.0668
     43 H         -17.9775    7.8519   -2.6738 H         1 UNU         0.0610
     44 H         -17.5668    6.0539   -1.0858 H         1 UNU         0.0644
     45 H         -19.8215    6.3414   -1.8493 H         1 UNU         0.0647
     46 H         -19.7215    5.7017    1.1648 H         1 UNU         0.0584
     47 H         -19.3895    4.5691   -0.0896 H         1 UNU         0.0584
     48 H         -19.0821   11.0537   -2.0441 H         1 UNU         0.2101
     49 H         -16.8027    7.4417    0.6294 H         1 UNU         0.2100
     50 H         -21.8469    6.0829    0.1524 H         1 UNU         0.2095
     51 H         -24.8403   12.1067   -0.9652 H         1 UNU         0.0932
     52 H         -24.9276    9.2685    0.1011 H         1 UNU         0.0633
     53 H         -22.6885   11.3382    0.4702 H         1 UNU         0.0645
     54 H         -22.5310    8.8303   -1.2423 H         1 UNU         0.0650
     55 H         -22.7396   11.7866   -1.8189 H         1 UNU         0.0647
     56 H         -21.2668   10.6912   -3.4300 H         1 UNU         0.0584
     57 H         -22.8085   11.0980   -4.2118 H         1 UNU         0.0584
     58 H         -27.3387   11.9053    3.1908 H         1 UNU         0.0467
     59 H         -26.0667   11.1309    4.1673 H         1 UNU         0.0467
     60 H         -25.6719   12.5298    3.1386 H         1 UNU         0.0467
     61 H         -24.4440   11.9306    1.5316 H         1 UNU         0.1857
     62 H         -26.6314    9.8930   -1.2792 H         1 UNU         0.2126
     63 H         -22.9361    8.5816    1.1559 H         1 UNU         0.2100
     64 H         -23.4728    8.9086   -3.8055 H         1 UNU         0.2095
@<TRIPOS>BOND
     1    2    1 2  
     2    3    2 am 
     3    2    4 1  
     4   12    3 1  
     5    4    5 ar 
     6    4    6 ar 
     7    5    9 ar 
     8    6    7 ar 
     9    7    8 ar 
    10    9    8 ar 
    11   10   11 1  
    12   10   18 1  
    13   31   10 1  
    14   11   12 1  
    15   11   16 1  
    16   12   13 1  
    17   14   13 1  
    18   13   17 1  
    19   14   15 1  
    20   18   14 1  
    21   15   19 1  
    22   21   20 1  
    23   20   29 1  
    24   20   32 1  
    25   21   22 1  
    26   28   21 1  
    27   22   23 1  
    28   22   30 1  
    29   23   24 1  
    30   23   31 1  
    31   24   25 1  
    32   32   24 1  
    33   25   33 1  
    34   26   27 1  
    35   26   28 am 
    36   26   34 2  
    37    3   35 1  
    38    5   36 1  
    39    6   37 1  
    40    7   38 1  
    41    8   39 1  
    42    9   40 1  
    43   10   41 1  
    44   11   42 1  
    45   12   43 1  
    46   13   44 1  
    47   14   45 1  
    48   15   46 1  
    49   15   47 1  
    50   16   48 1  
    51   17   49 1  
    52   19   50 1  
    53   20   51 1  
    54   21   52 1  
    55   22   53 1  
    56   23   54 1  
    57   24   55 1  
    58   25   56 1  
    59   25   57 1  
    60   27   58 1  
    61   27   59 1  
    62   27   60 1  
    63   28   61 1  
    64   29   62 1  
    65   30   63 1  
    66   33   64 1  
@<TRIPOS>SUBSTRUCTURE
     1 UNU         1

