### 
### Created by X-TOOL on Mon Sep 10 21:13:03 2018
### 

@<TRIPOS>MOLECULE
2xg5_ligand
   55    60     1     0     0
SMALL
GAST_HUCK


@<TRIPOS>ATOM
      1 O23       -48.2110   -8.1180   16.2520 O.co2     1 EC2        -0.5658
      2 C21       -47.8980   -7.4720   15.2200 C.2       1 EC2         0.0735
      3 O22       -46.9220   -6.6710   15.0750 O.co2     1 EC2        -0.5658
      4 C28       -48.7730   -7.6810   14.0370 C.3       1 EC2         0.1539
      5 C29       -48.1670   -8.7610   13.1140 C.3       1 EC2         0.1027
      6 C6        -49.2340   -9.6000   12.5250 C.ar      1 EC2        -0.0224
      7 C5        -49.2840  -10.9660   12.7860 C.ar      1 EC2        -0.0589
      8 C4        -50.3030  -11.7440   12.2340 C.ar      1 EC2        -0.0685
      9 C3        -51.2590  -11.1500   11.4170 C.ar      1 EC2        -0.0687
     10 C2        -51.2200   -9.7750   11.1370 C.ar      1 EC2        -0.0685
     11 C1        -50.2000   -8.9980   11.7030 C.ar      1 EC2        -0.0589
     12 S30       -47.4540   -7.9020   11.7750 S.3       1 EC2        -0.0300
     13 N27       -48.8550   -6.4130   13.2960 N.am      1 EC2        -0.1831
     14 C26       -49.5400   -5.2620   13.7610 C.2       1 EC2         0.1763
     15 O26       -50.1050   -5.3160   14.8790 O.2       1 EC2        -0.4362
     16 C22       -48.1950   -6.4100   12.0720 C.2       1 EC2         0.1495
     17 C23       -48.2090   -5.1930   11.2190 C.2       1 EC2        -0.0037
     18 C18       -47.5180   -5.1350    9.9020 C.3       1 EC2        -0.0223
     19 C20       -46.0220   -5.0350   10.1940 C.3       1 EC2        -0.0464
     20 C19       -46.7760   -3.8170    9.6830 C.3       1 EC2        -0.0464
     21 C24       -48.9480   -4.0190   11.7410 C.2       1 EC2        -0.0522
     22 C25       -49.5880   -4.0930   12.9830 C.2       1 EC2        -0.0301
     23 C17       -49.0370   -2.7810   10.8680 C.3       1 EC2         0.0119
     24 C16       -50.0380   -3.1730    9.7670 C.ar      1 EC2        -0.0204
     25 C7        -50.8210   -4.3280    9.9010 C.ar      1 EC2        -0.0584
     26 C8        -51.7370   -4.7090    8.9160 C.ar      1 EC2        -0.0701
     27 C9        -51.8800   -3.9320    7.7730 C.ar      1 EC2        -0.0627
     28 C10       -51.1200   -2.7750    7.6350 C.ar      1 EC2        -0.0238
     29 C15       -50.2060   -2.4030    8.6160 C.ar      1 EC2        -0.0101
     30 C11       -51.2740   -1.9930    6.4880 C.ar      1 EC2        -0.0568
     31 C12       -50.5160   -0.8340    6.3160 C.ar      1 EC2        -0.0629
     32 C13       -49.6040   -0.4600    7.2980 C.ar      1 EC2        -0.0625
     33 C14       -49.4560   -1.2360    8.4500 C.ar      1 EC2        -0.0546
     34 H         -49.7613   -8.0051   14.3631 H         1 EC2         0.0877
     35 H         -47.4690   -9.3802   13.6774 H         1 EC2         0.0659
     36 H         -48.5281  -11.4280   13.4210 H         1 EC2         0.0557
     37 H         -50.3493  -12.8129   12.4424 H         1 EC2         0.0599
     38 H         -52.0517  -11.7623   10.9870 H         1 EC2         0.0559
     39 H         -51.9701   -9.3194   10.4905 H         1 EC2         0.0599
     40 H         -50.1567   -7.9270   11.5051 H         1 EC2         0.0557
     41 H         -48.1866   -5.7289    9.2788 H         1 EC2         0.0359
     42 H         -45.1078   -5.5833    9.9668 H         1 EC2         0.0279
     43 H         -45.3283   -5.2882   10.9958 H         1 EC2         0.0279
     44 H         -46.8918   -2.7631    9.9359 H         1 EC2         0.0279
     45 H         -46.6714   -3.0580    8.9077 H         1 EC2         0.0279
     46 H         -50.1348   -3.2263   13.3545 H         1 EC2         0.0185
     47 H         -48.0680   -2.4917   10.4614 H         1 EC2         0.0611
     48 H         -49.3609   -1.9034   11.4274 H         1 EC2         0.0611
     49 H         -50.7131   -4.9435   10.7941 H         1 EC2         0.0536
     50 H         -52.3358   -5.6108    9.0440 H         1 EC2         0.0596
     51 H         -52.5810   -4.2262    6.9919 H         1 EC2         0.0546
     52 H         -51.9908   -2.2899    5.7224 H         1 EC2         0.0609
     53 H         -50.6375   -0.2264    5.4193 H         1 EC2         0.0616
     54 H         -49.0037    0.4405    7.1681 H         1 EC2         0.0602
     55 H         -48.7517   -0.9295    9.2234 H         1 EC2         0.0628
@<TRIPOS>BOND
     1    1    2 ar 
     2    2    3 ar 
     3    2    4 1  
     4    4    5 1  
     5    4   13 1  
     6    5    6 1  
     7    5   12 1  
     8    6    7 ar 
     9    6   11 ar 
    10    7    8 ar 
    11    8    9 ar 
    12    9   10 ar 
    13   10   11 ar 
    14   12   16 1  
    15   13   14 am 
    16   13   16 1  
    17   14   15 2  
    18   14   22 1  
    19   16   17 2  
    20   17   18 1  
    21   17   21 1  
    22   18   19 1  
    23   18   20 1  
    24   19   20 1  
    25   21   22 2  
    26   21   23 1  
    27   23   24 1  
    28   24   25 ar 
    29   24   29 ar 
    30   25   26 ar 
    31   26   27 ar 
    32   27   28 ar 
    33   28   29 ar 
    34   28   30 ar 
    35   29   33 ar 
    36   30   31 ar 
    37   31   32 ar 
    38   32   33 ar 
    39    4   34 1  
    40    5   35 1  
    41    7   36 1  
    42    8   37 1  
    43    9   38 1  
    44   10   39 1  
    45   11   40 1  
    46   18   41 1  
    47   19   42 1  
    48   19   43 1  
    49   20   44 1  
    50   20   45 1  
    51   22   46 1  
    52   23   47 1  
    53   23   48 1  
    54   25   49 1  
    55   26   50 1  
    56   27   51 1  
    57   30   52 1  
    58   31   53 1  
    59   32   54 1  
    60   33   55 1  
@<TRIPOS>SUBSTRUCTURE
     1 EC2         1

