### 
### Created by X-TOOL on Mon Sep 10 21:13:02 2018
### 

@<TRIPOS>MOLECULE
2xg9_ligand
   46    47     1     0     0
SMALL
GAST_HUCK


@<TRIPOS>ATOM
      1 C1         16.7820    9.6370   23.5230 C.3       1 NOJ        -0.0040
      2 C2         17.0050    8.2380   24.1040 C.3       1 NOJ         0.1231
      3 O2         17.3360    7.3350   23.0140 O.3       1 NOJ        -0.3838
      4 C3         15.7660    7.8210   24.9400 C.3       1 NOJ         0.1175
      5 O3         15.9080    6.5190   25.5240 O.3       1 NOJ        -0.3862
      6 C4         15.4580    8.8600   26.0510 C.3       1 NOJ         0.1345
      7 O4         14.2070    8.5330   26.6820 O.3       1 NOJ        -0.3371
      8 C5         15.3330   10.2580   25.4170 C.3       1 NOJ         0.0305
      9 N5         16.5240   10.5300   24.6290 N.4       1 NOJ         0.2346
     10 C6         15.0490   11.3960   26.4210 C.3       1 NOJ         0.0893
     11 O6         16.1060   11.4780   27.3690 O.3       1 NOJ        -0.3894
     12 C1         14.2230    7.7230   27.8750 C.3       1 GLC         0.1886
     13 C2         12.7600    7.3240   28.2040 C.3       1 GLC         0.1341
     14 C3         11.9160    8.5410   28.5890 C.3       1 GLC         0.1141
     15 C4         12.6090    9.2730   29.7380 C.3       1 GLC         0.1119
     16 C5         14.0800    9.5920   29.4010 C.3       1 GLC         0.1130
     17 C6         14.8790   10.2640   30.5180 C.3       1 GLC         0.0730
     18 O2         12.1580    6.6560   27.0930 O.3       1 GLC        -0.3841
     19 O3         10.5740    8.1100   28.8690 O.3       1 GLC        -0.3864
     20 O4         11.9070   10.5180   30.0290 O.3       1 GLC        -0.3865
     21 O5         14.7940    8.4030   29.0160 O.3       1 GLC        -0.3405
     22 O6         14.9650    9.3900   31.6210 O.3       1 GLC        -0.3924
     23 H1         15.9202    9.6269   22.8395 H         1 NOJ         0.0840
     24 H2         17.6791    9.9645   22.9772 H         1 NOJ         0.0840
     25 H3         17.8680    8.2709   24.7852 H         1 NOJ         0.0674
     26 H4         17.4774    6.4615   23.3598 H         1 NOJ         0.2101
     27 H5         14.9043    7.7893   24.2570 H         1 NOJ         0.0649
     28 H6         16.0260    5.8754   24.8353 H         1 NOJ         0.2100
     29 H7         16.2661    8.8569   26.7973 H         1 NOJ         0.0682
     30 H8         14.4761   10.2250   24.7281 H         1 NOJ         0.0900
     31 H9         16.4383   11.4626   24.2563 H         1 NOJ         0.2019
     32 H10        17.3178   10.4874   25.2488 H         1 NOJ         0.2019
     33 H11        14.1035   11.1928   26.9452 H         1 NOJ         0.0614
     34 H12        14.9701   12.3499   25.8789 H         1 NOJ         0.0614
     35 H13        16.9225   11.6543   26.9167 H         1 NOJ         0.2097
     36 H14        14.8149    6.8171   27.6774 H         1 NOJ         0.0938
     37 H15        12.7786    6.6321   29.0589 H         1 NOJ         0.0671
     38 H16        11.8726    9.2293   27.7321 H         1 NOJ         0.0648
     39 H17        12.5826    8.6292   30.6295 H         1 NOJ         0.0647
     40 H18        14.0669   10.2810   28.5436 H         1 NOJ         0.0647
     41 H19        14.3741   11.1923   30.8235 H         1 NOJ         0.0584
     42 H20        15.8907   10.4989   30.1558 H         1 NOJ         0.0584
     43 H21        12.1080    7.2526   26.3554 H         1 NOJ         0.2101
     44 H22        10.2194    7.6669   28.1071 H         1 NOJ         0.2100
     45 H23        12.3197   10.9474   30.7692 H         1 NOJ         0.2100
     46 H24        14.0905    9.1878   31.9324 H         1 NOJ         0.2095
@<TRIPOS>BOND
     1    1    2 1  
     2    1    9 1  
     3    2    3 1  
     4    2    4 1  
     5    4    5 1  
     6    4    6 1  
     7    6    7 1  
     8    6    8 1  
     9    7   12 1  
    10    8    9 1  
    11    8   10 1  
    12   10   11 1  
    13   12   13 1  
    14   12   21 1  
    15   13   14 1  
    16   13   18 1  
    17   14   15 1  
    18   14   19 1  
    19   15   16 1  
    20   15   20 1  
    21   16   17 1  
    22   16   21 1  
    23   17   22 1  
    24    1   23 1  
    25    1   24 1  
    26    2   25 1  
    27    3   26 1  
    28    4   27 1  
    29    5   28 1  
    30    6   29 1  
    31    8   30 1  
    32    9   31 1  
    33    9   32 1  
    34   10   33 1  
    35   10   34 1  
    36   11   35 1  
    37   12   36 1  
    38   13   37 1  
    39   14   38 1  
    40   15   39 1  
    41   16   40 1  
    42   17   41 1  
    43   17   42 1  
    44   18   43 1  
    45   19   44 1  
    46   20   45 1  
    47   22   46 1  
@<TRIPOS>SUBSTRUCTURE
     1 NOJ         1

