### 
### Created by X-TOOL on Mon Sep 10 21:13:04 2018
### 

@<TRIPOS>MOLECULE
2xgm_ligand
   12    12     1     0     0
SMALL
GAST_HUCK


@<TRIPOS>ATOM
      1 OAB        29.9550    6.9320    0.8720 O.2       1 LXN        -0.3487
      2 CAH        29.9010    7.2700    2.0580 C.2       1 LXN         0.3107
      3 CAJ        29.7800    6.3430    3.1030 C.2       1 LXN         0.3289
      4 OAD        29.7210    5.1410    2.8830 O.2       1 LXN        -0.3073
      5 CAI        29.7300    6.7710    4.4220 C.2       1 LXN         0.3107
      6 OAC        29.6400    5.9570    5.3470 O.2       1 LXN        -0.3487
      7 NAF        29.7990    8.1450    4.7090 N.am      1 LXN        -0.1693
      8 CAG        29.9170    9.0710    3.6610 C.2       1 LXN         0.3199
      9 OAA        29.9800   10.2720    3.8950 O.2       1 LXN        -0.3817
     10 NAE        29.9670    8.6360    2.3480 N.am      1 LXN        -0.1693
     11 H          29.7634    8.4682    5.6758 H         1 LXN         0.2274
     12 H          30.0522    9.3136    1.5903 H         1 LXN         0.2274
@<TRIPOS>BOND
     1    1    2 2  
     2    2    3 1  
     3    2   10 am 
     4    3    4 2  
     5    3    5 1  
     6    5    6 2  
     7    5    7 am 
     8    7    8 am 
     9    8    9 2  
    10    8   10 am 
    11    7   11 1  
    12   10   12 1  
@<TRIPOS>SUBSTRUCTURE
     1 LXN         1

