### 
### Created by X-TOOL on Mon Sep 10 21:13:04 2018
### 

@<TRIPOS>MOLECULE
2xh5_ligand
   57    60     1     0     0
SMALL
GAST_HUCK


@<TRIPOS>ATOM
      1 N1         44.6020   33.7270  113.9390 N.pl3     1 X37        -0.2873
      2 C2         43.2550   33.1680  113.8920 C.3       1 X37         0.0386
      3 C3         42.9340   32.4900  115.1990 C.3       1 X37         0.0167
      4 C4         44.0160   31.4900  115.6390 C.3       1 X37         0.0045
      5 N5         43.9250   31.4360  117.1440 N.4       1 X37         0.2251
      6 C9         43.7360   30.0260  115.2580 C.3       1 X37         0.0422
      7 C10        43.2930   29.6800  113.8560 C.ar      1 X37        -0.0056
      8 C11        41.9420   29.6470  113.5340 C.ar      1 X37        -0.0283
      9 C12        41.5270   29.3110  112.2620 C.ar      1 X37        -0.0450
     10 C13        42.4540   28.9820  111.2720 C.ar      1 X37        -0.0568
     11 C14        43.8140   29.0030  111.6030 C.ar      1 X37        -0.0450
     12 C15        44.2250   29.3420  112.8760 C.ar      1 X37        -0.0283
     13 C16        41.9850   28.5950  109.8460 C.3       1 X37        -0.0520
     14 C17        40.6980   27.7840  109.9020 C.3       1 X37        -0.0877
     15 C18        41.7190   29.8380  108.9930 C.3       1 X37        -0.0877
     16 C19        43.0440   27.7330  109.1460 C.3       1 X37        -0.0877
     17 C20        45.4680   31.9180  115.3410 C.3       1 X37         0.0167
     18 C21        45.6180   32.6710  114.0370 C.3       1 X37         0.0386
     19 C22        44.8680   35.0330  114.3920 C.ar      1 X37         0.1212
     20 N23        46.1550   35.3000  114.6730 N.ar      1 X37        -0.2730
     21 C24        46.4360   36.5330  115.0980 C.ar      1 X37         0.0500
     22 N25        45.5950   37.5470  115.2750 N.ar      1 X37        -0.2772
     23 C26        44.3410   37.2610  114.9880 C.ar      1 X37         0.1355
     24 N27        43.2650   38.0880  115.0680 N.pl3     1 X37        -0.2665
     25 C29        42.1610   37.4190  114.6800 C.2       1 X37         0.0249
     26 C30        42.5290   36.1610  114.3530 C.2       1 X37        -0.0545
     27 C31        43.8820   36.0290  114.5370 C.ar      1 X37         0.0435
     28 H          43.1972   32.4377  113.0849 H         1 X37         0.0531
     29 H          42.5387   33.9711  113.7186 H         1 X37         0.0531
     30 H          42.0045   31.9363  115.0663 H         1 X37         0.0346
     31 H          42.8643   33.2621  115.9652 H         1 X37         0.0346
     32 H          42.9826   31.1568  117.4166 H         1 X37         0.2002
     33 H          44.5983   30.7575  117.5000 H         1 X37         0.2002
     34 H          44.1328   32.3573  117.5293 H         1 X37         0.2002
     35 H          42.8946   29.7373  115.8880 H         1 X37         0.0558
     36 H          44.6987   29.5271  115.3698 H         1 X37         0.0558
     37 H          41.2009   29.8895  114.2956 H         1 X37         0.0652
     38 H          40.4626   29.3024  112.0274 H         1 X37         0.0833
     39 H          44.5567   28.7487  110.8468 H         1 X37         0.0833
     40 H          45.2879   29.3455  113.1174 H         1 X37         0.0652
     41 H          40.8687   26.8731  110.4758 H         1 X37         0.0126
     42 H          39.9178   28.3757  110.3808 H         1 X37         0.0126
     43 H          40.3892   27.5245  108.8894 H         1 X37         0.0126
     44 H          40.9418   30.4403  109.4633 H         1 X37         0.0126
     45 H          42.6347   30.4236  108.9111 H         1 X37         0.0126
     46 H          41.3918   29.5320  107.9993 H         1 X37         0.0126
     47 H          43.9761   28.2933  109.0725 H         1 X37         0.0126
     48 H          43.2099   26.8235  109.7234 H         1 X37         0.0126
     49 H          42.6956   27.4721  108.1467 H         1 X37         0.0126
     50 H          46.0689   31.0115  115.2676 H         1 X37         0.0346
     51 H          45.7849   32.5845  116.1432 H         1 X37         0.0346
     52 H          46.6082   33.1251  113.9999 H         1 X37         0.0531
     53 H          45.4899   31.9756  113.2075 H         1 X37         0.0531
     54 H          47.4825   36.7332  115.3281 H         1 X37         0.0975
     55 H          43.2893   39.0609  115.3734 H         1 X37         0.2318
     56 H          41.1492   37.8222  114.6376 H         1 X37         0.0922
     57 H          41.8589   35.3772  113.9999 H         1 X37         0.0311
@<TRIPOS>BOND
     1    1    2 1  
     2    1   18 1  
     3    1   19 1  
     4    2    3 1  
     5    3    4 1  
     6    4    5 1  
     7    4    6 1  
     8    4   17 1  
     9    6    7 1  
    10    7    8 ar 
    11    7   12 ar 
    12    8    9 ar 
    13    9   10 ar 
    14   10   11 ar 
    15   10   13 1  
    16   11   12 ar 
    17   13   14 1  
    18   13   15 1  
    19   13   16 1  
    20   17   18 1  
    21   19   20 ar 
    22   19   27 ar 
    23   20   21 ar 
    24   21   22 ar 
    25   22   23 ar 
    26   23   24 1  
    27   23   27 ar 
    28   24   25 1  
    29   25   26 2  
    30   26   27 1  
    31    2   28 1  
    32    2   29 1  
    33    3   30 1  
    34    3   31 1  
    35    5   32 1  
    36    5   33 1  
    37    5   34 1  
    38    6   35 1  
    39    6   36 1  
    40    8   37 1  
    41    9   38 1  
    42   11   39 1  
    43   12   40 1  
    44   14   41 1  
    45   14   42 1  
    46   14   43 1  
    47   15   44 1  
    48   15   45 1  
    49   15   46 1  
    50   16   47 1  
    51   16   48 1  
    52   16   49 1  
    53   17   50 1  
    54   17   51 1  
    55   18   52 1  
    56   18   53 1  
    57   21   54 1  
    58   24   55 1  
    59   25   56 1  
    60   26   57 1  
@<TRIPOS>SUBSTRUCTURE
     1 X37         1

