### 
### Created by X-TOOL on Mon Sep 10 21:13:04 2018
### 

@<TRIPOS>MOLECULE
2xht_ligand
   40    41     1     0     0
SMALL
GAST_HUCK


@<TRIPOS>ATOM
      1 C1          7.0240   -1.1390    9.9970 C.3       1 C0Y        -0.0891
      2 C2          6.3580   -1.5910   11.2970 C.3       1 C0Y        -0.0501
      3 C3          6.8370   -0.6640   12.4250 C.3       1 C0Y        -0.0891
      4 C4          4.8420   -1.4330   11.1450 C.3       1 C0Y        -0.0891
      5 C5          6.7260   -3.0510   11.6090 C.ar      1 C0Y        -0.0124
      6 C6          7.6540   -3.6470   10.7750 C.ar      1 C0Y        -0.0264
      7 C7          8.0850   -4.9480   10.9730 C.ar      1 C0Y         0.0681
      8 C8          7.5790   -5.6790   12.0420 C.ar      1 C0Y        -0.0227
      9 C9          6.6500   -5.1170   12.8980 C.ar      1 C0Y         0.0045
     10 C10         6.2140   -3.8100   12.6990 C.ar      1 C0Y         0.1246
     11 O11         5.2800   -3.2770   13.5590 O.3       1 C0Y        -0.3046
     12 C12         9.1280   -5.5350   10.0760 C.2       1 C0Y         0.2080
     13 O13        10.1770   -5.9220   10.5570 O.2       1 C0Y        -0.3876
     14 N14         8.9170   -5.5450    8.7360 N.am      1 C0Y        -0.2687
     15 C15         9.9440   -5.9770    7.7780 C.3       1 C0Y         0.0567
     16 C16         9.4830   -7.2380    7.0710 C.3       1 C0Y         0.0680
     17 O17         8.2110   -7.0430    6.4360 O.3       1 C0Y        -0.3758
     18 C18         7.2190   -6.6960    7.4140 C.3       1 C0Y         0.0680
     19 C19         7.5850   -5.4130    8.1420 C.3       1 C0Y         0.0567
     20 H1          6.7506   -0.0940    9.7891 H         1 C0Y         0.0121
     21 H2          6.6840   -1.7786    9.1692 H         1 C0Y         0.0121
     22 H3          8.1165   -1.2191   10.0975 H         1 C0Y         0.0121
     23 H4          6.3707   -0.9693   13.3734 H         1 C0Y         0.0121
     24 H5          6.5520    0.3729   12.1934 H         1 C0Y         0.0121
     25 H6          7.9311   -0.7320   12.5158 H         1 C0Y         0.0121
     26 H7          4.4837   -2.0914   10.3399 H         1 C0Y         0.0121
     27 H8          4.6053   -0.3879   10.8966 H         1 C0Y         0.0121
     28 H9          4.3483   -1.7063   12.0892 H         1 C0Y         0.0121
     29 H10         8.0554   -3.0799    9.9429 H         1 C0Y         0.0864
     30 H11         7.9152   -6.6965   12.2054 H         1 C0Y         0.0865
     31 H12         6.2598   -5.6962   13.7270 H         1 C0Y         0.0637
     32 H13         5.6273   -3.2799   14.4432 H         1 C0Y         0.2658
     33 H14        10.8825   -6.1805    8.3145 H         1 C0Y         0.0544
     34 H15        10.1105   -5.1818    7.0365 H         1 C0Y         0.0544
     35 H16         9.3952   -8.0503    7.8075 H         1 C0Y         0.0580
     36 H17        10.2261   -7.5134    6.3081 H         1 C0Y         0.0580
     37 H18         7.1372   -7.5125    8.1465 H         1 C0Y         0.0580
     38 H19         6.2514   -6.5578    6.9093 H         1 C0Y         0.0580
     39 H20         7.5839   -4.5752    7.4292 H         1 C0Y         0.0544
     40 H21         6.8482   -5.2201    8.9357 H         1 C0Y         0.0544
@<TRIPOS>BOND
     1    1    2 1  
     2    2    3 1  
     3    2    4 1  
     4    2    5 1  
     5    5    6 ar 
     6    5   10 ar 
     7    6    7 ar 
     8    7    8 ar 
     9    7   12 1  
    10    8    9 ar 
    11    9   10 ar 
    12   10   11 1  
    13   12   13 2  
    14   12   14 am 
    15   14   15 1  
    16   14   19 1  
    17   15   16 1  
    18   16   17 1  
    19   17   18 1  
    20   18   19 1  
    21    1   20 1  
    22    1   21 1  
    23    1   22 1  
    24    3   23 1  
    25    3   24 1  
    26    3   25 1  
    27    4   26 1  
    28    4   27 1  
    29    4   28 1  
    30    6   29 1  
    31    8   30 1  
    32    9   31 1  
    33   11   32 1  
    34   15   33 1  
    35   15   34 1  
    36   16   35 1  
    37   16   36 1  
    38   18   37 1  
    39   18   38 1  
    40   19   39 1  
    41   19   40 1  
@<TRIPOS>SUBSTRUCTURE
     1 C0Y         1

