### 
### Created by X-TOOL on Mon Sep 10 21:13:04 2018
### 

@<TRIPOS>MOLECULE
2xhx_ligand
   43    45     1     0     0
SMALL
GAST_HUCK


@<TRIPOS>ATOM
      1 C1         14.4960    0.2930   10.6960 C.3       1 T5M        -0.0891
      2 C2         14.2290   -0.4780    9.4040 C.3       1 T5M        -0.0501
      3 C3         12.8260   -0.1170    8.9130 C.3       1 T5M        -0.0891
      4 C4         14.3500   -1.9990    9.6510 C.ar      1 T5M        -0.0124
      5 C5         15.3730   -2.7250    9.0530 C.ar      1 T5M        -0.0264
      6 C6         15.5160   -4.0870    9.2550 C.ar      1 T5M         0.0684
      7 C7         16.6230   -4.8290    8.5900 C.2       1 T5M         0.2112
      8 O8         17.3400   -5.5640    9.2570 O.2       1 T5M        -0.3873
      9 N9         16.7870   -4.6610    7.2330 N.am      1 T5M        -0.2529
     10 C10        18.0480   -4.9270    6.5190 C.3       1 T5M         0.0665
     11 C11        17.5620   -5.3820    5.1710 C.ar      1 T5M        -0.0167
     12 C12        18.2620   -5.9570    4.1200 C.ar      1 T5M        -0.0649
     13 C13        17.6030   -6.3020    2.9620 C.ar      1 T5M        -0.0754
     14 C14        16.2430   -6.0740    2.8420 C.ar      1 T5M        -0.0754
     15 C15        15.5420   -5.5010    3.8810 C.ar      1 T5M        -0.0649
     16 C16        16.1960   -5.1520    5.0490 C.ar      1 T5M        -0.0167
     17 C17        15.6570   -4.5210    6.3000 C.3       1 T5M         0.0665
     18 C18        14.6250   -4.7510   10.0720 C.ar      1 T5M        -0.0227
     19 C20        13.6060   -4.0690   10.6810 C.ar      1 T5M         0.0045
     20 C19        15.2390   -0.0040    8.3530 C.3       1 T5M        -0.0891
     21 C21        13.4570   -2.7080   10.4840 C.ar      1 T5M         0.1246
     22 O22        12.4260   -2.0770   11.1130 O.3       1 T5M        -0.3046
     23 H          15.5131    0.0933   11.0332 H         1 T5M         0.0121
     24 H          14.3759    1.3606   10.5119 H         1 T5M         0.0121
     25 H          13.7888   -0.0269   11.4612 H         1 T5M         0.0121
     26 H          12.7545    0.9629    8.7833 H         1 T5M         0.0121
     27 H          12.6373   -0.6120    7.9604 H         1 T5M         0.0121
     28 H          12.0899   -0.4456    9.6467 H         1 T5M         0.0121
     29 H          16.0824   -2.2077    8.4070 H         1 T5M         0.0864
     30 H          18.6774   -5.6630    7.0192 H         1 T5M         0.0672
     31 H          18.7038   -4.0579    6.4679 H         1 T5M         0.0672
     32 H          19.3334   -6.1354    4.2114 H         1 T5M         0.0538
     33 H          18.1532   -6.7557    2.1377 H         1 T5M         0.0541
     34 H          15.7250   -6.3485    1.9231 H         1 T5M         0.0541
     35 H          14.4712   -5.3226    3.7824 H         1 T5M         0.0538
     36 H          15.3432   -3.4868    6.1581 H         1 T5M         0.0672
     37 H          14.7427   -4.9934    6.6593 H         1 T5M         0.0672
     38 H          14.7326   -5.8236   10.2335 H         1 T5M         0.0865
     39 H          12.9072   -4.6022   11.3256 H         1 T5M         0.0637
     40 H          16.2498   -0.2211    8.6984 H         1 T5M         0.0121
     41 H          15.0551   -0.5248    7.4133 H         1 T5M         0.0121
     42 H          15.1279    1.0698    8.2025 H         1 T5M         0.0121
     43 H          12.4403   -1.1432   10.8906 H         1 T5M         0.2658
@<TRIPOS>BOND
     1    1    2 1  
     2    2    3 1  
     3    2    4 1  
     4    2   20 1  
     5    4    5 ar 
     6    4   21 ar 
     7    5    6 ar 
     8    6    7 1  
     9    6   18 ar 
    10    7    8 2  
    11    7    9 am 
    12    9   10 1  
    13    9   17 1  
    14   10   11 1  
    15   11   12 ar 
    16   11   16 ar 
    17   12   13 ar 
    18   13   14 ar 
    19   14   15 ar 
    20   15   16 ar 
    21   16   17 1  
    22   18   19 ar 
    23   19   21 ar 
    24   21   22 1  
    25    1   23 1  
    26    1   24 1  
    27    1   25 1  
    28    3   26 1  
    29    3   27 1  
    30    3   28 1  
    31    5   29 1  
    32   10   30 1  
    33   10   31 1  
    34   12   32 1  
    35   13   33 1  
    36   14   34 1  
    37   15   35 1  
    38   17   36 1  
    39   17   37 1  
    40   18   38 1  
    41   19   39 1  
    42   20   40 1  
    43   20   41 1  
    44   20   42 1  
    45   22   43 1  
@<TRIPOS>SUBSTRUCTURE
     1 T5M         1

