### 
### Created by X-TOOL on Mon Sep 10 21:13:03 2018
### 

@<TRIPOS>MOLECULE
2xi7_ligand
   21    21     1     0     0
SMALL
GAST_HUCK


@<TRIPOS>ATOM
      1 O8        -67.8790   54.8010  -30.8470 O.3       1 XI7        -0.3105
      2 C9        -68.3480   53.5500  -30.9170 C.2       1 XI7         0.1443
      3 C10       -69.2610   53.1540  -29.9980 C.2       1 XI7         0.1128
      4 O11       -69.6510   53.9530  -29.1000 O.co2     1 XI7        -0.5510
      5 O10       -69.7300   51.9850  -30.0490 O.co2     1 XI7        -0.5510
      6 C8        -67.9090   52.6740  -31.8530 C.2       1 XI7         0.0196
      7 C7        -66.8540   52.9280  -32.8700 C.2       1 XI7         0.1292
      8 C1        -66.3130   51.7520  -33.6590 C.ar      1 XI7         0.0261
      9 C6        -65.7260   50.6770  -32.9630 C.ar      1 XI7        -0.0444
     10 C5        -65.1860   49.5740  -33.6440 C.ar      1 XI7        -0.0563
     11 C4        -65.2210   49.5460  -35.0440 C.ar      1 XI7        -0.0576
     12 C3        -65.8030   50.6250  -35.7410 C.ar      1 XI7        -0.0563
     13 C2        -66.3350   51.7300  -35.0520 C.ar      1 XI7        -0.0444
     14 O14       -66.2840   54.0050  -33.0400 O.2       1 XI7        -0.3903
     15 H         -67.2450   54.9439  -31.5536 H         1 XI7         0.2608
     16 H         -68.3739   51.6882  -31.8613 H         1 XI7         0.0444
     17 H         -65.6902   50.7019  -31.8739 H         1 XI7         0.0667
     18 H         -64.7437   48.7472  -33.0882 H         1 XI7         0.0629
     19 H         -64.8030   48.6995  -35.5888 H         1 XI7         0.0652
     20 H         -65.8412   50.6024  -36.8301 H         1 XI7         0.0629
     21 H         -66.7628   52.5658  -35.6057 H         1 XI7         0.0667
@<TRIPOS>BOND
     1    1    2 1  
     2    2    3 1  
     3    2    6 2  
     4    3    4 ar 
     5    3    5 ar 
     6    6    7 1  
     7    7    8 1  
     8    7   14 2  
     9    8    9 ar 
    10    8   13 ar 
    11    9   10 ar 
    12   10   11 ar 
    13   11   12 ar 
    14   12   13 ar 
    15    1   15 1  
    16    6   16 1  
    17    9   17 1  
    18   10   18 1  
    19   11   19 1  
    20   12   20 1  
    21   13   21 1  
@<TRIPOS>SUBSTRUCTURE
     1 XI7         1

