### 
### Created by X-TOOL on Mon Sep 10 21:13:03 2018
### 

@<TRIPOS>MOLECULE
2xib_ligand
   24    24     1     0     0
SMALL
GAST_HUCK


@<TRIPOS>ATOM
      1 C1         32.5880    2.5360   42.5940 C.3       1 DFU        -0.0041
      2 C2         33.0010    3.5250   43.6840 C.3       1 DFU         0.1231
      3 C3         32.2320    4.7910   43.5030 C.3       1 DFU         0.1170
      4 C4         30.7470    4.4120   43.6440 C.3       1 DFU         0.1256
      5 C5         30.3460    3.3440   42.6060 C.3       1 DFU         0.0037
      6 C6         28.8860    2.9260   42.7720 C.3       1 DFU        -0.0191
      7 O4         30.5280    3.8760   44.9780 O.3       1 DFU        -0.3835
      8 O3         32.6040    5.7430   44.5170 O.3       1 DFU        -0.3862
      9 O2         34.4190    3.7810   43.6850 O.3       1 DFU        -0.3838
     10 N5         31.1730    2.1590   42.7780 N.4       1 DFU         0.2328
     11 H1         33.2178    1.6364   42.6581 H         1 DFU         0.0840
     12 H2         32.7167    3.0042   41.6070 H         1 DFU         0.0840
     13 H3         32.7364    3.0917   44.6598 H         1 DFU         0.0674
     14 H4         32.4250    5.2183   42.5079 H         1 DFU         0.0649
     15 H5         30.1278    5.3094   43.4984 H         1 DFU         0.0677
     16 H6         30.4938    3.7544   41.5962 H         1 DFU         0.0874
     17 H7         28.6344    2.1656   42.0181 H         1 DFU         0.0285
     18 H8         28.2360    3.8034   42.6390 H         1 DFU         0.0285
     19 H9         28.7364    2.5080   43.7784 H         1 DFU         0.0285
     20 H10        30.7727    4.5280   45.6242 H         1 DFU         0.2102
     21 H11        32.0738    6.5258   44.4246 H         1 DFU         0.2100
     22 H12        34.6323    4.3731   44.3967 H         1 DFU         0.2101
     23 H13        31.0398    1.7845   43.7043 H         1 DFU         0.2018
     24 H14        30.9158    1.4643   42.0945 H         1 DFU         0.2018
@<TRIPOS>BOND
     1    1    2 1  
     2    1   10 1  
     3    2    3 1  
     4    2    9 1  
     5    3    4 1  
     6    3    8 1  
     7    4    5 1  
     8    4    7 1  
     9    5    6 1  
    10    5   10 1  
    11    1   11 1  
    12    1   12 1  
    13    2   13 1  
    14    3   14 1  
    15    4   15 1  
    16    5   16 1  
    17    6   17 1  
    18    6   18 1  
    19    6   19 1  
    20    7   20 1  
    21    8   21 1  
    22    9   22 1  
    23   10   23 1  
    24   10   24 1  
@<TRIPOS>SUBSTRUCTURE
     1 DFU         1

