### 
### Created by X-TOOL on Mon Sep 10 21:13:03 2018
### 

@<TRIPOS>MOLECULE
2xii_ligand
   51    54     1     0     0
SMALL
GAST_HUCK


@<TRIPOS>ATOM
      1 CAK       -30.9770    3.2880   24.2500 C.ar      1 TA9         0.0588
      2 CAQ       -31.7760    3.8580   25.2470 C.2       1 TA9         0.1734
      3 OBB       -31.6940    3.6410   26.4590 O.2       1 TA9        -0.3455
      4 CAN       -32.7310    4.6830   24.6720 C.ar      1 TA9         0.0404
      5 CAS       -33.7340    5.4850   25.2140 C.ar      1 TA9        -0.0444
      6 CAH       -34.5360    6.2400   24.3430 C.ar      1 TA9        -0.0563
      7 CAC       -34.3470    6.1870   22.9550 C.ar      1 TA9        -0.0570
      8 CAR       -33.3450    5.3830   22.4260 C.ar      1 TA9        -0.0498
      9 CAM       -32.5470    4.6160   23.2820 C.ar      1 TA9        -0.0012
     10 CAL       -31.4820    3.7500   23.0260 C.ar      1 TA9         0.0029
     11 CAO       -30.9050    3.3320   21.8290 C.ar      1 TA9        -0.0460
     12 CAT       -29.8160    2.4640   21.8430 C.ar      1 TA9        -0.0518
     13 CAP       -29.3080    1.9980   23.0570 C.ar      1 TA9        -0.0370
     14 CAJ       -29.8880    2.4070   24.2600 C.ar      1 TA9         0.0666
     15 CAI       -29.2490    1.8770   25.5580 C.2       1 TA9         0.2092
     16 OAZ       -28.7230    0.7710   25.5740 O.2       1 TA9        -0.3824
     17 NAV       -29.1040    2.7710   26.5420 N.am      1 TA9        -0.2800
     18 CAD       -28.4690    2.4570   27.8070 C.3       1 TA9         0.0757
     19 CAA       -26.9690    2.3750   27.6440 C.3       1 TA9         0.0272
     20 NAW       -26.4510    3.7110   27.2650 N.4       1 TA9         0.2364
     21 CAE       -24.9780    3.5580   26.9930 C.3       1 TA9         0.0040
     22 CAU       -24.4140    4.9650   26.6290 C.3       1 TA9        -0.0191
     23 CAG       -24.2420    2.9390   28.1480 C.3       1 TA9         0.1256
     24 OAX       -24.2530    3.8370   29.2490 O.3       1 TA9        -0.3835
     25 CAF       -24.8840    1.6100   28.5990 C.3       1 TA9         0.1174
     26 OAY       -24.1560    1.0900   29.7290 O.3       1 TA9        -0.3862
     27 CAB       -26.3310    1.8900   28.9400 C.3       1 TA9         0.1278
     28 OBA       -26.9970    0.6840   29.3880 O.3       1 TA9        -0.3835
     29 H1        -33.8916    5.5250   26.2857 H         1 TA9         0.0673
     30 H2        -35.3145    6.8746   24.7509 H         1 TA9         0.0628
     31 H3        -34.9802    6.7711   22.2970 H         1 TA9         0.0651
     32 H4        -33.1821    5.3500   21.3548 H         1 TA9         0.0641
     33 H5        -31.3045    3.6831   20.8845 H         1 TA9         0.0673
     34 H6        -29.3622    2.1498   20.9100 H         1 TA9         0.0660
     35 H7        -28.4633    1.3187   23.0660 H         1 TA9         0.0678
     36 H8        -29.4493    3.6985   26.3987 H         1 TA9         0.1848
     37 H9        -28.8464    1.4898   28.1706 H         1 TA9         0.0577
     38 H10       -28.7106    3.2430   28.5376 H         1 TA9         0.0577
     39 H11       -26.7314    1.6593   26.8432 H         1 TA9         0.0897
     40 H12       -26.5967    4.3643   28.0187 H         1 TA9         0.2021
     41 H13       -26.9222    4.0419   26.4376 H         1 TA9         0.2021
     42 H14       -24.8516    2.8951   26.1243 H         1 TA9         0.0874
     43 H15       -23.3361    4.8861   26.4241 H         1 TA9         0.0285
     44 H16       -24.5778    5.6546   27.4702 H         1 TA9         0.0285
     45 H17       -24.9300    5.3471   25.7358 H         1 TA9         0.0285
     46 H18       -23.2030    2.7471   27.8422 H         1 TA9         0.0677
     47 H19       -23.7879    3.4464   29.9795 H         1 TA9         0.2102
     48 H20       -24.8401    0.8783   27.7788 H         1 TA9         0.0649
     49 H21       -24.1885    1.7178   30.4413 H         1 TA9         0.2100
     50 H22       -26.3997    2.6622   29.7203 H         1 TA9         0.0678
     51 H23       -26.5586    0.3503   30.1619 H         1 TA9         0.2102
@<TRIPOS>BOND
     1    1    2 1  
     2    1   10 ar 
     3    1   14 ar 
     4    2    3 2  
     5    2    4 1  
     6    4    5 ar 
     7    4    9 ar 
     8    5    6 ar 
     9    6    7 ar 
    10    7    8 ar 
    11    8    9 ar 
    12    9   10 1  
    13   10   11 ar 
    14   11   12 ar 
    15   12   13 ar 
    16   13   14 ar 
    17   14   15 1  
    18   15   16 2  
    19   15   17 am 
    20   17   18 1  
    21   18   19 1  
    22   19   20 1  
    23   19   27 1  
    24   20   21 1  
    25   21   22 1  
    26   21   23 1  
    27   23   24 1  
    28   23   25 1  
    29   25   26 1  
    30   25   27 1  
    31   27   28 1  
    32    5   29 1  
    33    6   30 1  
    34    7   31 1  
    35    8   32 1  
    36   11   33 1  
    37   12   34 1  
    38   13   35 1  
    39   17   36 1  
    40   18   37 1  
    41   18   38 1  
    42   19   39 1  
    43   20   40 1  
    44   20   41 1  
    45   21   42 1  
    46   22   43 1  
    47   22   44 1  
    48   22   45 1  
    49   23   46 1  
    50   24   47 1  
    51   25   48 1  
    52   26   49 1  
    53   27   50 1  
    54   28   51 1  
@<TRIPOS>SUBSTRUCTURE
     1 TA9         1

