### 
### Created by X-TOOL on Mon Sep 10 21:13:05 2018
### 

@<TRIPOS>MOLECULE
2xix_ligand
   12    12     1     0     0
SMALL
GAST_HUCK


@<TRIPOS>ATOM
      1 N1        -21.9010  -35.5170   -1.1330 N.2       1 XIX        -0.2967
      2 N2        -22.2900  -36.5810   -0.6270 N.2       1 XIX        -0.2967
      3 N4        -22.9500  -37.2780    1.5330 N.pl3     1 XIX        -0.2970
      4 C6        -21.8610  -34.5620   -0.1850 C.2       1 XIX         0.2099
      5 N7        -22.2530  -35.0680    0.9850 N.pl3     1 XIX        -0.1953
      6 N8        -21.4820  -33.2940   -0.3950 N.pl3     1 XIX        -0.2970
      7 C2        -22.5150  -36.3480    0.6760 C.2       1 XIX         0.2099
      8 H1        -23.1250  -38.2387    1.2053 H         1 XIX         0.1802
      9 H2        -23.1100  -37.0336    2.5207 H         1 XIX         0.1802
     10 H3        -22.3343  -34.5955    1.8966 H         1 XIX         0.2418
     11 H4        -21.1940  -32.9918   -1.3366 H         1 XIX         0.1802
     12 H5        -21.4786  -32.6216    0.3852 H         1 XIX         0.1802
@<TRIPOS>BOND
     1    1    2 1  
     2    1    4 2  
     3    2    7 2  
     4    7    3 1  
     5    4    5 1  
     6    4    6 1  
     7    5    7 1  
     8    3    8 1  
     9    3    9 1  
    10    5   10 1  
    11    6   11 1  
    12    6   12 1  
@<TRIPOS>SUBSTRUCTURE
     1 XIX         1

