### 
### Created by X-TOOL on Mon Sep 10 21:13:05 2018
### 

@<TRIPOS>MOLECULE
2xiy_ligand
   19    20     1     0     0
SMALL
GAST_HUCK


@<TRIPOS>ATOM
      1 NG        -21.9660  -35.2900   -1.5910 N.2       1 XIY        -0.3161
      2 CD1       -21.7560  -34.1650   -0.8950 C.2       1 XIY         0.1469
      3 NE1       -22.0720  -34.3720    0.3940 N.pl3     1 XIY        -0.2445
      4 CE2       -22.4830  -35.6380    0.5190 C.ar      1 XIY         0.0783
      5 CZ2       -22.9250  -36.3780    1.6130 C.ar      1 XIY        -0.0422
      6 CH2       -23.2990  -37.7180    1.4430 C.ar      1 XIY        -0.0766
      7 CZ3       -23.2270  -38.3010    0.1740 C.ar      1 XIY        -0.0786
      8 CE3       -22.7810  -37.5490   -0.9240 C.ar      1 XIY        -0.0656
      9 CD2       -22.4060  -36.2210   -0.7480 C.ar      1 XIY         0.0208
     10 C         -21.2430  -32.8410   -1.4610 C.3       1 XIY         0.1261
     11 O         -20.9960  -31.9200   -0.3980 O.3       1 XIY        -0.3729
     12 H1        -22.0088  -33.6778    1.1523 H         1 XIY         0.2323
     13 H2        -22.9796  -35.9188    2.5934 H         1 XIY         0.0541
     14 H3        -23.6423  -38.2995    2.2910 H         1 XIY         0.0528
     15 H4        -23.5165  -39.3367    0.0379 H         1 XIY         0.0516
     16 H5        -22.7289  -38.0022   -1.9073 H         1 XIY         0.0535
     17 H6        -21.9972  -32.4187   -2.1413 H         1 XIY         0.0831
     18 H7        -20.3088  -33.0185   -2.0140 H         1 XIY         0.0831
     19 H8        -20.6778  -31.1005   -0.7580 H         1 XIY         0.2139
@<TRIPOS>BOND
     1    1    2 2  
     2    1    9 1  
     3    2    3 1  
     4    2   10 1  
     5    3    4 1  
     6    4    5 ar 
     7    4    9 ar 
     8    5    6 ar 
     9    6    7 ar 
    10    7    8 ar 
    11    8    9 ar 
    12   10   11 1  
    13    3   12 1  
    14    5   13 1  
    15    6   14 1  
    16    7   15 1  
    17    8   16 1  
    18   10   17 1  
    19   10   18 1  
    20   11   19 1  
@<TRIPOS>SUBSTRUCTURE
     1 XIY         1

