### 
### Created by X-TOOL on Mon Sep 10 21:13:08 2018
### 

@<TRIPOS>MOLECULE
2xiz_ligand
   17    17     1     0     0
SMALL
GAST_HUCK


@<TRIPOS>ATOM
      1 C1        -21.7960  -31.8710    1.5970 C.2       1 XIZ         0.0573
      2 O1        -21.2350  -30.9190    1.0050 O.co2     1 XIZ        -0.5613
      3 O2        -22.3150  -31.7760    2.7390 O.co2     1 XIZ        -0.5613
      4 C2        -21.8350  -33.1040    0.9290 C.2       1 XIZ        -0.0208
      5 C3        -22.4270  -34.2360    1.5060 C.2       1 XIZ        -0.0351
      6 C1'       -22.5210  -35.4510    0.8190 C.ar      1 XIZ        -0.0010
      7 C2'       -22.1100  -35.5590   -0.5150 C.ar      1 XIZ        -0.0261
      8 C3'       -22.2430  -36.7780   -1.1800 C.ar      1 XIZ         0.0111
      9 C5'       -23.1700  -37.7690    0.7130 C.ar      1 XIZ         0.0111
     10 C6'       -23.0680  -36.5700    1.4380 C.ar      1 XIZ        -0.0261
     11 N4        -22.7590  -37.8350   -0.5540 N.ar      1 XIZ        -0.2981
     12 H         -21.3935  -33.1838   -0.0644 H         1 XIZ         0.0700
     13 H         -22.8253  -34.1677    2.5183 H         1 XIZ         0.0715
     14 H         -21.6888  -34.6960   -1.0307 H         1 XIZ         0.0723
     15 H         -21.9228  -36.8664   -2.2182 H         1 XIZ         0.0821
     16 H         -23.5893  -38.6544    1.1909 H         1 XIZ         0.0821
     17 H         -23.4126  -36.5174    2.4708 H         1 XIZ         0.0723
@<TRIPOS>BOND
     1    1    2 ar 
     2    1    3 ar 
     3    1    4 1  
     4    4    5 2  
     5    5    6 1  
     6    6    7 ar 
     7    6   10 ar 
     8    7    8 ar 
     9    8   11 ar 
    10   10    9 ar 
    11    9   11 ar 
    12    4   12 1  
    13    5   13 1  
    14    7   14 1  
    15    8   15 1  
    16    9   16 1  
    17   10   17 1  
@<TRIPOS>SUBSTRUCTURE
     1 XIZ         1

