### 
### Created by X-TOOL on Mon Sep 10 21:13:07 2018
### 

@<TRIPOS>MOLECULE
2xj0_ligand
   18    18     1     0     0
SMALL
GAST_HUCK


@<TRIPOS>ATOM
      1 OB        -20.6940  -30.6910    0.5490 O.co2     1 XJ0        -0.5642
      2 C         -21.1060  -31.7060    1.1520 C.2       1 XJ0         0.0504
      3 OA        -21.3040  -31.7570    2.3860 O.co2     1 XJ0        -0.5642
      4 CA        -21.3600  -32.8470    0.4000 C.2       1 XJ0        -0.0299
      5 CB        -21.8240  -34.0020    1.0190 C.2       1 XJ0        -0.0418
      6 CG        -22.0930  -35.1700    0.3120 C.ar      1 XJ0         0.0202
      7 CD        -21.9160  -35.2600   -1.0650 C.ar      1 XJ0         0.0253
      8 NE        -22.1850  -36.3930   -1.6900 N.ar      1 XJ0        -0.2490
      9 CZ        -22.6330  -37.4650   -1.0180 C.ar      1 XJ0         0.1940
     10 NH2       -22.9020  -38.5900   -1.6740 N.pl3     1 XJ0        -0.3010
     11 NH1       -22.8120  -37.4040    0.3100 N.ar      1 XJ0        -0.2490
     12 C10       -22.5550  -36.2960    0.9830 C.ar      1 XJ0         0.0253
     13 H         -21.1950  -32.8361   -0.6774 H         1 XJ0         0.0612
     14 H         -21.9829  -33.9924    2.0973 H         1 XJ0         0.0695
     15 H         -21.5563  -34.3981   -1.6270 H         1 XJ0         0.0925
     16 H         -22.7677  -38.6360   -2.6841 H         1 XJ0         0.1841
     17 H         -23.2426  -39.4070   -1.1671 H         1 XJ0         0.1841
     18 H         -22.7051  -36.2653    2.0622 H         1 XJ0         0.0925
@<TRIPOS>BOND
     1    1    2 ar 
     2    2    3 ar 
     3    2    4 1  
     4    4    5 2  
     5    5    6 1  
     6    6    7 ar 
     7    6   12 ar 
     8    7    8 ar 
     9    8    9 ar 
    10    9   10 1  
    11    9   11 ar 
    12   11   12 ar 
    13    4   13 1  
    14    5   14 1  
    15    7   15 1  
    16   10   16 1  
    17   10   17 1  
    18   12   18 1  
@<TRIPOS>SUBSTRUCTURE
     1 XJ0         1

