### 
### Created by X-TOOL on Mon Sep 10 21:13:06 2018
### 

@<TRIPOS>MOLECULE
2xj1_ligand
   47    49     1     0     0
SMALL
GAST_HUCK


@<TRIPOS>ATOM
      1 C3        -20.4820  -32.1700   -4.7560 C.3       1 XJ1        -0.0248
      2 C4        -20.7090  -30.6430   -4.7420 C.3       1 XJ1        -0.0077
      3 C5        -21.6460  -30.2350   -3.5910 C.3       1 XJ1        -0.0242
      4 N8        -21.8830  -28.7740   -3.5700 N.4       1 XJ1         0.2207
      5 C6        -22.9640  -30.9900   -3.7540 C.3       1 XJ1        -0.0077
      6 C7        -22.7710  -32.5200   -3.8110 C.3       1 XJ1        -0.0248
      7 C2        -21.8260  -32.9080   -4.9490 C.3       1 XJ1         0.0398
      8 N1        -21.5930  -34.3680   -5.0880 N.pl3     1 XJ1        -0.2989
      9 C9        -22.1160  -35.4220   -4.4480 C.ar      1 XJ1         0.1394
     10 N10       -22.0800  -35.5190   -3.1030 N.ar      1 XJ1        -0.2580
     11 C14       -22.6330  -36.4880   -5.1900 C.ar      1 XJ1         0.0577
     12 N13       -23.1010  -37.5650   -4.5620 N.ar      1 XJ1        -0.2862
     13 C12       -23.0910  -37.6520   -3.2210 C.ar      1 XJ1         0.0329
     14 C11       -22.5510  -36.6120   -2.4530 C.ar      1 XJ1         0.0661
     15 C15       -22.5370  -36.6250   -1.0330 C.ar      1 XJ1         0.0054
     16 C16       -22.3620  -35.4140   -0.3590 C.ar      1 XJ1        -0.0393
     17 C20       -22.7360  -37.7770   -0.2680 C.ar      1 XJ1        -0.0476
     18 C19       -22.7450  -37.7090    1.1400 C.ar      1 XJ1        -0.0560
     19 C18       -22.5590  -36.4850    1.7820 C.ar      1 XJ1        -0.0495
     20 C17       -22.3470  -35.3270    1.0320 C.ar      1 XJ1        -0.0155
     21 C21       -22.1900  -34.0870    1.6650 C.2       1 XJ1        -0.0447
     22 C22       -21.4830  -32.9920    1.1620 C.2       1 XJ1        -0.0276
     23 C23       -21.4240  -31.7880    1.8820 C.2       1 XJ1         0.0524
     24 O25       -20.7680  -30.8650    1.3760 O.co2     1 XJ1        -0.5634
     25 O24       -22.0350  -31.6700    2.9760 O.co2     1 XJ1        -0.5634
     26 H1        -20.0317  -32.4791   -3.8012 H         1 XJ1         0.0289
     27 H2        -19.8035  -32.4289   -5.5822 H         1 XJ1         0.0289
     28 H3        -21.1594  -30.3375   -5.6979 H         1 XJ1         0.0320
     29 H4        -19.7409  -30.1366   -4.6144 H         1 XJ1         0.0320
     30 H5        -21.1823  -30.5247   -2.6365 H         1 XJ1         0.0850
     31 H6        -22.4989  -28.5445   -2.8058 H         1 XJ1         0.1997
     32 H7        -22.3062  -28.4897   -4.4395 H         1 XJ1         0.1997
     33 H8        -21.0054  -28.2929   -3.4503 H         1 XJ1         0.1997
     34 H9        -23.4449  -30.6611   -4.6870 H         1 XJ1         0.0320
     35 H10       -23.6154  -30.7491   -2.9010 H         1 XJ1         0.0320
     36 H11       -23.7470  -33.0005   -3.9736 H         1 XJ1         0.0289
     37 H12       -22.3467  -32.8654   -2.8568 H         1 XJ1         0.0289
     38 H13       -22.2803  -32.5601   -5.8884 H         1 XJ1         0.0556
     39 H14       -20.9015  -34.6160   -5.8099 H         1 XJ1         0.1829
     40 H15       -22.6529  -36.4381   -6.2727 H         1 XJ1         0.0819
     41 H16       -23.5015  -38.5284   -2.7326 H         1 XJ1         0.0806
     42 H17       -22.2330  -34.5078   -0.9397 H         1 XJ1         0.0671
     43 H18       -22.8847  -38.7308   -0.7611 H         1 XJ1         0.0661
     44 H19       -22.8967  -38.6093    1.7245 H         1 XJ1         0.0629
     45 H20       -22.5791  -36.4328    2.8646 H         1 XJ1         0.0660
     46 H21       -22.6625  -33.9655    2.6386 H         1 XJ1         0.0698
     47 H22       -20.9732  -33.0730    0.2031 H         1 XJ1         0.0637
@<TRIPOS>BOND
     1    1    2 1  
     2    1    7 1  
     3    2    3 1  
     4    3    4 1  
     5    3    5 1  
     6    5    6 1  
     7    6    7 1  
     8    7    8 1  
     9    8    9 1  
    10    9   10 ar 
    11    9   11 ar 
    12   10   14 ar 
    13   11   12 ar 
    14   12   13 ar 
    15   13   14 ar 
    16   14   15 1  
    17   15   16 ar 
    18   15   17 ar 
    19   16   20 ar 
    20   17   18 ar 
    21   18   19 ar 
    22   19   20 ar 
    23   20   21 1  
    24   21   22 2  
    25   22   23 1  
    26   23   24 ar 
    27   23   25 ar 
    28    1   26 1  
    29    1   27 1  
    30    2   28 1  
    31    2   29 1  
    32    3   30 1  
    33    4   31 1  
    34    4   32 1  
    35    4   33 1  
    36    5   34 1  
    37    5   35 1  
    38    6   36 1  
    39    6   37 1  
    40    7   38 1  
    41    8   39 1  
    42   11   40 1  
    43   13   41 1  
    44   16   42 1  
    45   17   43 1  
    46   18   44 1  
    47   19   45 1  
    48   21   46 1  
    49   22   47 1  
@<TRIPOS>SUBSTRUCTURE
     1 XJ1         1

