### 
### Created by X-TOOL on Mon Sep 10 21:13:05 2018
### 

@<TRIPOS>MOLECULE
2xj2_ligand
   47    49     1     0     0
SMALL
GAST_HUCK


@<TRIPOS>ATOM
      1 C1        -22.5470  -36.6700   -2.5280 C.ar      1 985         0.0661
      2 N2        -21.9620  -35.6400   -3.1690 N.ar      1 985        -0.2578
      3 C3        -21.9530  -35.5170   -4.5080 C.ar      1 985         0.1419
      4 C4        -22.6130  -36.4850   -5.2640 C.ar      1 985         0.0579
      5 N5        -23.2050  -37.5010   -4.6370 N.ar      1 985        -0.2862
      6 C6        -23.2090  -37.6180   -3.3070 C.ar      1 985         0.0329
      7 N1        -21.3280  -34.4680   -5.0710 N.pl3     1 985        -0.2827
      8 C2        -20.4860  -33.6190   -4.2060 C.3       1 985         0.0712
      9 C11       -21.3220  -32.4710   -3.5890 C.3       1 985        -0.0113
     10 N3        -22.3680  -31.8970   -4.4810 N.4       1 985         0.2346
     11 C5        -21.9320  -31.7140   -5.8850 C.3       1 985        -0.0302
     12 C14       -22.3920  -32.9100   -6.7520 C.3       1 985         0.0079
     13 C7        -21.5230  -34.1740   -6.5190 C.3       1 985         0.0363
     14 C8        -22.7470  -30.5680   -3.9560 C.3       1 985        -0.0430
     15 C10       -22.7750  -36.6370    1.6800 C.ar      1 985        -0.0495
     16 C16       -22.9370  -37.8380    0.9920 C.ar      1 985        -0.0560
     17 C12       -22.8510  -37.8670   -0.4000 C.ar      1 985        -0.0476
     18 C13       -22.5770  -36.7070   -1.1180 C.ar      1 985         0.0054
     19 C17       -22.4370  -35.5090   -0.4090 C.ar      1 985        -0.0393
     20 C15       -22.5020  -35.4630    0.9810 C.ar      1 985        -0.0155
     21 C18       -22.3780  -34.2500    1.6700 C.2       1 985        -0.0447
     22 C19       -21.7150  -33.1190    1.1950 C.2       1 985        -0.0276
     23 C9        -21.6830  -31.9340    1.9420 C.2       1 985         0.0524
     24 O1        -21.0610  -30.9720    1.4560 O.co2     1 985        -0.5634
     25 O2        -22.2790  -31.8740    3.0460 O.co2     1 985        -0.5634
     26 H1        -22.6441  -36.4122   -6.3451 H         1 985         0.0819
     27 H2        -23.7247  -38.4464   -2.8349 H         1 985         0.0806
     28 H3        -19.6695  -33.1898   -4.8053 H         1 985         0.0576
     29 H4        -20.0635  -34.2335   -3.3973 H         1 985         0.0576
     30 H5        -20.6327  -31.6611   -3.3081 H         1 985         0.0834
     31 H6        -21.8191  -32.8586   -2.6875 H         1 985         0.0834
     32 H7        -23.1685  -32.5095   -4.4698 H         1 985         0.2031
     33 H8        -20.8348  -31.6433   -5.9177 H         1 985         0.0815
     34 H9        -22.3712  -30.7874   -6.2832 H         1 985         0.0815
     35 H10       -22.3248  -32.6250   -7.8123 H         1 985         0.0337
     36 H11       -23.4364  -33.1476   -6.5016 H         1 985         0.0337
     37 H12       -22.0180  -35.0354   -6.9912 H         1 985         0.0524
     38 H13       -20.5384  -34.0168   -6.9837 H         1 985         0.0524
     39 H14       -23.0771  -30.6670   -2.9114 H         1 985         0.0778
     40 H15       -23.5666  -30.1545   -4.5619 H         1 985         0.0778
     41 H16       -21.8792  -29.8937   -4.0039 H         1 985         0.0778
     42 H17       -22.8615  -36.6161    2.7603 H         1 985         0.0660
     43 H18       -23.1305  -38.7528    1.5404 H         1 985         0.0629
     44 H19       -22.9991  -38.8023   -0.9275 H         1 985         0.0661
     45 H20       -22.2730  -34.5890   -0.9584 H         1 985         0.0671
     46 H21       -22.8361  -34.1849    2.6558 H         1 985         0.0698
     47 H22       -21.2144  -33.1573    0.2286 H         1 985         0.0637
@<TRIPOS>BOND
     1    1    2 ar 
     2    1    6 ar 
     3   18    1 1  
     4    2    3 ar 
     5    3    4 ar 
     6    3    7 1  
     7    5    4 ar 
     8    6    5 ar 
     9    7    8 1  
    10    7   13 1  
    11    8    9 1  
    12    9   10 1  
    13   11   10 1  
    14   10   14 1  
    15   12   11 1  
    16   13   12 1  
    17   16   15 ar 
    18   15   20 ar 
    19   17   16 ar 
    20   17   18 ar 
    21   18   19 ar 
    22   19   20 ar 
    23   20   21 1  
    24   21   22 2  
    25   22   23 1  
    26   23   24 ar 
    27   23   25 ar 
    28    4   26 1  
    29    6   27 1  
    30    8   28 1  
    31    8   29 1  
    32    9   30 1  
    33    9   31 1  
    34   10   32 1  
    35   11   33 1  
    36   11   34 1  
    37   12   35 1  
    38   12   36 1  
    39   13   37 1  
    40   13   38 1  
    41   14   39 1  
    42   14   40 1  
    43   14   41 1  
    44   15   42 1  
    45   16   43 1  
    46   17   44 1  
    47   19   45 1  
    48   21   46 1  
    49   22   47 1  
@<TRIPOS>SUBSTRUCTURE
     1 985         1

