### 
### Created by X-TOOL on Mon Sep 10 21:13:03 2018
### 

@<TRIPOS>MOLECULE
2xj7_ligand
   35    36     1     0     0
SMALL
GAST_HUCK


@<TRIPOS>ATOM
      1 O1          0.3980  -32.4170   32.3570 O.2       1 GC2        -0.3974
      2 C8          1.5920  -32.5180   32.0060 C.2       1 GC2         0.1734
      3 C10         1.9700  -33.2280   30.7040 C.3       1 GC2         0.0257
      4 N2          2.6280  -31.9320   32.7010 N.am      1 GC2        -0.2764
      5 C2          2.5620  -31.1990   33.9910 C.3       1 GC2         0.1100
      6 C3          2.2750  -32.2870   35.0610 C.3       1 GC2         0.1141
      7 O4          3.4980  -32.7140   35.6260 O.3       1 GC2        -0.3865
      8 C4          1.3750  -31.7170   36.1530 C.3       1 GC2         0.1281
      9 O2          1.1720  -32.6840   37.1610 O.3       1 GC2        -0.3835
     10 C1          1.4970  -30.0730   34.0910 C.3       1 GC2        -0.0054
     11 N1          0.1340  -30.5980   34.2970 N.4       1 GC2         0.2429
     12 C5         -0.0010  -31.4410   35.5100 C.3       1 GC2         0.0349
     13 C9         -0.9490  -29.5930   34.2840 C.3       1 GC2        -0.0288
     14 C7         -1.8890  -29.9530   35.4500 C.3       1 GC2         0.0189
     15 C6         -0.9680  -30.6780   36.4390 C.3       1 GC2         0.1050
     16 O3         -0.2490  -29.7020   37.2140 O.3       1 GC2        -0.3859
     17 H1          3.0628  -33.2084   30.5796 H         1 GC2         0.0467
     18 H2          1.4951  -32.7145   29.8551 H         1 GC2         0.0467
     19 H3          1.6240  -34.2715   30.7415 H         1 GC2         0.0467
     20 H4          3.5345  -32.0099   32.2861 H         1 GC2         0.1857
     21 H5          3.5445  -30.7421   34.1803 H         1 GC2         0.0636
     22 H6          1.7725  -33.1427   34.5863 H         1 GC2         0.0646
     23 H7          3.3273  -33.3800   36.2816 H         1 GC2         0.2100
     24 H8          1.8098  -30.7992   36.5756 H         1 GC2         0.0678
     25 H9          0.6111  -32.3222   37.8370 H         1 GC2         0.2102
     26 H10         1.5126  -29.4895   33.1586 H         1 GC2         0.0838
     27 H11         1.7542  -29.4190   34.9372 H         1 GC2         0.0838
     28 H12        -0.0377  -31.2024   33.5088 H         1 GC2         0.2039
     29 H13        -0.4500  -32.4078   35.2386 H         1 GC2         0.0904
     30 H14        -1.4941  -29.6332   33.3294 H         1 GC2         0.0815
     31 H15        -0.5340  -28.5844   34.4272 H         1 GC2         0.0815
     32 H16        -2.7007  -30.6137   35.1115 H         1 GC2         0.0344
     33 H17        -2.3182  -29.0474   35.9035 H         1 GC2         0.0344
     34 H18        -1.5250  -31.3603   37.0980 H         1 GC2         0.0653
     35 H19         0.3232  -30.1463   37.8285 H         1 GC2         0.2100
@<TRIPOS>BOND
     1    1    2 2  
     2    2    3 1  
     3    2    4 am 
     4    4    5 1  
     5    5    6 1  
     6    5   10 1  
     7    6    7 1  
     8    6    8 1  
     9    8    9 1  
    10    8   12 1  
    11   10   11 1  
    12   11   12 1  
    13   11   13 1  
    14   12   15 1  
    15   13   14 1  
    16   14   15 1  
    17   15   16 1  
    18    3   17 1  
    19    3   18 1  
    20    3   19 1  
    21    4   20 1  
    22    5   21 1  
    23    6   22 1  
    24    7   23 1  
    25    8   24 1  
    26    9   25 1  
    27   10   26 1  
    28   10   27 1  
    29   11   28 1  
    30   12   29 1  
    31   13   30 1  
    32   13   31 1  
    33   14   32 1  
    34   14   33 1  
    35   15   34 1  
    36   16   35 1  
@<TRIPOS>SUBSTRUCTURE
     1 GC2         1

