### 
### Created by X-TOOL on Mon Sep 10 21:13:04 2018
### 

@<TRIPOS>MOLECULE
2xjg_ligand
   44    46     1     0     0
SMALL
GAST_HUCK


@<TRIPOS>ATOM
      1 C1         14.0990   -1.2060    8.9180 C.3       1 XJG        -0.0557
      2 C2         13.8360   -1.7880   10.3100 C.3       1 XJG        -0.0186
      3 C3         14.7110   -1.0830   11.3320 C.3       1 XJG        -0.0557
      4 C4         14.0460   -3.2980   10.3390 C.ar      1 XJG        -0.0155
      5 C5         15.1080   -3.8480    9.6140 C.ar      1 XJG        -0.0563
      6 C6         15.3360   -5.2220    9.6040 C.ar      1 XJG         0.0607
      7 C7         16.4980   -5.7500    8.8540 C.2       1 XJG         0.1956
      8 O8         17.5030   -6.0330    9.4770 O.2       1 XJG        -0.3954
      9 N9         16.4330   -5.8750    7.4860 N.am      1 XJG        -0.2557
     10 C10        17.5350   -6.4160    6.6740 C.3       1 XJG         0.0662
     11 C11        16.8640   -6.6500    5.3460 C.ar      1 XJG        -0.0168
     12 C12        17.3110   -7.3450    4.2310 C.ar      1 XJG        -0.0649
     13 C13        16.5080   -7.4380    3.1030 C.ar      1 XJG        -0.0754
     14 C14        15.2600   -6.8350    3.0890 C.ar      1 XJG        -0.0754
     15 C15        14.8130   -6.1230    4.1940 C.ar      1 XJG        -0.0649
     16 C16        15.6150   -6.0100    5.3230 C.ar      1 XJG        -0.0168
     17 C17        15.3490   -5.3330    6.6450 C.3       1 XJG         0.0662
     18 C18        14.4950   -6.0680   10.3460 C.ar      1 XJG         0.0940
     19 O19        14.6810   -7.4160   10.3600 O.3       1 XJG        -0.3346
     20 C20        13.4390   -5.5450   11.0660 C.ar      1 XJG        -0.0045
     21 C21        13.1980   -4.1890   11.0700 C.ar      1 XJG         0.0904
     22 O22        12.1650   -3.6460   11.7560 O.3       1 XJG        -0.3238
     23 C19        11.3330   -4.5470   12.5150 C.3       1 XJG         0.0589
     24 H1         13.9373   -0.1182    8.9389 H         1 XJG         0.0250
     25 H2         13.4111   -1.6650    8.1927 H         1 XJG         0.0250
     26 H3         15.1374   -1.4167    8.6227 H         1 XJG         0.0250
     27 H4         12.7848   -1.5923   10.5680 H         1 XJG         0.0414
     28 H5         14.5198   -1.5032   12.3304 H         1 XJG         0.0250
     29 H6         14.4773   -0.0081   11.3357 H         1 XJG         0.0250
     30 H7         15.7696   -1.2272   11.0701 H         1 XJG         0.0250
     31 H8         15.7643   -3.1944    9.0508 H         1 XJG         0.0550
     32 H9         17.9194   -7.3554    7.0980 H         1 XJG         0.0671
     33 H10        18.3573   -5.6910    6.5834 H         1 XJG         0.0671
     34 H11        18.2876   -7.8153    4.2412 H         1 XJG         0.0538
     35 H12        16.8568   -7.9822    2.2328 H         1 XJG         0.0541
     36 H13        14.6299   -6.9197    2.2110 H         1 XJG         0.0541
     37 H14        13.8358   -5.6541    4.1759 H         1 XJG         0.0538
     38 H15        15.4202   -4.2389    6.5560 H         1 XJG         0.0671
     39 H16        14.3600   -5.6050    7.0422 H         1 XJG         0.0671
     40 H17        14.0215   -7.8198   10.9118 H         1 XJG         0.2485
     41 H18        12.7945   -6.2072   11.6327 H         1 XJG         0.0460
     42 H19        10.5389   -3.9763   13.0187 H         1 XJG         0.0577
     43 H20        11.9453   -5.0656   13.2674 H         1 XJG         0.0577
     44 H21        10.8801   -5.2862   11.8379 H         1 XJG         0.0577
@<TRIPOS>BOND
     1    1    2 1  
     2    2    3 1  
     3    2    4 1  
     4    4    5 ar 
     5    4   21 ar 
     6    5    6 ar 
     7    6    7 1  
     8    6   18 ar 
     9    7    8 2  
    10    7    9 am 
    11    9   10 1  
    12    9   17 1  
    13   10   11 1  
    14   11   12 ar 
    15   11   16 ar 
    16   12   13 ar 
    17   13   14 ar 
    18   14   15 ar 
    19   15   16 ar 
    20   16   17 1  
    21   18   19 1  
    22   18   20 ar 
    23   20   21 ar 
    24   21   22 1  
    25   22   23 1  
    26    1   24 1  
    27    1   25 1  
    28    1   26 1  
    29    2   27 1  
    30    3   28 1  
    31    3   29 1  
    32    3   30 1  
    33    5   31 1  
    34   10   32 1  
    35   10   33 1  
    36   12   34 1  
    37   13   35 1  
    38   14   36 1  
    39   15   37 1  
    40   17   38 1  
    41   17   39 1  
    42   19   40 1  
    43   20   41 1  
    44   23   42 1  
    45   23   43 1  
    46   23   44 1  
@<TRIPOS>SUBSTRUCTURE
     1 XJG         1

