### 
### Created by X-TOOL on Mon Sep 10 21:13:03 2018
### 

@<TRIPOS>MOLECULE
2xjj_ligand
   43    46     1     0     0
SMALL
GAST_HUCK


@<TRIPOS>ATOM
      1 C1          1.6920   -1.4160   -3.0030 C.3       1 L81        -0.0945
      2 C19         1.8320    0.6310   -4.4200 C.3       1 L81        -0.0945
      3 C2          0.9010   -0.2450   -3.6030 C.3       1 L81        -0.0403
      4 C3          0.1700    0.5580   -2.5060 C.3       1 L81         0.0030
      5 C4         -0.2540   -0.7900   -4.4180 C.ar      1 L81        -0.0354
      6 C5         -0.2570   -1.4280   -5.6590 C.ar      1 L81        -0.0326
      7 C6         -1.4500   -1.9410   -6.1920 C.ar      1 L81         0.1009
      8 C7         -1.4440   -2.5990   -7.5470 C.2       1 L81         0.2087
      9 O8         -1.7630   -3.7830   -7.6510 O.2       1 L81        -0.3915
     10 N9         -1.1470   -1.8420   -8.6480 N.am      1 L81        -0.2541
     11 C10        -1.1020   -2.3880  -10.0230 C.3       1 L81         0.0663
     12 C11        -1.3730   -1.1670  -10.8570 C.ar      1 L81        -0.0168
     13 C12        -1.6260   -1.0550  -12.2170 C.ar      1 L81        -0.0649
     14 C13        -1.8390    0.1920  -12.7830 C.ar      1 L81        -0.0754
     15 C14        -1.8100    1.3300  -11.9910 C.ar      1 L81        -0.0754
     16 C15        -1.5540    1.2280  -10.6340 C.ar      1 L81        -0.0649
     17 C16        -1.3290   -0.0170  -10.0610 C.ar      1 L81        -0.0168
     18 C17        -1.0330   -0.3760   -8.6290 C.3       1 L81         0.0663
     19 C18        -2.6450   -1.8030   -5.4500 C.ar      1 L81         0.1330
     20 O19        -3.8150   -2.3140   -5.9390 O.3       1 L81        -0.3093
     21 C20        -2.6280   -1.1810   -4.1950 C.ar      1 L81         0.0225
     22 C21        -1.4320   -0.6870   -3.6900 C.ar      1 L81         0.0647
     23 N5         -1.1600   -0.0440   -2.4900 N.pl3     1 L81        -0.3131
     24 H1          2.5321   -1.0254   -2.4100 H         1 L81         0.0098
     25 H2          2.0793   -2.0506   -3.8138 H         1 L81         0.0098
     26 H3          1.0315   -2.0110   -2.3552 H         1 L81         0.0098
     27 H4          1.2639    1.4695   -4.8492 H         1 L81         0.0098
     28 H5          2.2771    0.0363   -5.2313 H         1 L81         0.0098
     29 H6          2.6300    1.0224   -3.7719 H         1 L81         0.0098
     30 H7          0.1177    1.6256   -2.7659 H         1 L81         0.0401
     31 H8          0.6684    0.4416   -1.5323 H         1 L81         0.0401
     32 H9          0.6681   -1.5281   -6.2152 H         1 L81         0.0841
     33 H10        -1.8767   -3.1542  -10.1737 H         1 L81         0.0671
     34 H11        -0.1143   -2.8155  -10.2505 H         1 L81         0.0671
     35 H12        -1.6570   -1.9436  -12.8371 H         1 L81         0.0538
     36 H13        -2.0286    0.2780  -13.8468 H         1 L81         0.0541
     37 H14        -1.9883    2.3024  -12.4356 H         1 L81         0.0541
     38 H15        -1.5292    2.1201  -10.0187 H         1 L81         0.0538
     39 H16        -0.0207   -0.0581   -8.3390 H         1 L81         0.0671
     40 H17        -1.7683    0.0727   -7.9449 H         1 L81         0.0671
     41 H18        -4.5176   -2.1380   -5.3242 H         1 L81         0.2632
     42 H19        -3.5428   -1.0857   -3.6213 H         1 L81         0.0526
     43 H20        -1.8110    0.0023   -1.6931 H         1 L81         0.1907
@<TRIPOS>BOND
     1    1    3 1  
     2    3    2 1  
     3    3    4 1  
     4    3    5 1  
     5    4   23 1  
     6    5    6 ar 
     7    5   22 ar 
     8    6    7 ar 
     9    7    8 1  
    10    7   19 ar 
    11    8    9 2  
    12    8   10 am 
    13   10   11 1  
    14   10   18 1  
    15   11   12 1  
    16   12   13 ar 
    17   12   17 ar 
    18   13   14 ar 
    19   14   15 ar 
    20   15   16 ar 
    21   16   17 ar 
    22   17   18 1  
    23   19   20 1  
    24   19   21 ar 
    25   21   22 ar 
    26   22   23 1  
    27    1   24 1  
    28    1   25 1  
    29    1   26 1  
    30    2   27 1  
    31    2   28 1  
    32    2   29 1  
    33    4   30 1  
    34    4   31 1  
    35    6   32 1  
    36   11   33 1  
    37   11   34 1  
    38   13   35 1  
    39   14   36 1  
    40   15   37 1  
    41   16   38 1  
    42   18   39 1  
    43   18   40 1  
    44   20   41 1  
    45   21   42 1  
    46   23   43 1  
@<TRIPOS>SUBSTRUCTURE
     1 L81         1

