### 
### Created by X-TOOL on Mon Sep 10 21:13:02 2018
### 

@<TRIPOS>MOLECULE
2xjx_ligand
   63    66     1     0     0
SMALL
GAST_HUCK


@<TRIPOS>ATOM
      1 C1         13.7900    0.2930   10.8000 C.3       1 XJX        -0.0557
      2 C2         13.0970   -0.4090    9.6270 C.3       1 XJX        -0.0186
      3 C3         13.5650    0.1830    8.3020 C.3       1 XJX        -0.0557
      4 C4         13.2800   -1.9250    9.7160 C.ar      1 XJX        -0.0157
      5 C5         14.3780   -2.5560    9.1330 C.ar      1 XJX        -0.0563
      6 C6         14.5930   -3.9280    9.2840 C.ar      1 XJX         0.0607
      7 C7         15.7630   -4.5690    8.6230 C.2       1 XJX         0.1955
      8 O8         16.6840   -4.9850    9.2970 O.2       1 XJX        -0.3954
      9 N9         15.7930   -4.5970    7.2830 N.am      1 XJX        -0.2568
     10 C10        16.8820   -5.2180    6.5150 C.3       1 XJX         0.0631
     11 C11        16.2660   -5.3750    5.1530 C.ar      1 XJX        -0.0235
     12 C12        16.7890   -5.9840    4.0190 C.ar      1 XJX        -0.0711
     13 C13        16.0530   -6.0150    2.8480 C.ar      1 XJX        -0.0687
     14 C14        14.7880   -5.4370    2.7930 C.ar      1 XJX        -0.0120
     15 C15        13.9870   -5.4480    1.5140 C.3       1 XJX        -0.0022
     16 N16        14.2970   -4.2660    0.6280 N.4       1 XJX         0.2536
     17 C18        14.3080   -2.9860    1.4120 C.3       1 XJX         0.0108
     18 C19        14.6380   -1.7950    0.5240 C.3       1 XJX         0.0092
     19 N20        15.9580   -2.0120   -0.1410 N.4       1 XJX         0.2405
     20 C22        16.3690   -0.8250   -0.9480 C.3       1 XJX        -0.0427
     21 C23        15.9120   -3.2530   -0.9730 C.3       1 XJX         0.0092
     22 C24        15.5990   -4.4530   -0.0930 C.3       1 XJX         0.0108
     23 C25        14.2820   -4.8340    3.9410 C.ar      1 XJX        -0.0583
     24 C26        15.0190   -4.8100    5.1120 C.ar      1 XJX        -0.0231
     25 C27        14.6670   -4.1830    6.4330 C.3       1 XJX         0.0646
     26 C28        13.7150   -4.6850   10.0390 C.ar      1 XJX         0.0940
     27 O29        13.9370   -6.0300   10.1850 O.3       1 XJX        -0.3346
     28 C30        12.6260   -4.0730   10.6590 C.ar      1 XJX        -0.0047
     29 C31        12.4170   -2.7110   10.5120 C.ar      1 XJX         0.0873
     30 O32        11.3200   -2.1630   11.1170 O.3       1 XJX        -0.3357
     31 H1         13.6448    1.3800   10.7143 H         1 XJX         0.0250
     32 H2         14.8657    0.0642   10.7805 H         1 XJX         0.0250
     33 H3         13.3568   -0.0612   11.7470 H         1 XJX         0.0250
     34 H4         12.0184   -0.2090    9.7083 H         1 XJX         0.0414
     35 H5         13.0589   -0.3311    7.4716 H         1 XJX         0.0250
     36 H6         14.6529    0.0520    8.2057 H         1 XJX         0.0250
     37 H7         13.3207    1.2551    8.2727 H         1 XJX         0.0250
     38 H8         15.0795   -1.9698    8.5504 H         1 XJX         0.0550
     39 H9         17.1630   -6.1930    6.9396 H         1 XJX         0.0658
     40 H10        17.7665   -4.5651    6.4790 H         1 XJX         0.0658
     41 H11        17.7742   -6.4350    4.0518 H         1 XJX         0.0521
     42 H12        16.4647   -6.4931    1.9665 H         1 XJX         0.0484
     43 H13        12.9169   -5.4276    1.7677 H         1 XJX         0.0966
     44 H14        14.2156   -6.3719    0.9624 H         1 XJX         0.0966
     45 H15        13.5665   -4.1998   -0.0634 H         1 XJX         0.2051
     46 H16        15.0641   -3.0598    2.2075 H         1 XJX         0.0868
     47 H17        13.3160   -2.8331    1.8620 H         1 XJX         0.0868
     48 H18        14.6834   -0.8831    1.1375 H         1 XJX         0.0868
     49 H19        13.8568   -1.6829   -0.2423 H         1 XJX         0.0868
     50 H20        16.6504   -2.1462    0.5792 H         1 XJX         0.2035
     51 H21        17.3425   -1.0222   -1.4206 H         1 XJX         0.0778
     52 H22        16.4515    0.0539   -0.2917 H         1 XJX         0.0778
     53 H23        15.6160   -0.6321   -1.7263 H         1 XJX         0.0778
     54 H24        16.8868   -3.4021   -1.4603 H         1 XJX         0.0868
     55 H25        15.1306   -3.1493   -1.7402 H         1 XJX         0.0868
     56 H26        15.5359   -5.3534   -0.7217 H         1 XJX         0.0868
     57 H27        16.4046   -4.5772    0.6456 H         1 XJX         0.0868
     58 H28        13.2990   -4.3778    3.9175 H         1 XJX         0.0480
     59 H29        14.6102   -3.0875    6.3519 H         1 XJX         0.0670
     60 H30        13.7128   -4.5723    6.8175 H         1 XJX         0.0670
     61 H31        13.2528   -6.4058   10.7264 H         1 XJX         0.2485
     62 H32        11.9417   -4.6639   11.2571 H         1 XJX         0.0460
     63 H33        11.3721   -2.3064   12.0546 H         1 XJX         0.2475
@<TRIPOS>BOND
     1    1    2 1  
     2    2    3 1  
     3    2    4 1  
     4    4    5 ar 
     5    4   29 ar 
     6    5    6 ar 
     7    6    7 1  
     8    6   26 ar 
     9    7    8 2  
    10    7    9 am 
    11    9   10 1  
    12    9   25 1  
    13   10   11 1  
    14   11   12 ar 
    15   11   24 ar 
    16   12   13 ar 
    17   13   14 ar 
    18   14   15 1  
    19   14   23 ar 
    20   15   16 1  
    21   16   17 1  
    22   16   22 1  
    23   17   18 1  
    24   18   19 1  
    25   19   20 1  
    26   19   21 1  
    27   21   22 1  
    28   23   24 ar 
    29   24   25 1  
    30   26   27 1  
    31   26   28 ar 
    32   28   29 ar 
    33   29   30 1  
    34    1   31 1  
    35    1   32 1  
    36    1   33 1  
    37    2   34 1  
    38    3   35 1  
    39    3   36 1  
    40    3   37 1  
    41    5   38 1  
    42   10   39 1  
    43   10   40 1  
    44   12   41 1  
    45   13   42 1  
    46   15   43 1  
    47   15   44 1  
    48   16   45 1  
    49   17   46 1  
    50   17   47 1  
    51   18   48 1  
    52   18   49 1  
    53   19   50 1  
    54   20   51 1  
    55   20   52 1  
    56   20   53 1  
    57   21   54 1  
    58   21   55 1  
    59   22   56 1  
    60   22   57 1  
    61   23   58 1  
    62   25   59 1  
    63   25   60 1  
    64   27   61 1  
    65   28   62 1  
    66   30   63 1  
@<TRIPOS>SUBSTRUCTURE
     1 XJX         1

