### 
### Created by X-TOOL on Mon Sep 10 21:13:02 2018
### 

@<TRIPOS>MOLECULE
2xk4_ligand
   53    55     1     0     0
SMALL
GAST_HUCK


@<TRIPOS>ATOM
      1 C01       -26.9990   19.1330  -13.1220 C.3       1 OL2        -0.0370
      2 C02       -25.9840   19.4960  -14.2050 C.3       1 OL2         0.0686
      3 O03       -25.3220   20.7150  -14.0540 O.3       1 OL2        -0.3149
      4 C04       -24.6760   21.3130  -15.1400 C.ar      1 OL2         0.1070
      5 C05       -25.3670   21.5220  -16.3410 C.ar      1 OL2        -0.0203
      6 C06       -24.7160   22.1550  -17.4050 C.ar      1 OL2        -0.0052
      7 C07       -25.3530   22.3530  -18.6160 C.ar      1 OL2         0.0969
      8 N08       -25.8770   21.3080  -19.2600 N.ar      1 OL2        -0.2795
      9 C09       -26.4430   21.4640  -20.4620 C.ar      1 OL2         0.0543
     10 C10       -27.0020   20.3530  -21.0710 C.ar      1 OL2        -0.0294
     11 C11       -26.8730   19.1100  -20.4430 C.ar      1 OL2        -0.0419
     12 C12       -27.4120   17.9640  -21.0430 C.ar      1 OL2         0.1139
     13 O13       -27.3030   16.7180  -20.4070 O.3       1 OL2        -0.3276
     14 C14       -26.7810   16.6440  -19.1090 C.3       1 OL2         0.0565
     15 C15       -28.0780   18.0640  -22.2730 C.ar      1 OL2         0.1500
     16 O16       -28.5700   16.8860  -22.8500 O.3       1 OL2        -0.3274
     17 C17       -27.6560   15.9420  -23.3580 C.3       1 OL2         0.0550
     18 C18       -28.2010   19.3160  -22.9100 C.ar      1 OL2         0.1139
     19 O19       -28.8730   19.4530  -24.1310 O.3       1 OL2        -0.3276
     20 C20       -28.3710   18.7980  -25.2570 C.3       1 OL2         0.0565
     21 C21       -27.6620   20.4580  -22.3020 C.ar      1 OL2        -0.0419
     22 C22       -26.4290   22.7150  -21.0860 C.ar      1 OL2         0.0296
     23 N23       -25.8530   23.7490  -20.4640 N.ar      1 OL2        -0.2608
     24 C24       -25.2920   23.5950  -19.2550 C.ar      1 OL2         0.1478
     25 N25       -24.6630   24.7210  -18.5950 N.pl3     1 OL2        -0.3138
     26 C26       -23.3830   22.5650  -17.2800 C.ar      1 OL2        -0.0597
     27 C27       -22.6960   22.3660  -16.0800 C.ar      1 OL2        -0.0547
     28 C28       -23.3450   21.7410  -15.0130 C.ar      1 OL2         0.0393
     29 C29       -22.5770   21.5290  -13.7150 C.2       1 OL2         0.0585
     30 O30       -23.0810   21.7940  -12.6750 O.co2     1 OL2        -0.5642
     31 O31       -21.2030   21.2720  -13.7920 O.co2     1 OL2        -0.5642
     32 H         -26.4956   19.0819  -12.1565 H         1 OL2         0.0256
     33 H         -27.7787   19.8939  -13.0869 H         1 OL2         0.0256
     34 H         -27.4442   18.1652  -13.3528 H         1 OL2         0.0256
     35 H         -26.5483   19.5720  -15.1344 H         1 OL2         0.0613
     36 H         -25.2128   18.7267  -14.1661 H         1 OL2         0.0613
     37 H         -26.4014   21.1946  -16.4451 H         1 OL2         0.0556
     38 H         -26.3537   19.0327  -19.4878 H         1 OL2         0.0439
     39 H         -25.7638   17.0356  -19.1050 H         1 OL2         0.0572
     40 H         -27.4017   17.2344  -18.4350 H         1 OL2         0.0572
     41 H         -26.7728   15.6046  -18.7808 H         1 OL2         0.0572
     42 H         -27.0580   16.4036  -24.1437 H         1 OL2         0.0570
     43 H         -27.0025   15.6020  -22.5546 H         1 OL2         0.0570
     44 H         -28.2028   15.0926  -23.7674 H         1 OL2         0.0570
     45 H         -27.3596   19.1501  -25.4598 H         1 OL2         0.0572
     46 H         -28.3531   17.7238  -25.0730 H         1 OL2         0.0572
     47 H         -29.0098   19.0105  -26.1143 H         1 OL2         0.0572
     48 H         -27.7565   21.4292  -22.7878 H         1 OL2         0.0439
     49 H         -26.8825   22.8459  -22.0685 H         1 OL2         0.0869
     50 H         -24.6458   25.6340  -19.0495 H         1 OL2         0.1808
     51 H         -24.2374   24.6007  -17.6759 H         1 OL2         0.1808
     52 H         -22.8798   23.0409  -18.1216 H         1 OL2         0.0545
     53 H         -21.6622   22.6958  -15.9774 H         1 OL2         0.0624
@<TRIPOS>BOND
     1    1    2 1  
     2    2    3 1  
     3    3    4 1  
     4    4    5 ar 
     5    4   28 ar 
     6    5    6 ar 
     7    6    7 1  
     8    6   26 ar 
     9    7    8 ar 
    10    7   24 ar 
    11    8    9 ar 
    12    9   10 1  
    13    9   22 ar 
    14   10   11 ar 
    15   10   21 ar 
    16   11   12 ar 
    17   12   13 1  
    18   12   15 ar 
    19   13   14 1  
    20   15   16 1  
    21   15   18 ar 
    22   16   17 1  
    23   18   19 1  
    24   18   21 ar 
    25   19   20 1  
    26   22   23 ar 
    27   23   24 ar 
    28   24   25 1  
    29   26   27 ar 
    30   27   28 ar 
    31   28   29 1  
    32   29   30 ar 
    33   29   31 ar 
    34    1   32 1  
    35    1   33 1  
    36    1   34 1  
    37    2   35 1  
    38    2   36 1  
    39    5   37 1  
    40   11   38 1  
    41   14   39 1  
    42   14   40 1  
    43   14   41 1  
    44   17   42 1  
    45   17   43 1  
    46   17   44 1  
    47   20   45 1  
    48   20   46 1  
    49   20   47 1  
    50   21   48 1  
    51   22   49 1  
    52   25   50 1  
    53   25   51 1  
    54   26   52 1  
    55   27   53 1  
@<TRIPOS>SUBSTRUCTURE
     1 OL2         1

