### 
### Created by X-TOOL on Mon Sep 10 21:13:02 2018
### 

@<TRIPOS>MOLECULE
2xk6_ligand
   48    51     1     0     0
SMALL
GAST_HUCK


@<TRIPOS>ATOM
      1 N01        24.7280    5.1080  -18.3040 N.pl3     1 EQH        -0.3220
      2 C02        25.3080    6.2410  -18.9590 C.ar      1 EQH         0.1350
      3 N03        25.7650    6.1030  -20.2730 N.ar      1 EQH        -0.2773
      4 C04        26.3020    7.1490  -20.9090 C.ar      1 EQH         0.0192
      5 C05        26.4130    8.4550  -20.2300 C.ar      1 EQH         0.0472
      6 C06        27.0450    9.5610  -21.0170 C.3       1 EQH         0.0551
      7 S07        26.4610   11.1080  -20.2860 S.3       1 EQH        -0.1418
      8 C08        27.1550   12.2840  -21.2510 C.3       1 EQH        -0.0035
      9 C09        28.2980   11.5590  -22.0810 C.3       1 EQH        -0.0378
     10 C10        27.8550   10.0120  -22.2790 C.3       1 EQH        -0.0146
     11 C11        28.7110    9.3720  -23.3490 C.3       1 EQH        -0.0353
     12 C12        28.6160    8.7530  -24.7610 C.3       1 EQH        -0.0495
     13 C13        29.9480    9.3340  -24.2720 C.3       1 EQH        -0.0495
     14 N14        25.9660    8.6020  -18.9260 N.ar      1 EQH        -0.2868
     15 C15        25.4150    7.5310  -18.2810 C.ar      1 EQH         0.0719
     16 C16        24.8660    7.6850  -16.8730 C.3       1 EQH         0.0103
     17 C17        25.6110    8.5470  -15.7970 C.3       1 EQH        -0.0371
     18 C18        24.8920    8.8870  -14.4670 C.3       1 EQH        -0.0364
     19 C19        23.5820    8.1160  -14.2040 C.3       1 EQH         0.0121
     20 C20        22.9590    8.1150  -12.8320 C.2       1 EQH         0.0379
     21 O21        22.5020    7.0790  -12.3660 O.co2     1 EQH        -0.5687
     22 O22        22.9120    9.2800  -12.0970 O.co2     1 EQH        -0.5687
     23 C23        22.6970    8.0600  -15.4620 C.3       1 EQH        -0.0364
     24 C24        23.3980    7.2430  -16.5630 C.3       1 EQH        -0.0371
     25 H          24.6533    4.2176  -18.7959 H         1 EQH         0.1749
     26 H          24.3895    5.1911  -17.3454 H         1 EQH         0.1749
     27 H          26.6592    7.0371  -21.9327 H         1 EQH         0.0751
     28 H          27.5613    8.6431  -21.2980 H         1 EQH         0.0593
     29 H          27.5619   13.0964  -20.6489 H         1 EQH         0.0378
     30 H          26.4158   12.7359  -21.9124 H         1 EQH         0.0378
     31 H          29.2482   11.6172  -21.5501 H         1 EQH         0.0278
     32 H          28.4303   12.0432  -23.0486 H         1 EQH         0.0278
     33 H          27.0916    9.4359  -22.8019 H         1 EQH         0.0338
     34 H          28.4809    9.3749  -22.2836 H         1 EQH         0.0305
     35 H          27.9713    8.8160  -25.6377 H         1 EQH         0.0268
     36 H          28.2467    7.8402  -25.2284 H         1 EQH         0.0268
     37 H          30.9959    9.0388  -24.2192 H         1 EQH         0.0268
     38 H          30.7203   10.0154  -24.6288 H         1 EQH         0.0268
     39 H          25.4225    6.7765  -16.6429 H         1 EQH         0.0482
     40 H          25.7762    9.5109  -16.2783 H         1 EQH         0.0293
     41 H          26.4697    7.9435  -15.5028 H         1 EQH         0.0293
     42 H          24.6256    9.9426  -14.5194 H         1 EQH         0.0287
     43 H          25.5783    8.6153  -13.6650 H         1 EQH         0.0287
     44 H          23.8922    7.0853  -14.0318 H         1 EQH         0.0466
     45 H          22.5228    9.0735  -15.8234 H         1 EQH         0.0287
     46 H          21.7482    7.5852  -15.2122 H         1 EQH         0.0287
     47 H          23.4453    6.2125  -16.2110 H         1 EQH         0.0293
     48 H          22.8239    7.3872  -17.4783 H         1 EQH         0.0293
@<TRIPOS>BOND
     1    1    2 1  
     2    2    3 ar 
     3    2   15 ar 
     4    3    4 ar 
     5    4    5 ar 
     6    5    6 1  
     7    5   14 ar 
     8    6    7 1  
     9    6   10 1  
    10    7    8 1  
    11    8    9 1  
    12    9   10 1  
    13   10   11 1  
    14   11   12 1  
    15   11   13 1  
    16   12   13 1  
    17   14   15 ar 
    18   15   16 1  
    19   16   17 1  
    20   16   24 1  
    21   17   18 1  
    22   18   19 1  
    23   19   20 1  
    24   19   23 1  
    25   20   21 ar 
    26   20   22 ar 
    27   23   24 1  
    28    1   25 1  
    29    1   26 1  
    30    4   27 1  
    31    6   28 1  
    32    8   29 1  
    33    8   30 1  
    34    9   31 1  
    35    9   32 1  
    36   10   33 1  
    37   11   34 1  
    38   12   35 1  
    39   12   36 1  
    40   13   37 1  
    41   13   38 1  
    42   16   39 1  
    43   17   40 1  
    44   17   41 1  
    45   18   42 1  
    46   18   43 1  
    47   19   44 1  
    48   23   45 1  
    49   23   46 1  
    50   24   47 1  
    51   24   48 1  
@<TRIPOS>SUBSTRUCTURE
     1 EQH         1

