### 
### Created by X-TOOL on Mon Sep 10 21:13:02 2018
### 

@<TRIPOS>MOLECULE
2xk7_ligand
   57    59     1     0     0
SMALL
GAST_HUCK


@<TRIPOS>ATOM
      1 C01       -26.5980   22.7870  -14.3120 C.3       1 30E        -0.0649
      2 C02       -25.7130   21.7020  -13.6960 C.3       1 30E        -0.0495
      3 C03       -24.7020   21.0100  -14.6250 C.3       1 30E        -0.0068
      4 C04       -25.0880   20.7770  -16.0920 C.3       1 30E         0.0339
      5 N05       -24.8130   22.0050  -16.8080 N.pl3     1 30E        -0.2909
      6 C06       -25.2160   22.2750  -18.2250 C.ar      1 30E         0.1627
      7 N07       -25.8490   21.2130  -18.9070 N.ar      1 30E        -0.2755
      8 C08       -26.3000   21.3680  -20.2200 C.ar      1 30E         0.0374
      9 C09       -26.8710   20.2430  -20.8510 C.ar      1 30E        -0.0342
     10 C10       -26.7600   18.9610  -20.1670 C.ar      1 30E        -0.0425
     11 C11       -27.3060   17.7420  -20.8060 C.ar      1 30E         0.1138
     12 O12       -27.2070   16.4790  -20.1860 O.3       1 30E        -0.3276
     13 C13       -26.6950   16.3540  -18.8890 C.3       1 30E         0.0565
     14 C14       -27.9290   17.8360  -22.1180 C.ar      1 30E         0.1498
     15 O15       -28.4060   16.6550  -22.7090 O.3       1 30E        -0.3275
     16 C16       -27.4550   15.7110  -23.1600 C.3       1 30E         0.0549
     17 C17       -28.0040   19.1100  -22.8100 C.ar      1 30E         0.1138
     18 O18       -28.5570   19.1690  -24.0980 O.3       1 30E        -0.3276
     19 C19       -28.8360   20.4020  -24.6760 C.3       1 30E         0.0565
     20 C20       -27.4660   20.3430  -22.1720 C.ar      1 30E        -0.0425
     21 C21       -26.1090   22.6100  -20.9070 C.ar      1 30E         0.0130
     22 N22       -25.4710   23.6910  -20.2100 N.ar      1 30E        -0.2770
     23 C23       -25.0340   23.5510  -18.8980 C.ar      1 30E         0.1601
     24 N24       -24.4400   24.6920  -18.2330 N.pl3     1 30E        -0.3194
     25 C25       -23.7740   22.9420  -16.3590 C.3       1 30E         0.0311
     26 C26       -22.6530   22.2170  -15.5810 C.3       1 30E        -0.0181
     27 C27       -23.2000   21.3250  -14.4400 C.3       1 30E         0.0182
     28 C28       -22.7540   21.5980  -13.0110 C.2       1 30E         0.0383
     29 O29       -23.1770   20.9200  -12.1300 O.co2     1 30E        -0.5687
     30 O30       -21.8810   22.6490  -12.7270 O.co2     1 30E        -0.5687
     31 H         -25.9699   23.5855  -14.7069 H         1 30E         0.0230
     32 H         -27.1903   22.3560  -15.1192 H         1 30E         0.0230
     33 H         -27.2622   23.1898  -13.5473 H         1 30E         0.0230
     34 H         -26.3935   20.9185  -13.3626 H         1 30E         0.0267
     35 H         -25.1186   22.2029  -12.9319 H         1 30E         0.0267
     36 H         -24.8246   20.0268  -14.1707 H         1 30E         0.0341
     37 H         -26.1424   20.5131  -16.1739 H         1 30E         0.0523
     38 H         -24.5148   19.9509  -16.5129 H         1 30E         0.0523
     39 H         -26.2781   18.8999  -19.1912 H         1 30E         0.0437
     40 H         -25.6726   16.7312  -18.8654 H         1 30E         0.0572
     41 H         -27.3120   16.9297  -18.1991 H         1 30E         0.0572
     42 H         -26.7032   15.3041  -18.5962 H         1 30E         0.0572
     43 H         -26.8183   16.1712  -23.9157 H         1 30E         0.0570
     44 H         -26.8440   15.3826  -22.3192 H         1 30E         0.0570
     45 H         -27.9721   14.8540  -23.5916 H         1 30E         0.0570
     46 H         -29.5525   20.9393  -24.0547 H         1 30E         0.0572
     47 H         -27.9160   20.9811  -24.7554 H         1 30E         0.0572
     48 H         -29.2575   20.2491  -25.6695 H         1 30E         0.0572
     49 H         -27.5177   21.3025  -22.6866 H         1 30E         0.0437
     50 H         -26.4412   22.7321  -21.9379 H         1 30E         0.0745
     51 H         -24.3481   25.5795  -18.7273 H         1 30E         0.1761
     52 H         -24.1135   24.6082  -17.2703 H         1 30E         0.1761
     53 H         -24.2342   23.6755  -15.6969 H         1 30E         0.0520
     54 H         -23.3339   23.4150  -17.2368 H         1 30E         0.0520
     55 H         -22.0103   22.9757  -15.1345 H         1 30E         0.0305
     56 H         -22.1198   21.5749  -16.2821 H         1 30E         0.0305
     57 H         -22.6510   20.3937  -14.5791 H         1 30E         0.0470
@<TRIPOS>BOND
     1    1    2 1  
     2    2    3 1  
     3    3    4 1  
     4    3   27 1  
     5    4    5 1  
     6    5    6 1  
     7    5   25 1  
     8    6    7 ar 
     9    6   23 ar 
    10    7    8 ar 
    11    8    9 1  
    12    8   21 ar 
    13    9   10 ar 
    14    9   20 ar 
    15   10   11 ar 
    16   11   12 1  
    17   11   14 ar 
    18   12   13 1  
    19   14   15 1  
    20   14   17 ar 
    21   15   16 1  
    22   17   18 1  
    23   17   20 ar 
    24   18   19 1  
    25   21   22 ar 
    26   22   23 ar 
    27   23   24 1  
    28   25   26 1  
    29   26   27 1  
    30   27   28 1  
    31   28   29 ar 
    32   28   30 ar 
    33    1   31 1  
    34    1   32 1  
    35    1   33 1  
    36    2   34 1  
    37    2   35 1  
    38    3   36 1  
    39    4   37 1  
    40    4   38 1  
    41   10   39 1  
    42   13   40 1  
    43   13   41 1  
    44   13   42 1  
    45   16   43 1  
    46   16   44 1  
    47   16   45 1  
    48   19   46 1  
    49   19   47 1  
    50   19   48 1  
    51   20   49 1  
    52   21   50 1  
    53   24   51 1  
    54   24   52 1  
    55   25   53 1  
    56   25   54 1  
    57   26   55 1  
    58   26   56 1  
    59   27   57 1  
@<TRIPOS>SUBSTRUCTURE
     1 30E         1

