### 
### Created by X-TOOL on Mon Sep 10 21:13:02 2018
### 

@<TRIPOS>MOLECULE
2xk8_ligand
   50    52     1     0     0
SMALL
GAST_HUCK


@<TRIPOS>ATOM
      1 C01        20.9640    6.7870  -14.9110 C.3       1 5R1         0.0604
      2 O02        21.6670    7.9680  -14.6830 O.3       1 5R1        -0.3178
      3 C03        22.9780    8.0880  -15.1450 C.ar      1 5R1         0.1067
      4 C04        23.2690    7.8130  -16.4910 C.ar      1 5R1        -0.0204
      5 C05        24.5810    7.9670  -16.9590 C.ar      1 5R1        -0.0052
      6 C06        24.9100    7.7140  -18.2870 C.ar      1 5R1         0.0969
      7 N07        25.5210    8.6770  -18.9870 N.ar      1 5R1        -0.2795
      8 C08        25.8850    8.4990  -20.2630 C.ar      1 5R1         0.0543
      9 C09        26.4670    9.5610  -20.9490 C.ar      1 5R1        -0.0294
     10 C10        26.4500   10.8360  -20.3490 C.ar      1 5R1        -0.0419
     11 C11        27.0100   11.9380  -21.0100 C.ar      1 5R1         0.1139
     12 O12        27.0380   13.2210  -20.4360 O.3       1 5R1        -0.3276
     13 C13        26.5090   13.4590  -19.1580 C.3       1 5R1         0.0565
     14 C14        27.5740   11.7570  -22.2780 C.ar      1 5R1         0.1500
     15 O15        28.0940   12.8700  -22.9370 O.3       1 5R1        -0.3274
     16 C16        27.1730   13.7910  -23.4670 C.3       1 5R1         0.0550
     17 C17        27.5790   10.4960  -22.8920 C.ar      1 5R1         0.1139
     18 O18        28.1300   10.3690  -24.1700 O.3       1 5R1        -0.3276
     19 C19        28.2880    9.1100  -24.7570 C.3       1 5R1         0.0565
     20 C20        27.0260    9.3880  -22.2280 C.ar      1 5R1        -0.0419
     21 C21        25.6280    7.2710  -20.8810 C.ar      1 5R1         0.0296
     22 N22        25.0350    6.2930  -20.1790 N.ar      1 5R1        -0.2608
     23 C23        24.6770    6.4740  -18.8970 C.ar      1 5R1         0.1478
     24 N24        24.0340    5.4000  -18.1700 N.pl3     1 5R1        -0.3138
     25 C25        25.5850    8.4060  -16.0830 C.ar      1 5R1        -0.0597
     26 C26        25.2930    8.6830  -14.7400 C.ar      1 5R1        -0.0547
     27 C27        23.9830    8.5230  -14.2700 C.ar      1 5R1         0.0393
     28 C28        23.6610    8.8280  -12.8040 C.2       1 5R1         0.0585
     29 O29        22.5670    8.6660  -12.3790 O.co2     1 5R1        -0.5642
     30 O30        24.6750    9.2820  -11.9520 O.co2     1 5R1        -0.5642
     31 H          20.8879    6.6124  -15.9842 H         1 5R1         0.0579
     32 H          21.4912    5.9557  -14.4429 H         1 5R1         0.0579
     33 H          19.9649    6.8721  -14.4837 H         1 5R1         0.0579
     34 H          22.4803    7.4822  -17.1668 H         1 5R1         0.0556
     35 H          25.9988   10.9660  -19.3653 H         1 5R1         0.0439
     36 H          25.4493   13.2037  -19.1515 H         1 5R1         0.0572
     37 H          27.0364   12.8453  -18.4278 H         1 5R1         0.0572
     38 H          26.6318   14.5123  -18.9057 H         1 5R1         0.0572
     39 H          26.5387   13.2891  -24.1977 H         1 5R1         0.0570
     40 H          26.5562   14.1903  -22.6619 H         1 5R1         0.0570
     41 H          27.7127   14.6051  -23.9508 H         1 5R1         0.0570
     42 H          28.9408    8.4992  -24.1335 H         1 5R1         0.0572
     43 H          27.3146    8.6280  -24.8474 H         1 5R1         0.0572
     44 H          28.7313    9.2248  -25.7461 H         1 5R1         0.0572
     45 H          27.0302    8.4050  -22.6990 H         1 5R1         0.0439
     46 H          25.9066    7.1099  -21.9224 H         1 5R1         0.0869
     47 H          23.8537    4.5083  -18.6313 H         1 5R1         0.1808
     48 H          23.7612    5.5349  -17.1965 H         1 5R1         0.1808
     49 H          26.6033    8.5331  -16.4505 H         1 5R1         0.0545
     50 H          26.0802    9.0207  -14.0659 H         1 5R1         0.0624
@<TRIPOS>BOND
     1    1    2 1  
     2    2    3 1  
     3    3    4 ar 
     4    3   27 ar 
     5    4    5 ar 
     6    5    6 1  
     7    5   25 ar 
     8    6    7 ar 
     9    6   23 ar 
    10    7    8 ar 
    11    8    9 1  
    12    8   21 ar 
    13    9   10 ar 
    14    9   20 ar 
    15   10   11 ar 
    16   11   12 1  
    17   11   14 ar 
    18   12   13 1  
    19   14   15 1  
    20   14   17 ar 
    21   15   16 1  
    22   17   18 1  
    23   17   20 ar 
    24   18   19 1  
    25   21   22 ar 
    26   22   23 ar 
    27   23   24 1  
    28   25   26 ar 
    29   26   27 ar 
    30   27   28 1  
    31   28   29 ar 
    32   28   30 ar 
    33    1   31 1  
    34    1   32 1  
    35    1   33 1  
    36    4   34 1  
    37   10   35 1  
    38   13   36 1  
    39   13   37 1  
    40   13   38 1  
    41   16   39 1  
    42   16   40 1  
    43   16   41 1  
    44   19   42 1  
    45   19   43 1  
    46   19   44 1  
    47   20   45 1  
    48   21   46 1  
    49   24   47 1  
    50   24   48 1  
    51   25   49 1  
    52   26   50 1  
@<TRIPOS>SUBSTRUCTURE
     1 5R1         1

