### 
### Created by X-TOOL on Mon Sep 10 21:13:07 2018
### 

@<TRIPOS>MOLECULE
2xk9_ligand
   47    49     1     0     0
SMALL
GAST_HUCK


@<TRIPOS>ATOM
      1 O3        -49.4250   16.0170   -3.8370 O.2       1 XK9        -0.4837
      2 N7        -48.5750   17.1210   -3.4920 N.2       1 XK9        -0.1977
      3 O2        -48.6520   17.6130   -2.1630 O.2       1 XK9        -0.4837
      4 C3        -47.7140   17.6810   -4.3580 C.ar      1 XK9         0.1573
      5 C2        -47.0550   18.8570   -3.9970 C.ar      1 XK9         0.0114
      6 C4        -47.4530   17.1090   -5.6020 C.ar      1 XK9         0.1676
      7 N1        -47.9290   16.0360   -6.2110 N.pl3     1 XK9        -0.1982
      8 C8        -47.3310   15.9560   -7.4100 C.2       1 XK9         0.2656
      9 C7        -46.5060   16.9910   -7.5980 C.2       1 XK9         0.0735
     10 C5        -46.5510   17.7210   -6.4800 C.ar      1 XK9         0.0842
     11 C6        -45.9110   18.8990   -6.1160 C.ar      1 XK9        -0.0067
     12 C1        -46.1580   19.4680   -4.8740 C.ar      1 XK9        -0.0154
     13 C9        -47.6150   14.8550   -8.4340 C.2       1 XK9         0.3950
     14 O1        -48.5070   14.0330   -8.1960 O.2       1 XK9        -0.2901
     15 N2        -46.8650   14.9010   -9.5530 N.am      1 XK9        -0.1326
     16 C10       -47.0230   14.0950  -10.6320 C.ar      1 XK9         0.2109
     17 C15       -46.2130   14.2930  -11.7600 C.ar      1 XK9         0.0645
     18 C14       -46.3710   13.5150  -12.9170 C.ar      1 XK9         0.0316
     19 C13       -47.3700   12.5220  -12.9770 C.ar      1 XK9         0.1199
     20 C12       -48.1740   12.3480  -11.8490 C.ar      1 XK9         0.0316
     21 C11       -48.0100   13.1280  -10.7020 C.ar      1 XK9         0.0645
     22 C16       -47.5440   11.7410  -14.1270 C.2       1 XK9         0.2224
     23 C17       -48.1860   10.3650  -14.0960 C.3       1 XK9         0.0361
     24 N3        -47.1370   12.2310  -15.2950 N.2       1 XK9         0.0086
     25 N4        -47.2120   11.6260  -16.3830 N.pl3     1 XK9        -0.1308
     26 C18       -46.7910   12.2450  -17.5070 C.cat     1 XK9         0.2212
     27 N6        -46.8680   11.6900  -18.7090 N.pl3     1 XK9        -0.3441
     28 N5        -46.2840   13.4570  -17.4490 N.pl3     1 XK9        -0.2081
     29 OBC       -45.8650   14.0680  -18.6050 O.3       1 XK9        -0.2821
     30 H         -47.2429   19.3027   -3.0202 H         1 XK9         0.1003
     31 H         -48.6231   15.3882   -5.8381 H         1 XK9         0.2590
     32 H         -45.9130   17.1986   -8.4887 H         1 XK9         0.1138
     33 H         -45.2149   19.3766   -6.8055 H         1 XK9         0.1037
     34 H         -45.6527   20.3894   -4.5847 H         1 XK9         0.0682
     35 H         -46.1201   15.5967   -9.5912 H         1 XK9         0.3273
     36 H         -45.4455   15.0667  -11.7373 H         1 XK9         0.0971
     37 H         -45.7178   13.6793  -13.7740 H         1 XK9         0.0981
     38 H         -48.9504   11.5831  -11.8638 H         1 XK9         0.0981
     39 H         -48.6700   12.9724   -9.8486 H         1 XK9         0.0971
     40 H         -49.0790   10.3680  -14.7210 H         1 XK9         0.0558
     41 H         -47.4787    9.6269  -14.4742 H         1 XK9         0.0558
     42 H         -48.4594   10.1160  -13.0706 H         1 XK9         0.0558
     43 H         -47.5857   10.6778  -16.4233 H         1 XK9         0.2857
     44 H         -47.2592   10.7539  -18.8144 H         1 XK9         0.1672
     45 H         -46.5360   12.1992  -19.5281 H         1 XK9         0.1672
     46 H         -46.2028   13.9387  -16.5536 H         1 XK9         0.2078
     47 H         -45.5226   14.9408  -18.3984 H         1 XK9         0.2495
@<TRIPOS>BOND
     1    1    2 2  
     2    2    3 2  
     3    2    4 1  
     4    4    5 ar 
     5    4    6 ar 
     6    5   12 ar 
     7    6    7 1  
     8    6   10 ar 
     9    7    8 1  
    10    8    9 2  
    11    8   13 1  
    12    9   10 1  
    13   10   11 ar 
    14   11   12 ar 
    15   13   14 2  
    16   13   15 am 
    17   15   16 1  
    18   16   17 ar 
    19   16   21 ar 
    20   17   18 ar 
    21   18   19 ar 
    22   19   20 ar 
    23   19   22 1  
    24   20   21 ar 
    25   22   23 1  
    26   22   24 2  
    27   24   25 1  
    28   25   26 ar 
    29   26   27 ar 
    30   26   28 ar 
    31   28   29 1  
    32    5   30 1  
    33    7   31 1  
    34    9   32 1  
    35   11   33 1  
    36   12   34 1  
    37   15   35 1  
    38   17   36 1  
    39   18   37 1  
    40   20   38 1  
    41   21   39 1  
    42   23   40 1  
    43   23   41 1  
    44   23   42 1  
    45   25   43 1  
    46   27   44 1  
    47   27   45 1  
    48   28   46 1  
    49   29   47 1  
@<TRIPOS>SUBSTRUCTURE
     1 XK9         1

