### 
### Created by X-TOOL on Mon Sep 10 21:13:03 2018
### 

@<TRIPOS>MOLECULE
2xkc_ligand
   49    51     1     0     0
SMALL
GAST_HUCK


@<TRIPOS>ATOM
      1 CAD        21.1770   -7.2750   14.5330 C.3       1 4VQ        -0.0287
      2 CAT        22.6500   -7.4280   14.9040 C.ar      1 4VQ        -0.0307
      3 CAK        23.0610   -7.2020   16.2360 C.ar      1 4VQ        -0.0479
      4 CBA        23.6170   -7.7920   13.9040 C.ar      1 4VQ         0.0118
      5 CAS        23.1850   -8.0450   12.4600 C.2       1 4VQ         0.0589
      6 OAG        23.5810   -9.0060   11.8910 O.co2     1 4VQ        -0.5629
      7 OAF        22.4820   -7.0630   11.7500 O.co2     1 4VQ        -0.5629
      8 CAI        24.9780   -7.9240   14.2600 C.ar      1 4VQ        -0.0530
      9 CAH        25.3760   -7.7070   15.5480 C.ar      1 4VQ        -0.0557
     10 CAV        24.3770   -7.3310   16.5780 C.ar      1 4VQ        -0.0032
     11 CBB        24.8230   -7.0650   18.0140 C.ar      1 4VQ         0.0978
     12 NAO        25.3660   -8.0190   18.7260 N.ar      1 4VQ        -0.2794
     13 CAU        24.6270   -5.7210   18.6060 C.ar      1 4VQ         0.1479
     14 NAE        24.0060   -4.6720   17.8220 N.pl3     1 4VQ        -0.3138
     15 NAN        25.0010   -5.4840   19.8370 N.ar      1 4VQ        -0.2608
     16 CAJ        25.5680   -6.4710   20.5740 C.ar      1 4VQ         0.0296
     17 CAX        25.7530   -7.7720   20.0020 C.ar      1 4VQ         0.0543
     18 CAW        26.4030   -8.8830   20.8220 C.ar      1 4VQ        -0.0294
     19 CAM        26.9680   -8.5950   22.0290 C.ar      1 4VQ        -0.0419
     20 CAL        26.4600  -10.2640   20.2820 C.ar      1 4VQ        -0.0419
     21 CAY        27.0560  -11.2570   21.0060 C.ar      1 4VQ         0.1139
     22 OAP        27.0880  -12.5690   20.5150 O.3       1 4VQ        -0.3276
     23 CAA        26.6840  -12.8380   19.2010 C.3       1 4VQ         0.0565
     24 CBC        27.6250  -10.9610   22.2640 C.ar      1 4VQ         0.1500
     25 OAR        28.2400  -11.9790   22.9990 O.3       1 4VQ        -0.3274
     26 CAC        29.5720  -12.3100   22.7280 C.3       1 4VQ         0.0550
     27 CAZ        27.5810   -9.6210   22.7780 C.ar      1 4VQ         0.1139
     28 OAQ        28.1370   -9.3240   24.0240 O.3       1 4VQ        -0.3276
     29 CAB        27.5360   -9.8340   25.1790 C.3       1 4VQ         0.0565
     30 H          20.5813   -7.9743   15.1197 H         1 4VQ         0.0399
     31 H          20.8546   -6.2553   14.7437 H         1 4VQ         0.0399
     32 H          21.0471   -7.4865   13.4716 H         1 4VQ         0.0399
     33 H          22.3269   -6.9242   16.9923 H         1 4VQ         0.0571
     34 H          25.7128   -8.2000   13.5037 H         1 4VQ         0.0634
     35 H          26.4267   -7.8100   15.8190 H         1 4VQ         0.0579
     36 H          23.8604   -3.7486   18.2300 H         1 4VQ         0.1808
     37 H          23.7145   -4.8572   16.8622 H         1 4VQ         0.1808
     38 H          25.8824   -6.2753   21.5992 H         1 4VQ         0.0869
     39 H          26.9460   -7.5754   22.4138 H         1 4VQ         0.0439
     40 H          26.0260  -10.4860   19.3071 H         1 4VQ         0.0439
     41 H          25.6451  -12.5344   19.0723 H         1 4VQ         0.0572
     42 H          27.3149  -12.2822   18.5073 H         1 4VQ         0.0572
     43 H          26.7788  -13.9059   19.0045 H         1 4VQ         0.0572
     44 H          29.6610  -12.6327   21.6907 H         1 4VQ         0.0570
     45 H          30.2030  -11.4368   22.8936 H         1 4VQ         0.0570
     46 H          29.8861  -13.1175   23.3893 H         1 4VQ         0.0570
     47 H          26.5109   -9.4694   25.2449 H         1 4VQ         0.0572
     48 H          27.5335  -10.9231   25.1351 H         1 4VQ         0.0572
     49 H          28.0968   -9.5056   26.0541 H         1 4VQ         0.0572
@<TRIPOS>BOND
     1    1    2 1  
     2    2    3 ar 
     3    2    4 ar 
     4    3   10 ar 
     5    4    5 1  
     6    4    8 ar 
     7    5    6 ar 
     8    5    7 ar 
     9    8    9 ar 
    10    9   10 ar 
    11   10   11 1  
    12   11   12 ar 
    13   11   13 ar 
    14   12   17 ar 
    15   13   14 1  
    16   13   15 ar 
    17   15   16 ar 
    18   16   17 ar 
    19   17   18 1  
    20   18   19 ar 
    21   18   20 ar 
    22   19   27 ar 
    23   20   21 ar 
    24   21   22 1  
    25   21   24 ar 
    26   22   23 1  
    27   24   25 1  
    28   24   27 ar 
    29   25   26 1  
    30   27   28 1  
    31   28   29 1  
    32    1   30 1  
    33    1   31 1  
    34    1   32 1  
    35    3   33 1  
    36    8   34 1  
    37    9   35 1  
    38   14   36 1  
    39   14   37 1  
    40   16   38 1  
    41   19   39 1  
    42   20   40 1  
    43   23   41 1  
    44   23   42 1  
    45   23   43 1  
    46   26   44 1  
    47   26   45 1  
    48   26   46 1  
    49   29   47 1  
    50   29   48 1  
    51   29   49 1  
@<TRIPOS>SUBSTRUCTURE
     1 4VQ         1

