### 
### Created by X-TOOL on Mon Sep 10 21:13:03 2018
### 

@<TRIPOS>MOLECULE
2xkd_ligand
   46    48     1     0     0
SMALL
GAST_HUCK


@<TRIPOS>ATOM
      1 O26        23.5060   -8.1920   11.8360 O.co2     1 T3M        -0.5606
      2 C24        22.8010   -7.4720   12.8080 C.2       1 T3M         0.0630
      3 O25        21.8210   -6.8680   12.5110 O.co2     1 T3M        -0.5606
      4 C23        23.3050   -7.4160   14.2490 C.ar      1 T3M         0.0105
      5 C22        24.6880   -7.6580   14.5310 C.ar      1 T3M        -0.0466
      6 C21        25.1660   -7.5360   15.8490 C.ar      1 T3M        -0.0489
      7 C27        22.4250   -7.0400   15.2880 C.ar      1 T3M        -0.0466
      8 C28        22.8830   -6.9150   16.5640 C.ar      1 T3M        -0.0489
      9 C20        24.3110   -7.1950   16.8560 C.ar      1 T3M         0.0036
     10 C19        24.8530   -7.0130   18.2670 C.ar      1 T3M         0.0995
     11 N14        25.4780   -8.0320   18.8880 N.ar      1 T3M        -0.2793
     12 C17        24.7490   -5.7360   18.9190 C.ar      1 T3M         0.1480
     13 N18        24.0810   -4.6270   18.2900 N.pl3     1 T3M        -0.3138
     14 N16        25.2400   -5.5590   20.1680 N.ar      1 T3M        -0.2608
     15 C15        25.8260   -6.5570   20.7740 C.ar      1 T3M         0.0296
     16 C13        25.9920   -7.8480   20.0740 C.ar      1 T3M         0.0543
     17 C12        26.6240   -9.0200   20.8010 C.ar      1 T3M        -0.0294
     18 C4         27.2230   -8.8390   22.0720 C.ar      1 T3M        -0.0419
     19 C11        26.5680  -10.2640   20.2240 C.ar      1 T3M        -0.0419
     20 C8         27.1370  -11.4280   20.9280 C.ar      1 T3M         0.1139
     21 O9         27.0890  -12.7130   20.3670 O.3       1 T3M        -0.3276
     22 C10        26.6140  -12.8850   19.0590 C.3       1 T3M         0.0565
     23 C5         27.7210  -11.2520   22.1440 C.ar      1 T3M         0.1500
     24 O6         28.2690  -12.3530   22.7990 O.3       1 T3M        -0.3274
     25 C7         27.4040  -13.2210   23.4820 C.3       1 T3M         0.0550
     26 C3         27.7760   -9.9800   22.7430 C.ar      1 T3M         0.1139
     27 O2         28.3210   -9.8480   24.0230 O.3       1 T3M        -0.3276
     28 C1         28.6130   -8.5720   24.5130 C.3       1 T3M         0.0565
     29 H1         25.3652   -7.9345   13.7310 H         1 T3M         0.0652
     30 H2         26.2136   -7.7130   16.0641 H         1 T3M         0.0635
     31 H3         21.3806   -6.8502   15.0684 H         1 T3M         0.0652
     32 H4         22.2109   -6.6138   17.3594 H         1 T3M         0.0635
     33 H5         24.0183   -3.7209   18.7757 H         1 T3M         0.1808
     34 H6         23.6656   -4.7395   17.3542 H         1 T3M         0.1808
     35 H7         26.1898   -6.4384   21.7882 H         1 T3M         0.0869
     36 H8         27.2627   -7.8568   22.5289 H         1 T3M         0.0439
     37 H9         26.1059  -10.3907   19.2516 H         1 T3M         0.0439
     38 H10        26.6501  -13.9518   18.7931 H         1 T3M         0.0572
     39 H11        27.2432  -12.3120   18.3621 H         1 T3M         0.0572
     40 H12        25.5761  -12.5263   18.9957 H         1 T3M         0.0572
     41 H13        27.9869  -14.0326   23.9419 H         1 T3M         0.0570
     42 H14        26.6777  -13.6468   22.7741 H         1 T3M         0.0570
     43 H15        26.8693  -12.6642   24.2656 H         1 T3M         0.0570
     44 H16        29.0318   -8.6555   25.5267 H         1 T3M         0.0572
     45 H17        27.6917   -7.9719   24.5453 H         1 T3M         0.0572
     46 H18        29.3453   -8.0844   23.8528 H         1 T3M         0.0572
@<TRIPOS>BOND
     1    1    2 ar 
     2    2    3 ar 
     3    2    4 1  
     4    4    5 ar 
     5    4    7 ar 
     6    5    6 ar 
     7    6    9 ar 
     8    7    8 ar 
     9    8    9 ar 
    10    9   10 1  
    11   10   11 ar 
    12   10   12 ar 
    13   11   16 ar 
    14   12   13 1  
    15   12   14 ar 
    16   14   15 ar 
    17   15   16 ar 
    18   16   17 1  
    19   17   18 ar 
    20   17   19 ar 
    21   18   26 ar 
    22   19   20 ar 
    23   20   21 1  
    24   20   23 ar 
    25   21   22 1  
    26   23   24 1  
    27   23   26 ar 
    28   24   25 1  
    29   26   27 1  
    30   27   28 1  
    31    5   29 1  
    32    6   30 1  
    33    7   31 1  
    34    8   32 1  
    35   13   33 1  
    36   13   34 1  
    37   15   35 1  
    38   18   36 1  
    39   19   37 1  
    40   22   38 1  
    41   22   39 1  
    42   22   40 1  
    43   25   41 1  
    44   25   42 1  
    45   25   43 1  
    46   28   44 1  
    47   28   45 1  
    48   28   46 1  
@<TRIPOS>SUBSTRUCTURE
     1 T3M         1

