### 
### Created by X-TOOL on Mon Sep 10 21:13:02 2018
### 

@<TRIPOS>MOLECULE
2xke_ligand
   43    45     1     0     0
SMALL
GAST_HUCK


@<TRIPOS>ATOM
      1 CAL       -22.7460    7.2100   16.4480 C.3       1 WI2         0.0311
      2 CAJ       -22.3490    6.9820   14.9860 C.3       1 WI2        -0.0184
      3 CAW       -23.0220    7.9920   14.0840 C.3       1 WI2         0.0154
      4 CAQ       -22.6180    7.7310   12.6530 C.2       1 WI2         0.0380
      5 OAD       -21.9200    6.8140   12.2270 O.co2     1 WI2        -0.5687
      6 OAC       -23.3230    8.4850   11.7790 O.co2     1 WI2        -0.5687
      7 CAK       -24.5240    7.8580   14.3220 C.3       1 WI2        -0.0184
      8 CAM       -24.9800    8.0770   15.7770 C.3       1 WI2         0.0311
      9 NAX       -24.2230    7.1490   16.6760 N.pl3     1 WI2        -0.2908
     10 CAV       -24.7210    6.8900   17.9790 C.ar      1 WI2         0.1648
     11 NAO       -25.2600    7.9270   18.6830 N.ar      1 WI2        -0.2721
     12 CAR       -24.5390    5.6140   18.6020 C.ar      1 WI2         0.1620
     13 NAB       -24.0130    4.4920   18.0000 N.pl3     1 WI2        -0.3184
     14 NAN       -24.9380    5.4430   19.9050 N.ar      1 WI2        -0.2749
     15 CAH       -25.4790    6.4770   20.5720 C.ar      1 WI2         0.0160
     16 CAU       -25.6470    7.7410   19.9690 C.ar      1 WI2         0.0468
     17 CAT       -26.2840    8.8240   20.7690 C.ar      1 WI2        -0.0158
     18 CAI       -27.0680    8.6300   21.9040 C.ar      1 WI2        -0.0248
     19 CAG       -26.0800   10.1390   20.3130 C.ar      1 WI2        -0.0639
     20 CAE       -26.6280   11.2430   20.9840 C.ar      1 WI2        -0.0692
     21 CAF       -27.4080   11.0510   22.1310 C.ar      1 WI2        -0.0325
     22 CAS       -27.6190    9.7380   22.5720 C.ar      1 WI2         0.0915
     23 OAP       -28.3320    9.4520   23.7050 O.3       1 WI2        -0.3213
     24 CAA       -29.2910   10.3970   24.1460 C.3       1 WI2         0.0593
     25 H         -22.4101    8.2082   16.7289 H         1 WI2         0.0520
     26 H         -22.2880    6.4185   17.0412 H         1 WI2         0.0520
     27 H         -22.6618    5.9811   14.6885 H         1 WI2         0.0305
     28 H         -21.2686    7.0926   14.8935 H         1 WI2         0.0305
     29 H         -22.7225    9.0176   14.2999 H         1 WI2         0.0467
     30 H         -24.7920    6.8342   14.0609 H         1 WI2         0.0305
     31 H         -25.0058    8.6311   13.7235 H         1 WI2         0.0305
     32 H         -26.0480    7.8756   15.8596 H         1 WI2         0.0520
     33 H         -24.7856    9.1088   16.0696 H         1 WI2         0.0520
     34 H         -23.9437    3.6183   18.5218 H         1 WI2         0.1767
     35 H         -23.6928    4.5350   17.0325 H         1 WI2         0.1767
     36 H         -25.7960    6.3351   21.6052 H         1 WI2         0.0760
     37 H         -27.2540    7.6216   22.2735 H         1 WI2         0.0548
     38 H         -25.4819   10.3044   19.4169 H         1 WI2         0.0536
     39 H         -26.4463   12.2513   20.6119 H         1 WI2         0.0591
     40 H         -27.8384   11.8982   22.6651 H         1 WI2         0.0548
     41 H         -28.7955   11.3450   24.3552 H         1 WI2         0.0577
     42 H         -30.0411   10.5414   23.3685 H         1 WI2         0.0577
     43 H         -29.7716   10.0290   25.0525 H         1 WI2         0.0577
@<TRIPOS>BOND
     1    1    2 1  
     2    1    9 1  
     3    2    3 1  
     4    3    4 1  
     5    3    7 1  
     6    4    5 ar 
     7    4    6 ar 
     8    7    8 1  
     9    8    9 1  
    10    9   10 1  
    11   10   11 ar 
    12   10   12 ar 
    13   11   16 ar 
    14   12   13 1  
    15   12   14 ar 
    16   14   15 ar 
    17   15   16 ar 
    18   16   17 1  
    19   17   18 ar 
    20   17   19 ar 
    21   18   22 ar 
    22   19   20 ar 
    23   20   21 ar 
    24   21   22 ar 
    25   22   23 1  
    26   23   24 1  
    27    1   25 1  
    28    1   26 1  
    29    2   27 1  
    30    2   28 1  
    31    3   29 1  
    32    7   30 1  
    33    7   31 1  
    34    8   32 1  
    35    8   33 1  
    36   13   34 1  
    37   13   35 1  
    38   15   36 1  
    39   18   37 1  
    40   19   38 1  
    41   20   39 1  
    42   21   40 1  
    43   24   41 1  
    44   24   42 1  
    45   24   43 1  
@<TRIPOS>SUBSTRUCTURE
     1 WI2         1

