### 
### Created by X-TOOL on Mon Sep 10 21:13:02 2018
### 

@<TRIPOS>MOLECULE
2xkf_ligand
   51    53     1     0     0
SMALL
GAST_HUCK


@<TRIPOS>ATOM
      1 C01       -26.1830   16.5240  -19.0830 C.3       1 BX1         0.0565
      2 O02       -27.1310   16.8110  -20.0470 O.3       1 BX1        -0.3276
      3 C03       -27.1060   18.0280  -20.7090 C.ar      1 BX1         0.1138
      4 C04       -26.5220   19.2250  -20.0550 C.ar      1 BX1        -0.0425
      5 C05       -26.5010   20.5020  -20.7520 C.ar      1 BX1        -0.0342
      6 C06       -25.9090   21.6290  -20.0950 C.ar      1 BX1         0.0374
      7 C07       -25.7730   22.8880  -20.7690 C.ar      1 BX1         0.0130
      8 N08       -25.1790   23.9730  -20.1040 N.ar      1 BX1        -0.2770
      9 C09       -24.7200   23.8280  -18.7830 C.ar      1 BX1         0.1601
     10 N10       -24.1040   24.9120  -18.1100 N.pl3     1 BX1        -0.3194
     11 C11       -24.8480   22.5650  -18.1180 C.ar      1 BX1         0.1627
     12 N12       -24.3480   22.4240  -16.7570 N.pl3     1 BX1        -0.2911
     13 C13       -25.1390   21.4770  -15.9620 C.3       1 BX1         0.0311
     14 C14       -24.4390   20.9950  -14.6900 C.3       1 BX1        -0.0184
     15 C15       -23.3340   21.8960  -14.1890 C.3       1 BX1         0.0154
     16 C16       -22.8700   21.7250  -12.7900 C.2       1 BX1         0.0380
     17 O17       -22.9460   20.6290  -12.2640 O.co2     1 BX1        -0.5687
     18 O18       -22.1310   22.7110  -12.1900 O.co2     1 BX1        -0.5687
     19 C19       -22.3340   22.3120  -15.2580 C.3       1 BX1        -0.0184
     20 C20       -22.9020   22.1940  -16.6950 C.3       1 BX1         0.0311
     21 N21       -25.4320   21.4790  -18.7720 N.ar      1 BX1        -0.2755
     22 C22       -27.0600   20.6200  -22.0960 C.ar      1 BX1        -0.0425
     23 C23       -27.6410   19.4280  -22.7410 C.ar      1 BX1         0.1138
     24 O24       -28.1730   19.5180  -24.0120 O.3       1 BX1        -0.3276
     25 C25       -28.3930   20.7590  -24.5680 C.3       1 BX1         0.0565
     26 C26       -27.6590   18.1380  -22.0380 C.ar      1 BX1         0.1498
     27 O27       -28.1950   17.0170  -22.6330 O.3       1 BX1        -0.3275
     28 C28       -27.3450   16.0110  -23.0470 C.3       1 BX1         0.0549
     29 H1        -26.3674   15.5192  -18.6751 H         1 BX1         0.0572
     30 H2        -26.2471   17.2658  -18.2733 H         1 BX1         0.0572
     31 H3        -25.1800   16.5585  -19.5333 H         1 BX1         0.0572
     32 H4        -26.1099   19.1479  -19.0553 H         1 BX1         0.0437
     33 H5        -26.1272   23.0014  -21.7872 H         1 BX1         0.0745
     34 H6        -23.7712   24.7952  -17.1423 H         1 BX1         0.1761
     35 H7        -23.9890   25.8168  -18.5885 H         1 BX1         0.1761
     36 H8        -25.3604   20.6002  -16.5882 H         1 BX1         0.0520
     37 H9        -26.0798   21.9688  -15.6738 H         1 BX1         0.0520
     38 H10       -24.0059   20.0045  -14.8932 H         1 BX1         0.0305
     39 H11       -25.1953   20.9087  -13.8960 H         1 BX1         0.0305
     40 H12       -23.8905   22.8379  -14.0744 H         1 BX1         0.0467
     41 H13       -21.4462   21.6675  -15.1777 H         1 BX1         0.0305
     42 H14       -22.0450   23.3583  -15.0799 H         1 BX1         0.0305
     43 H15       -22.4007   22.9370  -17.3327 H         1 BX1         0.0520
     44 H16       -22.6907   21.1832  -17.0740 H         1 BX1         0.0520
     45 H17       -27.0480   21.5725  -22.6133 H         1 BX1         0.0437
     46 H18       -28.8169   20.6392  -25.5759 H         1 BX1         0.0572
     47 H19       -27.4407   21.3056  -24.6334 H         1 BX1         0.0572
     48 H20       -29.0971   21.3231  -23.9388 H         1 BX1         0.0572
     49 H21       -27.9322   15.1969  -23.4969 H         1 BX1         0.0570
     50 H22       -26.7853   15.6248  -22.1824 H         1 BX1         0.0570
     51 H23       -26.6403   16.4096  -23.7916 H         1 BX1         0.0570
@<TRIPOS>BOND
     1    1    2 1  
     2    2    3 1  
     3    3    4 ar 
     4    3   26 ar 
     5    4    5 ar 
     6    5    6 1  
     7    5   22 ar 
     8    6    7 ar 
     9    6   21 ar 
    10    7    8 ar 
    11    8    9 ar 
    12    9   10 1  
    13    9   11 ar 
    14   11   12 1  
    15   11   21 ar 
    16   12   13 1  
    17   12   20 1  
    18   13   14 1  
    19   14   15 1  
    20   15   16 1  
    21   15   19 1  
    22   16   17 ar 
    23   16   18 ar 
    24   19   20 1  
    25   22   23 ar 
    26   23   24 1  
    27   23   26 ar 
    28   24   25 1  
    29   26   27 1  
    30   27   28 1  
    31    1   29 1  
    32    1   30 1  
    33    1   31 1  
    34    4   32 1  
    35    7   33 1  
    36   10   34 1  
    37   10   35 1  
    38   13   36 1  
    39   13   37 1  
    40   14   38 1  
    41   14   39 1  
    42   15   40 1  
    43   19   41 1  
    44   19   42 1  
    45   20   43 1  
    46   20   44 1  
    47   22   45 1  
    48   25   46 1  
    49   25   47 1  
    50   25   48 1  
    51   28   49 1  
    52   28   50 1  
    53   28   51 1  
@<TRIPOS>SUBSTRUCTURE
     1 BX1         1

