### 
### Created by X-TOOL on Mon Sep 10 21:13:06 2018
### 

@<TRIPOS>MOLECULE
2xm1_ligand
   29    29     1     0     0
SMALL
GAST_HUCK


@<TRIPOS>ATOM
      1 O7          5.9420  -10.4730    5.4930 O.2       1 LTM        -0.3972
      2 C7          7.1150  -10.4680    5.8320 C.2       1 LTM         0.1752
      3 C8          7.5160   -9.8270    7.1270 C.3       1 LTM         0.0258
      4 N2          8.1280  -11.0390    5.0690 N.am      1 LTM        -0.2634
      5 C2          7.7660  -11.6390    3.7530 C.3       1 LTM         0.1591
      6 C3          7.4820  -10.5630    2.7110 C.3       1 LTM         0.1231
      7 O3          8.7770  -10.1620    2.2350 O.3       1 LTM        -0.3844
      8 C4          6.6220  -11.1530    1.5870 C.3       1 LTM         0.1103
      9 O4          6.4500  -10.1830    0.5500 O.3       1 LTM        -0.3866
     10 C5          5.2830  -11.5340    2.2130 C.3       1 LTM         0.0935
     11 C6          4.2260  -11.9730    1.2050 C.3       1 LTM         0.0696
     12 O6          4.8060  -13.0800    0.4770 O.3       1 LTM        -0.3926
     13 N5          5.5380  -12.7060    3.0850 N.am      1 LTM        -0.2771
     14 C1          6.6570  -12.6630    3.8820 C.2       1 LTM         0.2047
     15 O1          6.7530  -13.5270    4.7490 O.2       1 LTM        -0.3944
     16 H1          8.6038   -9.9202    7.2609 H         1 LTM         0.0467
     17 H2          6.9999  -10.3279    7.9593 H         1 LTM         0.0467
     18 H3          7.2385   -8.7627    7.1107 H         1 LTM         0.0467
     19 H4          9.0736  -11.0469    5.3943 H         1 LTM         0.1883
     20 H5          8.6524  -12.1868    3.4005 H         1 LTM         0.0827
     21 H6          6.9581   -9.7081    3.1634 H         1 LTM         0.0669
     22 H7          8.6753   -9.4859    1.5754 H         1 LTM         0.2102
     23 H8          7.1068  -12.0478    1.1694 H         1 LTM         0.0645
     24 H9          5.9168  -10.5535   -0.1434 H         1 LTM         0.2100
     25 H10         4.8999  -10.6849    2.7981 H         1 LTM         0.0605
     26 H11         3.9862  -11.1477    0.5185 H         1 LTM         0.0581
     27 H12         3.3117  -12.2947    1.7252 H         1 LTM         0.0581
     28 H13         5.0156  -13.7810    1.0830 H         1 LTM         0.2095
     29 H14         4.9222  -13.4939    3.0928 H         1 LTM         0.1856
@<TRIPOS>BOND
     1    1    2 2  
     2    2    3 1  
     3    2    4 am 
     4    4    5 1  
     5    5    6 1  
     6    5   14 1  
     7    6    7 1  
     8    6    8 1  
     9    8    9 1  
    10    8   10 1  
    11   10   11 1  
    12   10   13 1  
    13   11   12 1  
    14   13   14 am 
    15   14   15 2  
    16    3   16 1  
    17    3   17 1  
    18    3   18 1  
    19    4   19 1  
    20    5   20 1  
    21    6   21 1  
    22    7   22 1  
    23    8   23 1  
    24    9   24 1  
    25   10   25 1  
    26   11   26 1  
    27   11   27 1  
    28   12   28 1  
    29   13   29 1  
@<TRIPOS>SUBSTRUCTURE
     1 LTM         1

