### 
### Created by X-TOOL on Mon Sep 10 21:13:06 2018
### 

@<TRIPOS>MOLECULE
2xm2_ligand
   30    30     1     0     0
SMALL
GAST_HUCK


@<TRIPOS>ATOM
      1 C2          7.9720  -11.4390    3.7290 C.3       1 LOG         0.1465
      2 C3          7.6310  -10.4130    2.6440 C.3       1 LOG         0.1218
      3 C4          6.7430  -11.0690    1.5840 C.3       1 LOG         0.1185
      4 C5          5.4150  -11.4700    2.2220 C.3       1 LOG         0.1367
      5 C6          4.3770  -11.9510    1.1940 C.3       1 LOG         0.0778
      6 C7          7.2440  -10.3550    5.8410 C.2       1 LOG         0.1754
      7 C8          7.5830   -9.7100    7.1750 C.3       1 LOG         0.0258
      8 N2          8.2890  -10.8740    5.0780 N.am      1 LOG        -0.2646
      9 O1          6.1760  -14.2900    4.9660 O.3       1 LOG        -0.2989
     10 O3          8.8850   -9.9820    2.0660 O.3       1 LOG        -0.3843
     11 O4          6.4840  -10.1060    0.5570 O.3       1 LOG        -0.3859
     12 O5          5.6660  -12.5560    3.1250 O.3       1 LOG        -0.2896
     13 O6          4.9300  -13.1380    0.5510 O.3       1 LOG        -0.3919
     14 C1          6.8870  -12.4630    3.8880 C.2       1 LOG         0.1826
     15 O7          6.0670  -10.4030    5.4490 O.2       1 LOG        -0.3972
     16 N1          7.1250  -13.3280    4.7710 N.2       1 LOG        -0.1880
     17 H1          8.8753  -11.9625    3.3827 H         1 LOG         0.0814
     18 H2          7.1040   -9.5535    3.0839 H         1 LOG         0.0671
     19 H3          7.2435  -11.9530    1.1621 H         1 LOG         0.0653
     20 H4          5.0062  -10.6087    2.7707 H         1 LOG         0.0707
     21 H5          4.1954  -11.1660    0.4451 H         1 LOG         0.0588
     22 H6          3.4326  -12.2009    1.6996 H         1 LOG         0.0588
     23 H7          6.6599   -9.3518    7.6541 H         1 LOG         0.0467
     24 H8          8.2634   -8.8616    7.0097 H         1 LOG         0.0467
     25 H9          8.0710  -10.4498    7.8266 H         1 LOG         0.0467
     26 H10         9.2274  -10.8689    5.4236 H         1 LOG         0.1887
     27 H11         6.4631  -14.8823    5.6511 H         1 LOG         0.2546
     28 H12         8.7143   -9.3522    1.3755 H         1 LOG         0.2102
     29 H13         5.9126  -10.4892   -0.0980 H         1 LOG         0.2100
     30 H14         5.0884  -13.8071    1.2065 H         1 LOG         0.2095
@<TRIPOS>BOND
     1    1    2 1  
     2    1    8 1  
     3   14    1 1  
     4    2    3 1  
     5    2   10 1  
     6    4    3 1  
     7    3   11 1  
     8    4    5 1  
     9   12    4 1  
    10    5   13 1  
    11    6    7 1  
    12    8    6 am 
    13    6   15 2  
    14   16    9 1  
    15   14   12 1  
    16   14   16 2  
    17    1   17 1  
    18    2   18 1  
    19    3   19 1  
    20    4   20 1  
    21    5   21 1  
    22    5   22 1  
    23    7   23 1  
    24    7   24 1  
    25    7   25 1  
    26    8   26 1  
    27    9   27 1  
    28   10   28 1  
    29   11   29 1  
    30   13   30 1  
@<TRIPOS>SUBSTRUCTURE
     1 LOG         1

