### 
### Created by X-TOOL on Mon Sep 10 21:13:08 2018
### 

@<TRIPOS>MOLECULE
2xm8_ligand
   42    45     1     0     0
SMALL
GAST_HUCK


@<TRIPOS>ATOM
      1 C01         7.7850  -47.6760    7.8100 C.ar      1 B4W        -0.0411
      2 C02         7.0170  -48.0850    8.8640 C.ar      1 B4W        -0.0554
      3 C03         7.6180  -48.4830   10.0610 C.ar      1 B4W        -0.0565
      4 C04         9.0750  -48.4590   10.1830 C.ar      1 B4W        -0.0419
      5 C05         9.8710  -48.0410    9.1080 C.ar      1 B4W         0.0393
      6 C06         9.2870  -47.6510    7.9350 C.ar      1 B4W         0.0525
      7 C07        10.1140  -47.2240    6.8330 C.ar      1 B4W         0.1408
      8 C08        12.0730  -47.5880    8.1100 C.ar      1 B4W         0.0930
      9 C09        13.5780  -47.5570    8.2140 C.ar      1 B4W         0.0454
     10 C10        14.2890  -48.1090    9.4020 C.ar      1 B4W         0.1065
     11 C11        15.6660  -48.0680    9.4640 C.ar      1 B4W        -0.0269
     12 C12        16.4040  -47.5150    8.4100 C.ar      1 B4W        -0.0662
     13 C13        15.7220  -46.9910    7.2700 C.ar      1 B4W        -0.0674
     14 C14        14.2890  -47.0300    7.2020 C.ar      1 B4W        -0.0540
     15 C15         9.2920  -45.8430    4.4850 C.3       1 B4W         0.0884
     16 C16         9.0750  -44.3430    4.7610 C.3       1 B4W        -0.0089
     17 C17         8.3870  -44.8640    2.5120 C.3       1 B4W        -0.0312
     18 C18         8.3030  -46.1320    3.3590 C.3       1 B4W         0.0164
     19 N19        11.2270  -48.0230    9.2360 N.ar      1 B4W        -0.2964
     20 N20        11.4960  -47.2120    6.9730 N.ar      1 B4W        -0.2550
     21 N21         9.5720  -46.7760    5.5660 N.pl3     1 B4W        -0.2846
     22 N22         8.8490  -43.7590    3.4100 N.4       1 B4W         0.2288
     23 O23        13.5760  -48.6560   10.4460 O.3       1 B4W        -0.3271
     24 H           7.3110  -47.3676    6.8782 H         1 B4W         0.0685
     25 H           5.9311  -48.1008    8.7704 H         1 B4W         0.0619
     26 H           7.0036  -48.8098   10.8999 H         1 B4W         0.0672
     27 H           9.5452  -48.7683   11.1165 H         1 B4W         0.0619
     28 H          16.1821  -48.4676   10.3369 H         1 B4W         0.0554
     29 H          17.4925  -47.4847    8.4595 H         1 B4W         0.0624
     30 H          16.2925  -46.5594    6.4476 H         1 B4W         0.0538
     31 H          13.7755  -46.6311    6.3272 H         1 B4W         0.0632
     32 H          10.3071  -46.0867    4.1713 H         1 B4W         0.0624
     33 H           9.9245  -43.8890    5.2713 H         1 B4W         0.0838
     34 H           8.2374  -44.1632    5.4350 H         1 B4W         0.0838
     35 H           7.4145  -44.6261    2.0811 H         1 B4W         0.0814
     36 H           9.0831  -45.0015    1.6845 H         1 B4W         0.0814
     37 H           7.2951  -46.3395    3.7185 H         1 B4W         0.0342
     38 H           8.5446  -47.0359    2.7998 H         1 B4W         0.0342
     39 H           9.1096  -47.6213    5.2312 H         1 B4W         0.1917
     40 H           9.7100  -43.3456    3.0521 H         1 B4W         0.2014
     41 H           8.1479  -43.0194    3.4544 H         1 B4W         0.2014
     42 H          12.6373  -48.6090   10.2503 H         1 B4W         0.2514
@<TRIPOS>BOND
     1    1    2 ar 
     2    6    1 ar 
     3    2    3 ar 
     4    4    3 ar 
     5    5    4 ar 
     6    6    5 ar 
     7    5   19 ar 
     8    7    6 ar 
     9    7   20 ar 
    10   21    7 1  
    11    8    9 1  
    12    8   19 ar 
    13   20    8 ar 
    14    9   10 ar 
    15    9   14 ar 
    16   10   11 ar 
    17   10   23 1  
    18   11   12 ar 
    19   13   12 ar 
    20   14   13 ar 
    21   15   16 1  
    22   15   18 1  
    23   15   21 1  
    24   16   22 1  
    25   18   17 1  
    26   17   22 1  
    27    1   24 1  
    28    2   25 1  
    29    3   26 1  
    30    4   27 1  
    31   11   28 1  
    32   12   29 1  
    33   13   30 1  
    34   14   31 1  
    35   15   32 1  
    36   16   33 1  
    37   16   34 1  
    38   17   35 1  
    39   17   36 1  
    40   18   37 1  
    41   18   38 1  
    42   21   39 1  
    43   22   40 1  
    44   22   41 1  
    45   23   42 1  
@<TRIPOS>SUBSTRUCTURE
     1 B4W         1

