### 
### Created by X-TOOL on Mon Sep 10 21:13:06 2018
### 

@<TRIPOS>MOLECULE
2xm9_ligand
   49    53     1     0     0
SMALL
GAST_HUCK


@<TRIPOS>ATOM
      1 C01        45.5790  -19.1560   -7.4150 C.ar      1 LWH        -0.0411
      2 C02        45.7400  -19.8170   -6.2050 C.ar      1 LWH        -0.0553
      3 C03        46.5890  -19.3150   -5.2410 C.ar      1 LWH        -0.0565
      4 C04        47.2880  -18.1440   -5.4820 C.ar      1 LWH        -0.0418
      5 C05        47.1330  -17.4730   -6.6930 C.ar      1 LWH         0.0394
      6 C06        46.2800  -17.9740   -7.6610 C.ar      1 LWH         0.0525
      7 C07        46.1220  -17.3060   -8.8620 C.ar      1 LWH         0.1408
      8 C08        47.6680  -15.6860   -8.1130 C.ar      1 LWH         0.0933
      9 N09        46.8120  -16.1650   -9.0710 N.ar      1 LWH        -0.2549
     10 N10        47.8230  -16.3410   -6.9150 N.ar      1 LWH        -0.2963
     11 C11        44.9090  -16.9580  -11.0530 C.3       1 LWH         0.0884
     12 C12        44.4110  -15.5600  -10.8190 C.3       1 LWH        -0.0089
     13 C13        43.7030  -16.3610  -12.8830 C.3       1 LWH        -0.0312
     14 C14        43.9800  -17.5610  -12.0530 C.3       1 LWH         0.0164
     15 N15        45.2450  -17.7670   -9.9000 N.pl3     1 LWH        -0.2846
     16 N16        43.4160  -15.3370  -11.8890 N.4       1 LWH         0.2288
     17 C17        48.3320  -14.3870   -8.4160 C.ar      1 LWH         0.0464
     18 C18        49.0600  -13.7380   -7.4270 C.ar      1 LWH         0.1073
     19 C19        49.5950  -12.4880   -7.7040 C.ar      1 LWH        -0.0259
     20 C20        49.3280  -11.8640   -8.9260 C.ar      1 LWH        -0.0581
     21 C21        48.5280  -12.4740   -9.8870 C.ar      1 LWH        -0.0192
     22 C22        47.9970  -13.7250   -9.6040 C.ar      1 LWH        -0.0460
     23 C23        48.2490  -11.7920  -11.1970 C.2       1 LWH         0.0299
     24 C24        48.4050  -10.4200  -11.4750 C.2       1 LWH        -0.0431
     25 C25        48.0600  -10.1980  -12.7880 C.2       1 LWH         0.0469
     26 N26        47.8180  -12.3810  -12.3630 N.2       1 LWH        -0.2178
     27 N27        47.6980  -11.4360  -13.3340 N.pl3     1 LWH        -0.2229
     28 O28        49.3090  -14.3780   -6.2320 O.3       1 LWH        -0.3265
     29 H          44.9063  -19.5592   -8.1719 H         1 LWH         0.0685
     30 H          45.1914  -20.7396   -6.0154 H         1 LWH         0.0619
     31 H          46.7095  -19.8383   -4.2924 H         1 LWH         0.0672
     32 H          47.9610  -17.7464   -4.7224 H         1 LWH         0.0619
     33 H          45.9235  -16.9127  -11.4490 H         1 LWH         0.0624
     34 H          45.2180  -14.8281  -10.8528 H         1 LWH         0.0838
     35 H          43.9765  -15.4421   -9.8263 H         1 LWH         0.0838
     36 H          42.8823  -16.5118  -13.5843 H         1 LWH         0.0814
     37 H          44.5353  -16.0962  -13.5352 H         1 LWH         0.0814
     38 H          43.0955  -18.0337  -11.6260 H         1 LWH         0.0342
     39 H          44.3892  -18.4095  -12.6013 H         1 LWH         0.0342
     40 H          44.8426  -18.7011   -9.8226 H         1 LWH         0.1917
     41 H          43.4839  -14.3978  -12.2809 H         1 LWH         0.2014
     42 H          42.4603  -15.4048  -11.5390 H         1 LWH         0.2014
     43 H          50.2254  -11.9912   -6.9665 H         1 LWH         0.0558
     44 H          49.7543  -10.8817   -9.1297 H         1 LWH         0.0628
     45 H          47.3143  -14.1956  -10.3115 H         1 LWH         0.0635
     46 H          48.7424   -9.6616  -10.7685 H         1 LWH         0.0343
     47 H          48.0670   -9.2390  -13.3061 H         1 LWH         0.0987
     48 H          47.3963  -11.6006  -14.2944 H         1 LWH         0.2576
     49 H          48.8573  -15.2251   -6.2238 H         1 LWH         0.2520
@<TRIPOS>BOND
     1    1    2 ar 
     2    6    1 ar 
     3    2    3 ar 
     4    4    3 ar 
     5    5    4 ar 
     6    6    5 ar 
     7    5   10 ar 
     8    7    6 ar 
     9    7    9 ar 
    10   15    7 1  
    11    9    8 ar 
    12    8   10 ar 
    13    8   17 1  
    14   11   12 1  
    15   11   14 1  
    16   11   15 1  
    17   12   16 1  
    18   14   13 1  
    19   13   16 1  
    20   17   18 ar 
    21   17   22 ar 
    22   18   19 ar 
    23   18   28 1  
    24   19   20 ar 
    25   20   21 ar 
    26   21   22 ar 
    27   21   23 1  
    28   23   24 1  
    29   23   26 2  
    30   24   25 2  
    31   25   27 1  
    32   26   27 1  
    33    1   29 1  
    34    2   30 1  
    35    3   31 1  
    36    4   32 1  
    37   11   33 1  
    38   12   34 1  
    39   12   35 1  
    40   13   36 1  
    41   13   37 1  
    42   14   38 1  
    43   14   39 1  
    44   15   40 1  
    45   16   41 1  
    46   16   42 1  
    47   19   43 1  
    48   20   44 1  
    49   22   45 1  
    50   24   46 1  
    51   25   47 1  
    52   27   48 1  
    53   28   49 1  
@<TRIPOS>SUBSTRUCTURE
     1 LWH         1

