### 
### Created by X-TOOL on Mon Sep 10 21:13:03 2018
### 

@<TRIPOS>MOLECULE
2xml_ligand
   13    12     1     0     0
SMALL
GAST_HUCK


@<TRIPOS>ATOM
      1 C1         49.5660   24.4520   52.1000 C.2       1 OGA         0.1433
      2 C2         51.0280   24.3650   51.7440 C.2       1 OGA         0.2452
      3 C4         52.9230   25.1880   50.5010 C.3       1 OGA         0.0841
      4 C5         53.3010   26.4540   49.7230 C.2       1 OGA         0.0572
      5 O1         49.0320   23.6760   52.9270 O.co2     1 OGA        -0.5457
      6 O2         48.9020   25.3920   51.4910 O.co2     1 OGA        -0.5457
      7 O2'        51.8030   23.4540   52.3600 O.2       1 OGA        -0.3655
      8 O3         54.3050   27.0880   50.1310 O.co2     1 OGA        -0.5669
      9 N1         51.5340   25.2170   50.8840 N.am      1 OGA        -0.2659
     10 O4         52.5650   26.7690   48.7500 O.co2     1 OGA        -0.5669
     11 H1         53.5450   25.1218   51.4058 H         1 OGA         0.0691
     12 H2         53.1036   24.3077   49.8666 H         1 OGA         0.0691
     13 H3         50.9358   25.9096   50.4809 H         1 OGA         0.1886
@<TRIPOS>BOND
     1    2    1 1  
     2    1    5 ar 
     3    1    6 ar 
     4    2    7 2  
     5    9    2 am 
     6    3    4 1  
     7    3    9 1  
     8    4    8 ar 
     9    4   10 ar 
    10    3   11 1  
    11    3   12 1  
    12    9   13 1  
@<TRIPOS>SUBSTRUCTURE
     1 OGA         1

