### 
### Created by X-TOOL on Mon Sep 10 21:13:03 2018
### 

@<TRIPOS>MOLECULE
2xmy_ligand
   50    52     1     0     0
SMALL
GAST_HUCK


@<TRIPOS>ATOM
      1 C17        29.4980   31.1520   26.4930 C.3       1 CDK         0.0050
      2 C16        28.6540   30.1220   25.7410 C.2       1 CDK         0.0878
      3 N4         29.1410   29.3670   24.7430 N.am      1 CDK        -0.1962
      4 C13        30.5450   29.4560   24.2860 C.3       1 CDK         0.0552
      5 C14        28.2630   28.5150   24.1930 C.2       1 CDK         0.2827
      6 O3         28.5090   27.7220   23.2860 O.2       1 CDK        -0.3738
      7 S1         26.7570   28.6600   24.9740 S.3       1 CDK         0.0011
      8 C15        27.3150   29.8520   26.0450 C.2       1 CDK         0.0636
      9 C          26.5150   30.4950   26.9850 C.ar      1 CDK         0.0198
     10 N          25.5090   29.8410   27.5940 N.ar      1 CDK        -0.2800
     11 C12        26.7310   31.8440   27.2430 C.ar      1 CDK        -0.0408
     12 C11        25.9060   32.4940   28.1460 C.ar      1 CDK        -0.0073
     13 N3         24.9240   31.8210   28.7180 N.ar      1 CDK        -0.2759
     14 C1         24.7120   30.5280   28.4380 C.ar      1 CDK         0.1850
     15 N1         23.7130   29.9770   29.1090 N.pl3     1 CDK        -0.2458
     16 C2         23.1060   28.8330   28.8340 C.ar      1 CDK         0.0652
     17 C9         22.1780   28.4250   29.7840 C.ar      1 CDK        -0.0363
     18 C10        21.4380   27.2680   29.6190 C.ar      1 CDK        -0.0448
     19 C3         23.2980   28.0950   27.6740 C.ar      1 CDK        -0.0363
     20 C4         22.5450   26.9330   27.4920 C.ar      1 CDK        -0.0448
     21 C5         21.6290   26.5230   28.4640 C.ar      1 CDK         0.0965
     22 S          20.6350   25.0970   28.2840 S.o2      1 CDK         0.0632
     23 O1         19.4840   25.4450   27.3850 O.2       1 CDK        -0.1518
     24 O2         20.0620   24.7470   29.6370 O.2       1 CDK        -0.1518
     25 N2         21.4760   23.8290   27.6680 N.am      1 CDK        -0.2464
     26 C6         20.6200   22.6290   27.6210 C.3       1 CDK         0.0498
     27 C7         20.7430   21.8030   28.9100 C.3       1 CDK         0.0641
     28 O          19.6010   21.9430   29.7940 O.3       1 CDK        -0.3814
     29 C8         19.2510   20.6700   30.3310 C.3       1 CDK         0.0365
     30 H1         28.8810   31.6410   27.2613 H         1 CDK         0.0473
     31 H2         29.8701   31.9079   25.7858 H         1 CDK         0.0473
     32 H3         30.3498   30.6480   26.9730 H         1 CDK         0.0473
     33 H4         31.0754   30.2172   24.8770 H         1 CDK         0.0582
     34 H5         30.5674   29.7362   23.2225 H         1 CDK         0.0582
     35 H6         31.0363   28.4808   24.4187 H         1 CDK         0.0582
     36 H7         27.5322   32.3785   26.7455 H         1 CDK         0.0544
     37 H8         26.0641   33.5406   28.3800 H         1 CDK         0.0820
     38 H9         23.3716   30.4930   29.9325 H         1 CDK         0.2174
     39 H10        22.0306   29.0263   30.6738 H         1 CDK         0.0537
     40 H11        20.7267   26.9512   30.3731 H         1 CDK         0.0607
     41 H12        24.0158   28.4133   26.9267 H         1 CDK         0.0537
     42 H13        22.6721   26.3450   26.5902 H         1 CDK         0.0607
     43 H14        22.4294   23.8650   27.3684 H         1 CDK         0.1672
     44 H15        20.9231   22.0062   26.7665 H         1 CDK         0.0498
     45 H16        19.5728   22.9409   27.4943 H         1 CDK         0.0498
     46 H17        21.6440   22.1303   29.4495 H         1 CDK         0.0576
     47 H18        20.8444   20.7424   28.6364 H         1 CDK         0.0576
     48 H19        18.3851   20.7800   31.0005 H         1 CDK         0.0523
     49 H20        20.1025   20.2639   30.8967 H         1 CDK         0.0523
     50 H21        18.9951   19.9836   29.5104 H         1 CDK         0.0523
@<TRIPOS>BOND
     1    1    2 1  
     2    2    3 1  
     3    2    8 2  
     4    3    4 1  
     5    3    5 am 
     6    5    6 2  
     7    5    7 1  
     8    7    8 1  
     9    8    9 1  
    10    9   10 ar 
    11    9   11 ar 
    12   10   14 ar 
    13   11   12 ar 
    14   12   13 ar 
    15   13   14 ar 
    16   14   15 1  
    17   15   16 1  
    18   16   17 ar 
    19   16   19 ar 
    20   17   18 ar 
    21   18   21 ar 
    22   19   20 ar 
    23   20   21 ar 
    24   21   22 1  
    25   22   23 2  
    26   22   24 2  
    27   22   25 am 
    28   25   26 1  
    29   26   27 1  
    30   27   28 1  
    31   28   29 1  
    32    1   30 1  
    33    1   31 1  
    34    1   32 1  
    35    4   33 1  
    36    4   34 1  
    37    4   35 1  
    38   11   36 1  
    39   12   37 1  
    40   15   38 1  
    41   17   39 1  
    42   18   40 1  
    43   19   41 1  
    44   20   42 1  
    45   25   43 1  
    46   26   44 1  
    47   26   45 1  
    48   27   46 1  
    49   27   47 1  
    50   29   48 1  
    51   29   49 1  
    52   29   50 1  
@<TRIPOS>SUBSTRUCTURE
     1 CDK         1

