### 
### Created by X-TOOL on Mon Sep 10 21:13:07 2018
### 

@<TRIPOS>MOLECULE
2xn3_ligand
   32    33     1     0     0
SMALL
GAST_HUCK


@<TRIPOS>ATOM
      1 O16         6.0940    9.1420   24.4630 O.co2     1 ID8        -0.5647
      2 C14         7.2800    8.8240   24.1930 C.2       1 ID8         0.0567
      3 O15         7.9380    9.4860   23.3460 O.co2     1 ID8        -0.5647
      4 C13         7.8990    7.6110   24.8790 C.ar      1 ID8         0.0314
      5 C12         7.5470    7.3300   26.2040 C.ar      1 ID8        -0.0581
      6 C11         8.0800    6.2250   26.8630 C.ar      1 ID8        -0.0706
      7 C10         8.9730    5.3730   26.2180 C.ar      1 ID8        -0.0698
      8 C9          9.3570    5.6020   24.8910 C.ar      1 ID8        -0.0363
      9 C8          8.8440    6.6860   24.1460 C.ar      1 ID8         0.0715
     10 N7          9.1490    7.0030   22.8290 N.pl3     1 ID8        -0.2770
     11 C6         10.1880    6.3630   22.2280 C.ar      1 ID8         0.0545
     12 C1         10.2050    4.8730   22.0330 C.ar      1 ID8        -0.0218
     13 C17         8.9630    4.0280   22.2160 C.3       1 ID8        -0.0366
     14 C5         11.3940    7.0550   22.0700 C.ar      1 ID8        -0.0526
     15 C4         12.5730    6.4060   21.6740 C.ar      1 ID8        -0.0853
     16 C3         12.6250    5.0290   21.4500 C.ar      1 ID8        -0.0790
     17 C2         11.4900    4.2360   21.6170 C.ar      1 ID8        -0.0542
     18 C18        11.5790    2.7520   21.3690 C.3       1 ID8        -0.0365
     19 H1          6.8517    7.9797   26.7232 H         1 ID8         0.0618
     20 H2          7.7964    6.0257   27.8901 H         1 ID8         0.0519
     21 H3          9.3768    4.5199   26.7511 H         1 ID8         0.0606
     22 H4         10.0668    4.9293   24.4234 H         1 ID8         0.0535
     23 H5          8.5997    7.7084   22.3175 H         1 ID8         0.2074
     24 H6          8.1241    4.6706   22.5216 H         1 ID8         0.0351
     25 H7          9.1461    3.2703   22.9921 H         1 ID8         0.0351
     26 H8          8.7159    3.5290   21.2674 H         1 ID8         0.0351
     27 H9         11.4179    8.1222   22.2588 H         1 ID8         0.0456
     28 H10        13.4738    6.9934   21.5374 H         1 ID8         0.0513
     29 H11        13.5582    4.5710   21.1428 H         1 ID8         0.0439
     30 H12        10.5965    2.2908   21.5478 H         1 ID8         0.0373
     31 H13        12.3209    2.3102   22.0505 H         1 ID8         0.0373
     32 H14        11.8845    2.5719   20.3278 H         1 ID8         0.0373
@<TRIPOS>BOND
     1    1    2 ar 
     2    2    3 ar 
     3    2    4 1  
     4    4    5 ar 
     5    4    9 ar 
     6    5    6 ar 
     7    6    7 ar 
     8    7    8 ar 
     9    8    9 ar 
    10    9   10 1  
    11   10   11 1  
    12   11   12 ar 
    13   11   14 ar 
    14   12   13 1  
    15   12   17 ar 
    16   14   15 ar 
    17   15   16 ar 
    18   16   17 ar 
    19   17   18 1  
    20    5   19 1  
    21    6   20 1  
    22    7   21 1  
    23    8   22 1  
    24   10   23 1  
    25   13   24 1  
    26   13   25 1  
    27   13   26 1  
    28   14   27 1  
    29   15   28 1  
    30   16   29 1  
    31   18   30 1  
    32   18   31 1  
    33   18   32 1  
@<TRIPOS>SUBSTRUCTURE
     1 ID8         1

