### 
### Created by X-TOOL on Mon Sep 10 21:13:07 2018
### 

@<TRIPOS>MOLECULE
2xn5_ligand
   31    32     1     0     0
SMALL
GAST_HUCK


@<TRIPOS>ATOM
      1 N1        -13.4550  -16.2240    8.7700 N.am      1 FUN        -0.2623
      2 S1        -12.8680  -17.1600    7.7040 S.o2      1 FUN         0.0611
      3 O1        -12.5820  -18.4340    8.3890 O.2       1 FUN        -0.1521
      4 O2        -13.8290  -17.3080    6.6020 O.2       1 FUN        -0.1521
      5 C1        -11.4940  -16.4860    7.1550 C.ar      1 FUN         0.1120
      6 C2        -11.4840  -15.4150    6.2670 C.ar      1 FUN         0.0581
      7 CL1       -12.9700  -14.6510    5.6370 Cl        1 FUN        -0.0697
      8 C3        -10.2950  -14.8550    5.8130 C.ar      1 FUN        -0.0247
      9 C4         -9.0590  -15.3520    6.2260 C.ar      1 FUN         0.0555
     10 N2         -7.8990  -14.7940    5.7840 N.pl3     1 FUN        -0.3059
     11 C5         -7.8170  -13.6250    4.9220 C.3       1 FUN         0.0880
     12 C6         -7.9260  -13.9630    3.4530 C.2       1 FUN         0.1166
     13 C7         -8.3780  -15.1480    2.8900 C.2       1 FUN        -0.0686
     14 C8         -8.3170  -15.0250    1.5160 C.2       1 FUN        -0.0808
     15 C9         -7.8310  -13.7690    1.2320 C.2       1 FUN         0.0669
     16 O3         -7.5960  -13.1220    2.4260 O.3       1 FUN        -0.2668
     17 C10        -9.0430  -16.4340    7.1210 C.ar      1 FUN         0.0294
     18 C11       -10.2560  -16.9810    7.5650 C.ar      1 FUN        -0.0321
     19 C12        -7.7600  -17.0170    7.6540 C.2       1 FUN         0.0560
     20 O4         -7.7810  -17.8170    8.6330 O.co2     1 FUN        -0.5650
     21 O5         -6.6770  -16.6440    7.1500 O.co2     1 FUN        -0.5650
     22 H1        -12.9293  -16.0126    9.5939 H         1 FUN         0.1633
     23 H2        -14.3631  -15.8258    8.6404 H         1 FUN         0.1633
     24 H3        -10.3293  -14.0173    5.1259 H         1 FUN         0.0528
     25 H4         -7.0150  -15.2311    6.0814 H         1 FUN         0.1799
     26 H5         -6.8510  -13.1285    5.0962 H         1 FUN         0.0707
     27 H6         -8.6350  -12.9381    5.1848 H         1 FUN         0.0707
     28 H7         -8.7217  -16.0243    3.4376 H         1 FUN         0.0219
     29 H8         -8.6018  -15.7841    0.7890 H         1 FUN         0.0296
     30 H9         -7.6618  -13.3583    0.2377 H         1 FUN         0.0854
     31 H10       -10.2304  -17.8192    8.2520 H         1 FUN         0.0636
@<TRIPOS>BOND
     1    1    2 am 
     2    2    3 2  
     3    2    4 2  
     4    2    5 1  
     5    5    6 ar 
     6    5   18 ar 
     7    6    7 1  
     8    6    8 ar 
     9    8    9 ar 
    10    9   10 1  
    11    9   17 ar 
    12   10   11 1  
    13   11   12 1  
    14   12   13 2  
    15   12   16 1  
    16   13   14 1  
    17   14   15 2  
    18   15   16 1  
    19   17   18 ar 
    20   17   19 1  
    21   19   20 ar 
    22   19   21 ar 
    23    1   22 1  
    24    1   23 1  
    25    8   24 1  
    26   10   25 1  
    27   11   26 1  
    28   11   27 1  
    29   13   28 1  
    30   14   29 1  
    31   15   30 1  
    32   18   31 1  
@<TRIPOS>SUBSTRUCTURE
     1 FUN         1

