### 
### Created by X-TOOL on Mon Sep 10 21:13:04 2018
### 

@<TRIPOS>MOLECULE
2xnb_ligand
   50    53     1     0     0
SMALL
GAST_HUCK


@<TRIPOS>ATOM
      1 C17        21.0300   24.0090   29.2560 C.3       1 Y8L         0.0648
      2 C18        20.8700   22.4770   29.2510 C.3       1 Y8L        -0.0139
      3 N19        21.7240   21.8210   28.2490 N.4       1 Y8L         0.2297
      4 C20        21.5470   22.5040   26.9750 C.3       1 Y8L        -0.0139
      5 C21        22.3130   23.8260   27.0370 C.3       1 Y8L         0.0648
      6 N16        21.9990   24.5490   28.2820 N.pl3     1 Y8L        -0.3045
      7 C12        22.4700   25.8690   28.4570 C.ar      1 Y8L         0.0297
      8 C13        23.3890   26.4280   27.5660 C.ar      1 Y8L        -0.0528
      9 C14        23.8190   27.7550   27.7100 C.ar      1 Y8L        -0.0489
     10 C11        22.0090   26.6430   29.5180 C.ar      1 Y8L        -0.0528
     11 C10        22.4710   27.9570   29.6610 C.ar      1 Y8L        -0.0489
     12 C9         23.3580   28.5430   28.7540 C.ar      1 Y8L         0.0527
     13 N7         23.7530   29.8120   28.9680 N.pl3     1 Y8L        -0.2529
     14 C4         24.8420   30.4290   28.4720 C.ar      1 Y8L         0.1821
     15 N5         25.7860   29.8320   27.7130 N.ar      1 Y8L        -0.2810
     16 N3         24.9300   31.7550   28.6910 N.ar      1 Y8L        -0.2768
     17 C2         25.9450   32.4780   28.2440 C.ar      1 Y8L        -0.0078
     18 C1         26.9460   31.8720   27.5050 C.ar      1 Y8L        -0.0412
     19 C6         26.8650   30.5010   27.2580 C.ar      1 Y8L         0.0192
     20 C15        27.8370   29.8970   26.4430 C.2       1 Y8L         0.0635
     21 S23        29.2070   30.6630   25.7370 S.3       1 Y8L         0.0011
     22 C24        29.6770   29.2860   24.8710 C.2       1 Y8L         0.2827
     23 O28        30.6760   29.1880   24.1620 O.2       1 Y8L        -0.3738
     24 N25        28.8420   28.2790   25.1390 N.am      1 Y8L        -0.1962
     25 C29        29.0250   26.9260   24.5410 C.3       1 Y8L         0.0552
     26 C26        27.8370   28.5720   25.9750 C.2       1 Y8L         0.0878
     27 C27        26.8040   27.5160   26.3780 C.3       1 Y8L         0.0050
     28 H1         21.3554   24.3127   30.2619 H         1 Y8L         0.0562
     29 H2         20.0475   24.4533   29.0387 H         1 Y8L         0.0562
     30 H3         19.8199   22.2334   29.0322 H         1 Y8L         0.0833
     31 H4         21.1360   22.0920   30.2465 H         1 Y8L         0.0833
     32 H5         21.4578   20.8532   28.1561 H         1 Y8L         0.2015
     33 H6         22.6890   21.8781   28.5345 H         1 Y8L         0.2015
     34 H7         20.4785   22.6995   26.8016 H         1 Y8L         0.0833
     35 H8         21.9429   21.8811   26.1594 H         1 Y8L         0.0833
     36 H9         22.0295   24.4489   26.1759 H         1 Y8L         0.0562
     37 H10        23.3930   23.6202   27.0010 H         1 Y8L         0.0562
     38 H11        23.7757   25.8270   26.7509 H         1 Y8L         0.0490
     39 H12        24.5209   28.1703   26.9959 H         1 Y8L         0.0507
     40 H13        21.2991   26.2324   30.2269 H         1 Y8L         0.0490
     41 H14        22.1278   28.5416   30.5069 H         1 Y8L         0.0507
     42 H15        23.1513   30.3775   29.5837 H         1 Y8L         0.2141
     43 H16        25.9918   33.5401   28.4559 H         1 Y8L         0.0819
     44 H17        27.7787   32.4524   27.1246 H         1 Y8L         0.0541
     45 H18        29.9132   26.9291   23.8920 H         1 Y8L         0.0582
     46 H19        28.1373   26.6648   23.9463 H         1 Y8L         0.0582
     47 H20        29.1597   26.1856   25.3433 H         1 Y8L         0.0582
     48 H21        26.0715   27.9634   27.0659 H         1 Y8L         0.0473
     49 H22        27.3120   26.6780   26.8777 H         1 Y8L         0.0473
     50 H23        26.2863   27.1480   25.4799 H         1 Y8L         0.0473
@<TRIPOS>BOND
     1    1    2 1  
     2    1    6 1  
     3    2    3 1  
     4    3    4 1  
     5    4    5 1  
     6    5    6 1  
     7    6    7 1  
     8    7    8 ar 
     9    7   10 ar 
    10    8    9 ar 
    11    9   12 ar 
    12   10   11 ar 
    13   11   12 ar 
    14   12   13 1  
    15   13   14 1  
    16   14   15 ar 
    17   14   16 ar 
    18   15   19 ar 
    19   16   17 ar 
    20   17   18 ar 
    21   18   19 ar 
    22   19   20 1  
    23   20   21 1  
    24   20   26 2  
    25   21   22 1  
    26   22   23 2  
    27   22   24 am 
    28   24   25 1  
    29   24   26 1  
    30   26   27 1  
    31    1   28 1  
    32    1   29 1  
    33    2   30 1  
    34    2   31 1  
    35    3   32 1  
    36    3   33 1  
    37    4   34 1  
    38    4   35 1  
    39    5   36 1  
    40    5   37 1  
    41    8   38 1  
    42    9   39 1  
    43   10   40 1  
    44   11   41 1  
    45   13   42 1  
    46   17   43 1  
    47   18   44 1  
    48   25   45 1  
    49   25   46 1  
    50   25   47 1  
    51   27   48 1  
    52   27   49 1  
    53   27   50 1  
@<TRIPOS>SUBSTRUCTURE
     1 Y8L         1

