### 
### Created by X-TOOL on Mon Sep 10 21:13:04 2018
### 

@<TRIPOS>MOLECULE
2xne_ligand
   48    52     1     0     0
SMALL
GAST_HUCK


@<TRIPOS>ATOM
      1 C10         6.0880  -30.9570   -2.5480 C.ar      1 ASH        -0.0381
      2 C11         6.6080  -30.4400   -1.3530 C.ar      1 ASH        -0.0368
      3 C12         6.9630  -29.0960   -1.2910 C.ar      1 ASH         0.0081
      4 C14         6.2920  -28.8370   -3.5140 C.ar      1 ASH         0.0157
      5 C16         3.8860  -32.4750   -6.0780 C.2       1 ASH         0.1839
      6 C19         2.6310  -34.1340   -3.3450 C.ar      1 ASH        -0.0491
      7 C21         1.0760  -35.8370   -2.3840 C.ar      1 ASH         0.0294
      8 C24         0.1090  -36.9190    1.2670 C.3       1 ASH         0.0670
      9 CL          6.2100  -29.0380   -9.1590 Cl        1 ASH        -0.0479
     10 C02         5.2810  -30.3220   -8.6790 C.2       1 ASH         0.1582
     11 C03         4.5280  -31.1900   -9.4730 C.2       1 ASH        -0.0052
     12 N04         3.8800  -32.1360   -8.6910 N.2       1 ASH        -0.3218
     13 C05         4.2200  -31.8700   -7.3930 C.2       1 ASH         0.2039
     14 N06         5.1030  -30.7300   -7.3570 N.pl3     1 ASH        -0.1910
     15 C07         5.6490  -30.1800   -6.1920 C.2       1 ASH         0.0920
     16 C08         5.3050  -30.7720   -4.9950 C.2       1 ASH         0.0633
     17 C09         5.9010  -30.1840   -3.7110 C.ar      1 ASH         0.0132
     18 N13         6.8030  -28.3020   -2.3750 N.ar      1 ASH        -0.2995
     19 N15         4.4380  -31.9060   -4.9910 N.2       1 ASH        -0.2866
     20 N17         2.9920  -33.6530   -5.8730 N.pl3     1 ASH        -0.2564
     21 C18         2.3640  -34.3630   -4.7090 C.ar      1 ASH         0.0518
     22 C20         2.0330  -34.8160   -2.2590 C.ar      1 ASH        -0.0529
     23 N22         0.4750  -36.5210   -1.2550 N.pl3     1 ASH        -0.3103
     24 C23         0.6930  -36.0180    0.1270 C.3       1 ASH         0.0482
     25 O25        -0.1120  -38.2210    0.8280 O.3       1 ASH        -0.3759
     26 C26        -1.1050  -38.2360   -0.1520 C.3       1 ASH         0.0670
     27 C27        -0.7970  -37.2820   -1.3580 C.3       1 ASH         0.0482
     28 C28         0.7850  -36.0890   -3.7530 C.ar      1 ASH        -0.0529
     29 C29         1.3830  -35.4040   -4.8340 C.ar      1 ASH        -0.0491
     30 H           5.8142  -32.0116   -2.5789 H         1 ASH         0.0718
     31 H           6.7328  -31.0837   -0.4823 H         1 ASH         0.0700
     32 H           7.3703  -28.6824   -0.3684 H         1 ASH         0.0797
     33 H           6.1707  -28.1622   -4.3613 H         1 ASH         0.0809
     34 H           3.3632  -33.3631   -3.1048 H         1 ASH         0.0506
     35 H          -0.8438  -36.4966    1.5860 H         1 ASH         0.0579
     36 H           0.8284  -36.9488    2.0853 H         1 ASH         0.0579
     37 H           4.4587  -31.1323  -10.5593 H         1 ASH         0.0527
     38 H           6.3178  -29.3201   -6.2290 H         1 ASH         0.1121
     39 H           2.7414  -34.0918   -6.7590 H         1 ASH         0.2130
     40 H           2.3368  -34.5284   -1.2525 H         1 ASH         0.0490
     41 H           1.7717  -35.9818    0.2794 H         1 ASH         0.0532
     42 H           0.1806  -35.0583    0.1943 H         1 ASH         0.0532
     43 H          -2.0311  -37.8950    0.3108 H         1 ASH         0.0579
     44 H          -1.1687  -39.2518   -0.5422 H         1 ASH         0.0579
     45 H          -0.7128  -37.9134   -2.2425 H         1 ASH         0.0532
     46 H          -1.6003  -36.5458   -1.3873 H         1 ASH         0.0532
     47 H           0.0519  -36.8620   -3.9835 H         1 ASH         0.0490
     48 H           1.0760  -35.6876   -5.8407 H         1 ASH         0.0506
@<TRIPOS>BOND
     1    1    2 ar 
     2   17    1 ar 
     3    2    3 ar 
     4   18    3 ar 
     5   17    4 ar 
     6    4   18 ar 
     7    5   13 1  
     8    5   19 2  
     9   20    5 1  
    10    6   21 ar 
    11   22    6 ar 
    12    7   22 ar 
    13   23    7 1  
    14    7   28 ar 
    15   24    8 1  
    16    8   25 1  
    17   10    9 1  
    18   10   11 2  
    19   14   10 1  
    20   12   11 1  
    21   13   12 2  
    22   13   14 1  
    23   14   15 1  
    24   16   15 2  
    25   16   17 1  
    26   19   16 1  
    27   21   20 1  
    28   21   29 ar 
    29   23   24 1  
    30   23   27 1  
    31   25   26 1  
    32   26   27 1  
    33   28   29 ar 
    34    1   30 1  
    35    2   31 1  
    36    3   32 1  
    37    4   33 1  
    38    6   34 1  
    39    8   35 1  
    40    8   36 1  
    41   11   37 1  
    42   15   38 1  
    43   20   39 1  
    44   22   40 1  
    45   24   41 1  
    46   24   42 1  
    47   26   43 1  
    48   26   44 1  
    49   27   45 1  
    50   27   46 1  
    51   28   47 1  
    52   29   48 1  
@<TRIPOS>SUBSTRUCTURE
     1 ASH         1

