### 
### Created by X-TOOL on Mon Sep 10 21:13:06 2018
### 

@<TRIPOS>MOLECULE
2xnn_ligand
   46    49     1     0     0
SMALL
GAST_HUCK


@<TRIPOS>ATOM
      1 C01        26.5820   11.8200  -13.2530 C.3       1 430        -0.0191
      2 C02        26.0150   11.0440  -14.4250 C.3       1 430         0.1252
      3 O03        25.0730   10.0350  -14.0540 O.3       1 430        -0.3066
      4 C04        24.6430    9.1050  -15.0070 C.2       1 430         0.0894
      5 C05        25.4920    8.7220  -16.4120 C.2       1 430        -0.0002
      6 C06        24.7120    7.6870  -17.1750 C.2       1 430         0.1604
      7 N07        25.0620    7.2130  -18.4210 N.pl3     1 430        -0.1750
      8 C08        24.7700    5.9620  -18.9550 C.2       1 430         0.1265
      9 N09        25.2160    5.9600  -20.3000 N.2       1 430        -0.3009
     10 C10        25.7280    7.2250  -20.5970 C.ar      1 430         0.0389
     11 C11        26.3160    7.8010  -21.8040 C.ar      1 430        -0.0598
     12 C12        26.7670    9.1950  -21.8360 C.ar      1 430        -0.0750
     13 C13        26.6360    9.9690  -20.7120 C.ar      1 430        -0.0730
     14 C14        26.0350    9.3780  -19.4810 C.ar      1 430        -0.0348
     15 C15        25.5900    8.0200  -19.4540 C.ar      1 430         0.1070
     16 S16        23.3110    7.3580  -16.3200 S.3       1 430        -0.0068
     17 C17        23.3430    8.2520  -14.9890 C.2       1 430         0.1054
     18 C18        22.2600    8.2880  -13.9290 C.2       1 430         0.1771
     19 N19        22.2150    7.3320  -12.8470 N.am      1 430        -0.3081
     20 O20        21.4750    9.2050  -13.9240 O.2       1 430        -0.4118
     21 C21        25.6160   11.9190  -15.5990 C.ar      1 430         0.0240
     22 C22        24.2970   12.4350  -15.6870 C.ar      1 430        -0.0264
     23 C23        23.8770   13.3040  -16.8750 C.ar      1 430        -0.0405
     24 C24        24.7840   13.5950  -17.8940 C.ar      1 430        -0.0392
     25 C25        26.2310   13.0280  -17.7980 C.ar      1 430        -0.0379
     26 C26        26.6200   12.2410  -16.7200 C.ar      1 430         0.0518
     27 C27        28.0640   11.7480  -16.6620 C.3       1 430         0.3706
     28 F28        28.7860   12.4170  -17.5500 F         1 430        -0.2263
     29 F29        28.0890   10.4290  -16.9470 F         1 430        -0.2263
     30 F30        28.5840   11.9530  -15.4520 F         1 430        -0.2263
     31 H          27.2945   12.5725  -13.6218 H         1 430         0.0290
     32 H          27.0990   11.1287  -12.5712 H         1 430         0.0290
     33 H          25.7641   12.3220  -12.7154 H         1 430         0.0290
     34 H          26.8729   10.4708  -14.8063 H         1 430         0.0890
     35 H          26.4452    9.1519  -16.7161 H         1 430         0.0331
     36 H          24.2873    5.1359  -18.4349 H         1 430         0.1375
     37 H          26.4205    7.1868  -22.6911 H         1 430         0.0561
     38 H          27.1997    9.6099  -22.7391 H         1 430         0.0530
     39 H          26.9662   11.0015  -20.7177 H         1 430         0.0548
     40 H          25.9340    9.9892  -18.5915 H         1 430         0.0563
     41 H          21.4865    7.3839  -12.1639 H         1 430         0.1785
     42 H          22.9124    6.6183  -12.7810 H         1 430         0.1785
     43 H          23.5800   12.2116  -14.9053 H         1 430         0.0637
     44 H          22.8676   13.6960  -16.9248 H         1 430         0.0834
     45 H          24.4864   14.2057  -18.7387 H         1 430         0.0648
     46 H          26.9451   13.2500  -18.5827 H         1 430         0.0820
@<TRIPOS>BOND
     1    1    2 1  
     2    2    3 1  
     3    2   21 1  
     4    3    4 1  
     5    4    5 1  
     6    4   17 2  
     7    5    6 2  
     8    6    7 1  
     9    6   16 1  
    10    7    8 1  
    11    7   15 1  
    12    8    9 2  
    13    9   10 1  
    14   10   11 ar 
    15   10   15 ar 
    16   11   12 ar 
    17   12   13 ar 
    18   13   14 ar 
    19   14   15 ar 
    20   16   17 1  
    21   17   18 1  
    22   18   19 am 
    23   18   20 2  
    24   21   22 ar 
    25   21   26 ar 
    26   22   23 ar 
    27   23   24 ar 
    28   24   25 ar 
    29   25   26 ar 
    30   26   27 1  
    31   27   28 1  
    32   27   29 1  
    33   27   30 1  
    34    1   31 1  
    35    1   32 1  
    36    1   33 1  
    37    2   34 1  
    38    5   35 1  
    39    8   36 1  
    40   11   37 1  
    41   12   38 1  
    42   13   39 1  
    43   14   40 1  
    44   19   41 1  
    45   19   42 1  
    46   22   43 1  
    47   23   44 1  
    48   24   45 1  
    49   25   46 1  
@<TRIPOS>SUBSTRUCTURE
     1 430         1

