### 
### Created by X-TOOL on Mon Sep 10 21:13:07 2018
### 

@<TRIPOS>MOLECULE
2xo8_ligand
   21    22     1     0     0
SMALL
GAST_HUCK


@<TRIPOS>ATOM
      1 CH         66.8890   48.1560  -49.9410 C.ar      1 H70         0.0687
      2 CG         67.4570   47.3830  -47.6330 C.ar      1 H70         0.0353
      3 CD1        68.4000   47.0320  -46.5790 C.2       1 H70         0.0702
      4 CD2        66.0720   47.2670  -47.3460 C.ar      1 H70        -0.0472
      5 CE2        65.1070   47.5820  -48.3120 C.ar      1 H70         0.0284
      6 CR         67.8900   47.8320  -48.9380 C.ar      1 H70         0.1139
      7 O          69.2220   47.9650  -49.2820 O.3       1 H70        -0.3295
      8 C3         65.4980   48.0290  -49.6200 C.ar      1 H70        -0.0438
      9 C7         69.0620   46.4840  -44.4840 C.2       1 H70         0.1017
     10 C8         70.2240   46.5150  -45.2920 C.2       1 H70         0.0109
     11 C9         69.8020   46.8640  -46.6350 C.2       1 H70         0.0092
     12 N11        67.9790   46.7980  -45.2750 N.pl3     1 H70        -0.2777
     13 BR1        70.8890   47.0480  -48.1220 Br        1 H70        -0.0807
     14 BR2        71.9260   46.1720  -44.7200 Br        1 H70        -0.0771
     15 CL1        63.4730   47.4120  -47.8910 Cl        1 H70        -0.0810
     16 BR3        68.9130   46.1000  -42.6780 Br        1 H70        -0.0249
     17 CL2        67.3210   48.6850  -51.4950 Cl        1 H70        -0.0794
     18 H1         65.7561   46.9299  -46.3654 H         1 H70         0.0587
     19 H2         69.2872   48.2709  -50.1791 H         1 H70         0.2504
     20 H3         64.7442   48.2692  -50.3611 H         1 H70         0.0590
     21 H4         67.0034   46.8514  -44.9491 H         1 H70         0.2347
@<TRIPOS>BOND
     1    6    1 ar 
     2    1    8 ar 
     3    1   17 1  
     4    3    2 1  
     5    2    4 ar 
     6    2    6 ar 
     7    3   11 2  
     8   12    3 1  
     9    4    5 ar 
    10    5    8 ar 
    11    5   15 1  
    12    6    7 1  
    13    9   10 2  
    14   12    9 1  
    15    9   16 1  
    16   11   10 1  
    17   10   14 1  
    18   11   13 1  
    19    4   18 1  
    20    7   19 1  
    21    8   20 1  
    22   12   21 1  
@<TRIPOS>SUBSTRUCTURE
     1 H70         1

