### 
### Created by X-TOOL on Mon Sep 10 21:13:07 2018
### 

@<TRIPOS>MOLECULE
2xog_ligand
   66    70     1     0     0
SMALL
GAST_HUCK


@<TRIPOS>ATOM
      1 N1A        35.4910    6.8770   22.3960 N.ar      1 SFB        -0.2698
      2 C1B        39.0070    6.6920   18.6440 C.3       1 SFB         0.2011
      3 C1C        37.6050    0.4220   11.9550 C.3       1 SFB         0.2036
      4 N1D        36.7840   -0.8110   12.2110 N.am      1 SFB        -0.1593
      5 C1S        39.2210    2.9020   14.3580 C.3       1 SFB         0.0923
      6 O1S        41.6890    2.3800   14.9430 O.2       1 SFB        -0.1554
      7 C2A        35.8810    7.8370   21.5430 C.ar      1 SFB         0.0533
      8 C2B        40.4810    6.8950   18.9770 C.3       1 SFB         0.1386
      9 O2B        40.6700    8.1940   19.5500 O.3       1 SFB        -0.3836
     10 C2C        37.5240    1.1850   13.2680 C.3       1 SFB         0.1173
     11 O2C        36.5730    2.2510   13.1540 O.3       1 SFB        -0.3859
     12 C2D        35.6360   -0.8080   11.3160 C.2       1 SFB         0.3328
     13 O2D        35.3180    0.1090   10.5540 O.2       1 SFB        -0.3815
     14 O2S        40.0440    1.5740   16.4080 O.2       1 SFB        -0.1554
     15 N3A        36.8240    7.5980   20.6160 N.ar      1 SFB        -0.2714
     16 C3B        41.2140    6.7730   17.6560 C.3       1 SFB         0.1165
     17 O3B        41.8830    7.9970   17.3420 O.3       1 SFB        -0.3863
     18 C3C        38.9560    1.6450   13.5510 C.3       1 SFB         0.0398
     19 N3D        34.8720   -2.0040   11.3950 N.am      1 SFB        -0.1865
     20 N3S        40.5430    4.0130   16.3730 N.am      1 SFB        -0.2219
     21 C4A        37.4020    6.3730   20.5190 C.ar      1 SFB         0.1613
     22 C4B        40.1450    6.4620   16.6100 C.3       1 SFB         0.1339
     23 O4B        38.9500    6.1190   17.3360 O.3       1 SFB        -0.3348
     24 C4C        39.8080    1.1820   12.3700 C.3       1 SFB         0.0921
     25 O4C        38.9970    0.2510   11.6430 O.3       1 SFB        -0.3390
     26 C4D        35.1280   -3.1510   12.2440 C.2       1 SFB         0.1822
     27 O4D        34.3810   -4.0930   12.1950 O.2       1 SFB        -0.4124
     28 C5A        37.0200    5.3630   21.3860 C.ar      1 SFB         0.1045
     29 C5B        40.5260    5.3040   15.6890 C.3       1 SFB         0.1624
     30 O5B        41.8070    5.5660   15.1020 O.3       1 SFB        -0.3706
     31 C5C        41.0390    0.4180   12.8390 C.3       1 SFB         0.0709
     32 O5C        40.6490   -0.5760   13.7980 O.3       1 SFB        -0.3924
     33 C5D        36.3030   -3.0630   13.1110 C.2       1 SFB         0.0062
     34 C6A        36.0440    5.6400   22.3410 C.ar      1 SFB         0.1298
     35 N6A        35.6360    4.6870   23.2060 N.pl3     1 SFB        -0.3152
     36 C6D        37.0570   -1.9330   13.0600 C.2       1 SFB         0.0591
     37 N7A        37.7440    4.2680   21.0730 N.2       1 SFB        -0.2958
     38 C8A        38.5570    4.5970   20.0370 C.2       1 SFB         0.1123
     39 N9A        38.3410    5.8840   19.7050 N.pl3     1 SFB        -0.1919
     40 SAS        40.4050    2.6510   15.5270 S.o2      1 SFB         0.0415
     41 H1         38.5081    7.6718   18.6117 H         1 SFB         0.0996
     42 H2         37.1401    0.9935   11.1382 H         1 SFB         0.0996
     43 H3         38.2891    3.2103   14.8546 H         1 SFB         0.0523
     44 H4         39.5549    3.6991   13.6775 H         1 SFB         0.0523
     45 H5         35.4284    8.8202   21.6028 H         1 SFB         0.0996
     46 H6         40.8300    6.1262   19.6821 H         1 SFB         0.0676
     47 H7         40.1536    8.2668   20.3440 H         1 SFB         0.2101
     48 H8         37.1942    0.5142   14.0750 H         1 SFB         0.0653
     49 H9         36.5277    2.7229   13.9773 H         1 SFB         0.2100
     50 H10        41.9499    5.9568   17.7023 H         1 SFB         0.0648
     51 H11        42.5099    8.1986   18.0267 H         1 SFB         0.2100
     52 H12        39.2643    0.9140   14.3130 H         1 SFB         0.0370
     53 H13        34.0703   -2.0605   10.7999 H         1 SFB         0.2259
     54 H14        40.6405    3.9757   17.3675 H         1 SFB         0.1697
     55 H15        39.9682    7.3571   15.9957 H         1 SFB         0.0667
     56 H16        40.1016    2.0379   11.7445 H         1 SFB         0.0624
     57 H17        39.7772    5.2494   14.8850 H         1 SFB         0.0844
     58 H18        41.7856    6.4067   14.6602 H         1 SFB         0.2119
     59 H19        41.7493    1.1173   13.3042 H         1 SFB         0.0583
     60 H20        41.5170   -0.0714   11.9776 H         1 SFB         0.0583
     61 H21        40.0356   -1.1794   13.3954 H         1 SFB         0.2095
     62 H22        36.5667   -3.8811   13.7796 H         1 SFB         0.0258
     63 H23        36.0523    3.7456   23.1691 H         1 SFB         0.1820
     64 H24        34.9084    4.9014   23.9028 H         1 SFB         0.1820
     65 H25        37.9293   -1.8763   13.7095 H         1 SFB         0.1178
     66 H26        39.2681    3.9290   19.5532 H         1 SFB         0.1349
@<TRIPOS>BOND
     1    7    1 ar 
     2    1   34 ar 
     3    2    8 1  
     4   23    2 1  
     5    2   39 1  
     6    3    4 1  
     7   10    3 1  
     8    3   25 1  
     9    4   12 am 
    10    4   36 1  
    11    5   18 1  
    12   40    5 1  
    13   40    6 2  
    14   15    7 ar 
    15    8    9 1  
    16   16    8 1  
    17   10   11 1  
    18   18   10 1  
    19   12   13 2  
    20   12   19 am 
    21   40   14 2  
    22   21   15 ar 
    23   16   17 1  
    24   22   16 1  
    25   18   24 1  
    26   19   26 am 
    27   29   20 1  
    28   20   40 am 
    29   21   28 ar 
    30   39   21 1  
    31   22   23 1  
    32   22   29 1  
    33   24   25 1  
    34   24   31 1  
    35   26   27 2  
    36   26   33 1  
    37   28   34 ar 
    38   28   37 1  
    39   29   30 1  
    40   31   32 1  
    41   33   36 2  
    42   34   35 1  
    43   37   38 2  
    44   38   39 1  
    45    2   41 1  
    46    3   42 1  
    47    5   43 1  
    48    5   44 1  
    49    7   45 1  
    50    8   46 1  
    51    9   47 1  
    52   10   48 1  
    53   11   49 1  
    54   16   50 1  
    55   17   51 1  
    56   18   52 1  
    57   19   53 1  
    58   20   54 1  
    59   22   55 1  
    60   24   56 1  
    61   29   57 1  
    62   30   58 1  
    63   31   59 1  
    64   31   60 1  
    65   32   61 1  
    66   33   62 1  
    67   35   63 1  
    68   35   64 1  
    69   36   65 1  
    70   38   66 1  
@<TRIPOS>SUBSTRUCTURE
     1 SFB         1

