### 
### Created by X-TOOL on Mon Sep 10 21:13:07 2018
### 

@<TRIPOS>MOLECULE
2xoi_ligand
   65    69     1     0     0
SMALL
GAST_HUCK


@<TRIPOS>ATOM
      1 N1A        35.3620    5.9940   22.3830 N.ar      1 SFB        -0.2698
      2 C1B        38.9350    5.5860   18.6820 C.3       1 SFB         0.2011
      3 C1C        37.3860   -0.2510   12.0990 C.3       1 SFB         0.1778
      4 N1D        36.5960   -1.4920   12.2300 N.am      1 SFB        -0.1619
      5 C1S        39.2850    1.8510   14.4210 C.3       1 SFB         0.0899
      6 O1S        39.6900    0.6350   16.6700 O.2       1 SFB        -0.1554
      7 C2A        35.7660    6.9150   21.4920 C.ar      1 SFB         0.0533
      8 C2B        40.3690    5.8780   19.1020 C.3       1 SFB         0.1386
      9 O2B        40.4600    7.2290   19.5570 O.3       1 SFB        -0.3836
     10 C2C        37.3980    0.5450   13.4020 C.3       1 SFB         0.0099
     11 C2D        35.4470   -1.6890   11.4240 C.2       1 SFB         0.3327
     12 O2D        35.0920   -0.8160   10.6040 O.2       1 SFB        -0.3815
     13 O2S        41.6100    1.1550   15.2970 O.2       1 SFB        -0.1554
     14 N3A        36.7180    6.6300   20.5870 N.ar      1 SFB        -0.2714
     15 C3B        41.2090    5.6520   17.8590 C.3       1 SFB         0.1165
     16 O3B        41.9250    6.8360   17.4930 O.3       1 SFB        -0.3863
     17 C3C        38.8410    0.4990   13.8760 C.3       1 SFB         0.0137
     18 N3D        34.7250   -2.8160   11.5350 N.am      1 SFB        -0.1865
     19 N3S        40.4590    2.9330   16.5100 N.am      1 SFB        -0.2219
     20 C4A        37.2940    5.3990   20.5540 C.ar      1 SFB         0.1613
     21 C4B        40.2060    5.2790   16.7710 C.3       1 SFB         0.1339
     22 O4B        39.0130    4.8640   17.4520 O.3       1 SFB        -0.3348
     23 C4C        39.6620    0.0360   12.6800 C.3       1 SFB         0.0896
     24 O4C        38.7460   -0.5440   11.7470 O.3       1 SFB        -0.3414
     25 C4D        35.0710   -3.7780   12.4060 C.2       1 SFB         0.1822
     26 O4D        34.3850   -4.8200   12.4950 O.2       1 SFB        -0.4124
     27 C5A        36.8950    4.4320   21.4640 C.ar      1 SFB         0.1045
     28 C5B        40.7050    4.1930   15.8200 C.3       1 SFB         0.1624
     29 O5B        42.1070    4.3380   15.5500 O.3       1 SFB        -0.3706
     30 C5C        40.7350   -0.9830   13.0580 C.3       1 SFB         0.0708
     31 O5C        40.1470   -2.1440   13.6590 O.3       1 SFB        -0.3924
     32 C5D        36.1960   -3.6180   13.2110 C.2       1 SFB         0.0062
     33 C6A        35.9080    4.7530   22.3930 C.ar      1 SFB         0.1298
     34 N6A        35.4940    3.8330   23.2950 N.pl3     1 SFB        -0.3152
     35 C6D        36.9520   -2.4530   13.1020 C.2       1 SFB         0.0590
     36 N7A        37.6160    3.3210   21.2120 N.2       1 SFB        -0.2958
     37 C8A        38.4430    3.5940   20.1740 C.2       1 SFB         0.1123
     38 N9A        38.2380    4.8600   19.7760 N.pl3     1 SFB        -0.1919
     39 SAS        40.2800    1.6320   15.7430 S.o2      1 SFB         0.0415
     40 H1         38.4008    6.5308   18.5033 H         1 SFB         0.0996
     41 H2         36.9347    0.3655   11.3077 H         1 SFB         0.0969
     42 H3         38.4003    2.4310   14.7226 H         1 SFB         0.0522
     43 H4         39.8326    2.3974   13.6390 H         1 SFB         0.0522
     44 H5         35.3178    7.9019   21.5032 H         1 SFB         0.0996
     45 H6         40.6862    5.1970   19.9055 H         1 SFB         0.0676
     46 H7         40.2074    7.8163   18.8544 H         1 SFB         0.2101
     47 H8         36.7319    0.0815   14.1447 H         1 SFB         0.0323
     48 H9         37.0823    1.5835   13.2238 H         1 SFB         0.0323
     49 H10        41.9233    4.8318   18.0234 H         1 SFB         0.0648
     50 H11        41.3077    7.5367   17.3181 H         1 SFB         0.2100
     51 H12        38.9368   -0.2412   14.6841 H         1 SFB         0.0345
     52 H13        33.9166   -2.9409   10.9598 H         1 SFB         0.2259
     53 H14        40.4068    2.9237   17.5086 H         1 SFB         0.1697
     54 H15        39.9874    6.1747   16.1710 H         1 SFB         0.0667
     55 H16        40.1541    0.9071   12.2228 H         1 SFB         0.0623
     56 H17        40.1461    4.2300   14.8733 H         1 SFB         0.0844
     57 H18        42.2583    5.1611   15.1005 H         1 SFB         0.2119
     58 H19        41.4338   -0.5225   13.7718 H         1 SFB         0.0583
     59 H20        41.2815   -1.2839   12.1520 H         1 SFB         0.0583
     60 H21        39.5449   -2.5468   13.0444 H         1 SFB         0.2095
     61 H22        36.4817   -4.3953   13.9182 H         1 SFB         0.0258
     62 H23        35.9116    2.8914   23.2990 H         1 SFB         0.1820
     63 H24        34.7613    4.0743   23.9775 H         1 SFB         0.1820
     64 H25        37.8350   -2.3194   13.7252 H         1 SFB         0.1178
     65 H26        39.1575    2.8998   19.7342 H         1 SFB         0.1349
@<TRIPOS>BOND
     1    7    1 ar 
     2    1   33 ar 
     3    2    8 1  
     4   22    2 1  
     5    2   38 1  
     6    3    4 1  
     7   10    3 1  
     8    3   24 1  
     9    4   11 am 
    10    4   35 1  
    11    5   17 1  
    12   39    5 1  
    13   39    6 2  
    14   14    7 ar 
    15    8    9 1  
    16   15    8 1  
    17   17   10 1  
    18   11   12 2  
    19   11   18 am 
    20   39   13 2  
    21   20   14 ar 
    22   15   16 1  
    23   21   15 1  
    24   17   23 1  
    25   18   25 am 
    26   28   19 1  
    27   19   39 am 
    28   20   27 ar 
    29   38   20 1  
    30   21   22 1  
    31   21   28 1  
    32   23   24 1  
    33   23   30 1  
    34   25   26 2  
    35   25   32 1  
    36   27   33 ar 
    37   27   36 1  
    38   28   29 1  
    39   30   31 1  
    40   32   35 2  
    41   33   34 1  
    42   36   37 2  
    43   37   38 1  
    44    2   40 1  
    45    3   41 1  
    46    5   42 1  
    47    5   43 1  
    48    7   44 1  
    49    8   45 1  
    50    9   46 1  
    51   10   47 1  
    52   10   48 1  
    53   15   49 1  
    54   16   50 1  
    55   17   51 1  
    56   18   52 1  
    57   19   53 1  
    58   21   54 1  
    59   23   55 1  
    60   28   56 1  
    61   29   57 1  
    62   30   58 1  
    63   30   59 1  
    64   31   60 1  
    65   32   61 1  
    66   34   62 1  
    67   34   63 1  
    68   35   64 1  
    69   37   65 1  
@<TRIPOS>SUBSTRUCTURE
     1 SFB         1

