### 
### Created by X-TOOL on Mon Sep 10 21:13:03 2018
### 

@<TRIPOS>MOLECULE
2xow_ligand
   25    25     1     0     0
SMALL
GAST_HUCK


@<TRIPOS>ATOM
      1 O1         13.2860   -9.9340   47.6230 O.2       1 ISM        -0.3663
      2 C1         13.8240   -9.0260   48.2350 C.2       1 ISM         0.1194
      3 C2         14.6960   -9.2220   49.3100 C.ar      1 ISM         0.0228
      4 C3         15.2120  -10.4930   49.5810 C.ar      1 ISM        -0.0321
      5 C4         16.0940  -10.6940   50.6440 C.ar      1 ISM         0.0347
      6 N1         16.5650  -11.9000   50.9150 N.pl3     1 ISM        -0.3396
      7 C5         16.5050   -9.6260   51.4190 C.ar      1 ISM        -0.0455
      8 C6         16.0080   -8.3600   51.1390 C.ar      1 ISM        -0.0625
      9 C7         15.1370   -8.1330   50.0760 C.ar      1 ISM        -0.0162
     10 C8         14.7060   -6.7880   49.9110 C.3       1 ISM         0.0798
     11 C9         13.3750   -6.5150   49.1700 C.2       1 ISM         0.2443
     12 O2         12.3960   -7.2470   49.3000 O.2       1 ISM        -0.3675
     13 O3         13.3510   -5.3830   48.3950 O.3       1 ISM        -0.2788
     14 C10        12.0880   -5.2600   47.7340 C.3       1 ISM         0.0659
     15 H          13.6125   -8.0024   47.9256 H         1 ISM         0.1321
     16 H          14.9221  -11.3367   48.9548 H         1 ISM         0.0550
     17 H          17.2206  -12.0302   51.6855 H         1 ISM         0.1699
     18 H          16.2726  -12.6998   50.3535 H         1 ISM         0.1699
     19 H          17.2088   -9.7753   52.2378 H         1 ISM         0.0541
     20 H          16.3074   -7.5215   51.7678 H         1 ISM         0.0543
     21 H          15.4731   -6.3200   49.2940 H         1 ISM         0.0666
     22 H          14.5460   -6.4172   50.9234 H         1 ISM         0.0666
     23 H          11.9257   -6.1305   47.0984 H         1 ISM         0.0577
     24 H          11.2942   -5.1990   48.4785 H         1 ISM         0.0577
     25 H          12.0853   -4.3571   47.1234 H         1 ISM         0.0577
@<TRIPOS>BOND
     1    1    2 2  
     2    2    3 1  
     3    3    4 ar 
     4    3    9 ar 
     5    4    5 ar 
     6    5    6 1  
     7    5    7 ar 
     8    7    8 ar 
     9    8    9 ar 
    10    9   10 1  
    11   10   11 1  
    12   11   12 2  
    13   11   13 1  
    14   13   14 1  
    15    2   15 1  
    16    4   16 1  
    17    6   17 1  
    18    6   18 1  
    19    7   19 1  
    20    8   20 1  
    21   10   21 1  
    22   10   22 1  
    23   14   23 1  
    24   14   24 1  
    25   14   25 1  
@<TRIPOS>SUBSTRUCTURE
     1 ISM         1

