### 
### Created by X-TOOL on Mon Sep 10 21:13:03 2018
### 

@<TRIPOS>MOLECULE
2xp2_ligand
   53    56     1     0     0
SMALL
GAST_HUCK


@<TRIPOS>ATOM
      1 CL         32.9370   46.3310    6.6220 Cl        1 VGH        -0.0808
      2 C13        33.4020   46.0180    8.2730 C.ar      1 VGH         0.0403
      3 C3         34.2220   47.0020    8.9000 C.ar      1 VGH        -0.0561
      4 C2         34.6560   46.8470   10.2410 C.ar      1 VGH        -0.0339
      5 C12        34.2850   45.7030   10.9980 C.ar      1 VGH         0.1404
      6 F          34.7220   45.6010   12.2650 F         1 VGH        -0.1842
      7 C17        32.9950   44.8250    9.0120 C.ar      1 VGH         0.0160
      8 C18        33.4550   44.6800   10.4050 C.ar      1 VGH         0.0774
      9 CL2        33.0420   43.3000   11.4140 Cl        1 VGH        -0.0787
     10 C21        32.0950   43.7500    8.3080 C.3       1 VGH         0.1115
     11 C1         32.7790   42.3700    8.2830 C.3       1 VGH        -0.0242
     12 O27        30.7900   43.5410    8.9500 O.3       1 VGH        -0.3010
     13 C15        29.7900   44.5100    9.1260 C.ar      1 VGH         0.1362
     14 C4         29.6840   45.7470    8.3920 C.ar      1 VGH        -0.0252
     15 C19        28.7610   44.2670   10.0990 C.ar      1 VGH         0.1368
     16 N22        28.7980   43.0760   10.8500 N.pl3     1 VGH        -0.3267
     17 N23        27.7320   45.1150   10.3500 N.ar      1 VGH        -0.3009
     18 C5         27.6600   46.2780    9.6400 C.ar      1 VGH        -0.0161
     19 C14        28.6090   46.6610    8.6410 C.ar      1 VGH        -0.0311
     20 C16        28.4980   47.9680    7.8660 C.2       1 VGH        -0.0030
     21 C6         29.5440   48.6380    7.0900 C.2       1 VGH         0.0048
     22 C7         27.3800   48.7930    7.7370 C.2       1 VGH         0.0622
     23 N26        27.8290   49.8540    6.9230 N.pl3     1 VGH        -0.2005
     24 N24        29.0630   49.7200    6.5830 N.2       1 VGH        -0.2139
     25 C20        27.0170   51.0170    6.4770 C.3       1 VGH         0.0923
     26 C8         26.8190   52.0170    7.6370 C.3       1 VGH         0.0204
     27 C10        25.9750   53.2180    7.1460 C.3       1 VGH        -0.0306
     28 N25        24.6730   52.7900    6.5550 N.4       1 VGH         0.2271
     29 C11        24.8360   51.7910    5.4600 C.3       1 VGH        -0.0306
     30 C9         25.6480   50.5560    5.9130 C.3       1 VGH         0.0204
     31 H          34.5200   47.8878    8.3392 H         1 VGH         0.0597
     32 H          35.2817   47.6145   10.6966 H         1 VGH         0.0547
     33 H          31.9459   44.1561    7.3075 H         1 VGH         0.0813
     34 H          32.8946   42.0047    9.3034 H         1 VGH         0.0281
     35 H          32.1655   41.6721    7.7132 H         1 VGH         0.0281
     36 H          33.7592   42.4602    7.8148 H         1 VGH         0.0281
     37 H          30.4321   45.9899    7.6374 H         1 VGH         0.0567
     38 H          28.0730   42.8867   11.5421 H         1 VGH         0.1727
     39 H          29.5498   42.4028   10.7018 H         1 VGH         0.1727
     40 H          26.8307   46.9547    9.8463 H         1 VGH         0.0640
     41 H          30.5651   48.2788    6.9621 H         1 VGH         0.0670
     42 H          26.3883   48.6504    8.1663 H         1 VGH         0.1021
     43 H          27.5587   51.5202    5.6761 H         1 VGH         0.0683
     44 H          27.7908   52.3723    7.9797 H         1 VGH         0.0349
     45 H          26.3018   51.5218    8.4588 H         1 VGH         0.0349
     46 H          26.5426   53.7377    6.3741 H         1 VGH         0.0815
     47 H          25.7639   53.8566    8.0037 H         1 VGH         0.0815
     48 H          24.2228   53.6157    6.1601 H         1 VGH         0.2013
     49 H          24.1219   52.3552    7.2950 H         1 VGH         0.2013
     50 H          25.3741   52.2693    4.6416 H         1 VGH         0.0815
     51 H          23.8445   51.4532    5.1585 H         1 VGH         0.0815
     52 H          25.0968   50.0224    6.6873 H         1 VGH         0.0349
     53 H          25.8095   49.8947    5.0617 H         1 VGH         0.0349
@<TRIPOS>BOND
     1    1    2 1  
     2    2    3 ar 
     3    2    7 ar 
     4    3    4 ar 
     5    4    5 ar 
     6    5    6 1  
     7    5    8 ar 
     8    7    8 ar 
     9    7   10 1  
    10    8    9 1  
    11   10   11 1  
    12   10   12 1  
    13   12   13 1  
    14   13   14 ar 
    15   13   15 ar 
    16   14   19 ar 
    17   15   16 1  
    18   15   17 ar 
    19   17   18 ar 
    20   18   19 ar 
    21   19   20 1  
    22   20   21 1  
    23   20   22 2  
    24   21   24 2  
    25   22   23 1  
    26   23   24 1  
    27   23   25 1  
    28   25   26 1  
    29   25   30 1  
    30   26   27 1  
    31   27   28 1  
    32   28   29 1  
    33   29   30 1  
    34    3   31 1  
    35    4   32 1  
    36   10   33 1  
    37   11   34 1  
    38   11   35 1  
    39   11   36 1  
    40   14   37 1  
    41   16   38 1  
    42   16   39 1  
    43   18   40 1  
    44   21   41 1  
    45   22   42 1  
    46   25   43 1  
    47   26   44 1  
    48   26   45 1  
    49   27   46 1  
    50   27   47 1  
    51   28   48 1  
    52   28   49 1  
    53   29   50 1  
    54   29   51 1  
    55   30   52 1  
    56   30   53 1  
@<TRIPOS>SUBSTRUCTURE
     1 VGH         1

