### 
### Created by X-TOOL on Mon Sep 10 21:13:07 2018
### 

@<TRIPOS>MOLECULE
2xp3_ligand
   25    26     1     0     0
SMALL
GAST_HUCK


@<TRIPOS>ATOM
      1 CAL        38.5740  -19.5420   10.2350 C.3       1 B21         0.0603
      2 OAP        38.8540  -18.4630   11.1170 O.3       1 B21        -0.3189
      3 CAH        39.2030  -18.6260   12.4390 C.ar      1 B21         0.1028
      4 CAK        39.3810  -19.8720   13.0720 C.ar      1 B21        -0.0329
      5 CAI        39.7630  -19.9660   14.4280 C.ar      1 B21        -0.0719
      6 CAJ        39.9560  -18.8200   15.1920 C.ar      1 B21        -0.0738
      7 CAG        39.7690  -17.5860   14.5630 C.ar      1 B21        -0.0609
      8 CAF        39.3910  -17.4730   13.1930 C.ar      1 B21         0.0433
      9 CAB        39.2230  -16.2080   12.6030 C.2       1 B21         0.1213
     10 OAM        39.4290  -15.0470   13.2900 O.3       1 B21        -0.2522
     11 CAD        38.8510  -15.8630   11.2920 C.2       1 B21        -0.0531
     12 CAC        38.8120  -14.4700   11.1890 C.2       1 B21        -0.0490
     13 CAA        39.1590  -13.9870   12.4570 C.2       1 B21         0.1457
     14 CAE        39.3500  -12.6230   13.0910 C.2       1 B21         0.0905
     15 OAO        39.0310  -11.6010   12.4350 O.co2     1 B21        -0.5617
     16 OAN        39.8680  -12.5130   14.2470 O.co2     1 B21        -0.5617
     17 H1         38.3222  -19.1463    9.2400 H         1 B21         0.0580
     18 H2         37.7249  -20.1229   10.6242 H         1 B21         0.0580
     19 H3         39.4583  -20.1917   10.1581 H         1 B21         0.0580
     20 H4         39.2207  -20.7811   12.5038 H         1 B21         0.0536
     21 H5         39.9073  -20.9415   14.8782 H         1 B21         0.0576
     22 H6         40.2408  -18.8816   16.2361 H         1 B21         0.0522
     23 H7         39.9171  -16.6798   15.1391 H         1 B21         0.0577
     24 H8         38.6298  -16.5651   10.4895 H         1 B21         0.0363
     25 H9         38.5635  -13.8823   10.3065 H         1 B21         0.0409
@<TRIPOS>BOND
     1    1    2 1  
     2    2    3 1  
     3    3    4 ar 
     4    3    8 ar 
     5    4    5 ar 
     6    5    6 ar 
     7    6    7 ar 
     8    7    8 ar 
     9    8    9 1  
    10    9   10 1  
    11    9   11 2  
    12   10   13 1  
    13   11   12 1  
    14   12   13 2  
    15   13   14 1  
    16   14   15 ar 
    17   14   16 ar 
    18    1   17 1  
    19    1   18 1  
    20    1   19 1  
    21    4   20 1  
    22    5   21 1  
    23    6   22 1  
    24    7   23 1  
    25   11   24 1  
    26   12   25 1  
@<TRIPOS>SUBSTRUCTURE
     1 B21         1

