### 
### Created by X-TOOL on Mon Sep 10 21:13:06 2018
### 

@<TRIPOS>MOLECULE
2xp4_ligand
   21    22     1     0     0
SMALL
GAST_HUCK


@<TRIPOS>ATOM
      1 O14       -38.6610   28.5810   25.6620 O.co2     1 G14        -0.5610
      2 C12       -37.7740   28.0390   26.2790 C.2       1 G14         0.0846
      3 O13       -37.6260   28.2960   27.4920 O.co2     1 G14        -0.5610
      4 C10       -36.8670   27.0210   25.5030 C.2       1 G14         0.1076
      5 C9        -37.1270   26.5820   24.2410 C.2       1 G14        -0.0022
      6 N8        -36.0910   25.8040   23.9480 N.2       1 G14        -0.3166
      7 C7        -35.1990   25.8180   24.9580 C.2       1 G14         0.1395
      8 N11       -35.6660   26.6290   25.9470 N.pl3     1 G14        -0.2511
      9 C6        -34.0090   25.1070   24.9580 C.ar      1 G14         0.0277
     10 C1        -33.4000   24.8210   23.7310 C.ar      1 G14        -0.0479
     11 C2        -32.2040   24.0690   23.6920 C.ar      1 G14        -0.0595
     12 C3        -31.5920   23.6850   24.9060 C.ar      1 G14        -0.0604
     13 C4        -32.1840   24.0120   26.1460 C.ar      1 G14        -0.0595
     14 C5        -33.4090   24.7170   26.1750 C.ar      1 G14        -0.0479
     15 H1        -37.9871   26.8152   23.6151 H         1 G14         0.0543
     16 H2        -35.2029   26.8822   26.8315 H         1 G14         0.2382
     17 H3        -33.8461   25.1767   22.8093 H         1 G14         0.0640
     18 H4        -31.7618   23.7903   22.7424 H         1 G14         0.0621
     19 H5        -30.6588   23.1339   24.8857 H         1 G14         0.0629
     20 H6        -31.7006   23.7233   27.0723 H         1 G14         0.0621
     21 H7        -33.8822   24.9554   27.1207 H         1 G14         0.0640
@<TRIPOS>BOND
     1    1    2 ar 
     2    2    3 ar 
     3    2    4 1  
     4    4    5 2  
     5    4    8 1  
     6    5    6 1  
     7    6    7 2  
     8    7    8 1  
     9    7    9 1  
    10    9   10 ar 
    11    9   14 ar 
    12   10   11 ar 
    13   11   12 ar 
    14   12   13 ar 
    15   13   14 ar 
    16    5   15 1  
    17    8   16 1  
    18   10   17 1  
    19   11   18 1  
    20   12   19 1  
    21   13   20 1  
    22   14   21 1  
@<TRIPOS>SUBSTRUCTURE
     1 G14         1

