### 
### Created by X-TOOL on Mon Sep 10 21:13:07 2018
### 

@<TRIPOS>MOLECULE
2xp5_ligand
   24    25     1     0     0
SMALL
GAST_HUCK


@<TRIPOS>ATOM
      1 O14       -37.4850   28.4410   27.3900 O.co2     1 4FF        -0.5717
      2 C12       -37.7380   28.1510   26.1990 C.2       1 4FF         0.0455
      3 O13       -38.7680   28.5830   25.6820 O.co2     1 4FF        -0.5717
      4 C10       -36.8500   27.1730   25.3390 C.2       1 4FF         0.0508
      5 C9        -37.1340   26.7090   24.0460 C.2       1 4FF         0.0721
      6 N8        -36.1190   25.8980   23.6800 N.pl3     1 4FF        -0.2507
      7 C7        -35.2250   25.8500   24.7240 C.2       1 4FF         0.1328
      8 N11       -35.6900   26.6570   25.7080 N.2       1 4FF        -0.3209
      9 C6        -34.0100   25.1430   24.7950 C.ar      1 4FF         0.0216
     10 C1        -33.3370   24.7610   23.6170 C.ar      1 4FF        -0.0505
     11 C2        -32.1150   24.0540   23.6470 C.ar      1 4FF        -0.0613
     12 C3        -31.5520   23.7450   24.8990 C.ar      1 4FF        -0.0620
     13 C4        -32.1830   24.1480   26.0950 C.ar      1 4FF        -0.0613
     14 C5        -33.4200   24.8350   26.0280 C.ar      1 4FF        -0.0505
     15 C15       -38.3780   27.0810   23.1580 C.3       1 4FF        -0.0022
     16 H1        -36.0300   25.4039   22.7806 H         1 4FF         0.2389
     17 H2        -33.7712   25.0181   22.6576 H         1 4FF         0.0625
     18 H3        -31.6228   23.7566   22.7281 H         1 4FF         0.0617
     19 H4        -30.6218   23.1904   24.9453 H         1 4FF         0.0615
     20 H5        -31.7262   23.9342   27.0545 H         1 4FF         0.0617
     21 H6        -33.9182   25.1271   26.9454 H         1 4FF         0.0625
     22 H7        -39.0388   27.7588   23.7182 H         1 4FF         0.0437
     23 H8        -38.9287   26.1654   22.8963 H         1 4FF         0.0437
     24 H9        -38.0365   27.5789   22.2386 H         1 4FF         0.0437
@<TRIPOS>BOND
     1    1    2 ar 
     2    2    3 ar 
     3    2    4 1  
     4    4    5 2  
     5    4    8 1  
     6    5    6 1  
     7    5   15 1  
     8    6    7 1  
     9    7    8 2  
    10    7    9 1  
    11    9   10 ar 
    12    9   14 ar 
    13   10   11 ar 
    14   11   12 ar 
    15   12   13 ar 
    16   13   14 ar 
    17    6   16 1  
    18   10   17 1  
    19   11   18 1  
    20   12   19 1  
    21   13   20 1  
    22   14   21 1  
    23   15   22 1  
    24   15   23 1  
    25   15   24 1  
@<TRIPOS>SUBSTRUCTURE
     1 4FF         1

