### 
### Created by X-TOOL on Mon Sep 10 21:13:07 2018
### 

@<TRIPOS>MOLECULE
2xp6_ligand
   24    25     1     0     0
SMALL
GAST_HUCK


@<TRIPOS>ATOM
      1 O14       -37.8530   28.3630   27.6200 O.co2     1 4G2        -0.5651
      2 C12       -38.1060   28.1520   26.4360 C.2       1 4G2         0.0753
      3 O13       -39.0270   28.7820   25.9190 O.co2     1 4G2        -0.5651
      4 C10       -37.2130   27.1770   25.6380 C.2       1 4G2         0.1037
      5 C9        -37.4050   26.6840   24.3470 C.2       1 4G2         0.0123
      6 N8        -36.3630   25.9020   24.0970 N.2       1 4G2        -0.3121
      7 C7        -35.5230   25.9250   25.1470 C.2       1 4G2         0.1350
      8 N11       -36.0250   26.7200   26.1020 N.pl3     1 4G2        -0.2593
      9 C6        -34.3210   25.2570   25.2120 C.ar      1 4G2         0.0270
     10 C1        -33.6760   25.1900   26.4180 C.ar      1 4G2        -0.0341
     11 C2        -32.4260   24.5200   26.4710 C.ar      1 4G2         0.0425
     12 C3        -31.8520   23.9350   25.3210 C.ar      1 4G2        -0.0466
     13 C4        -32.5000   24.0560   24.0850 C.ar      1 4G2        -0.0592
     14 C5        -33.7410   24.7260   24.0510 C.ar      1 4G2        -0.0480
     15 CL1       -31.5940   24.4120   27.9890 Cl        1 4G2        -0.0704
     16 C15       -38.5780   26.9250   23.3700 C.3       1 4G2        -0.0318
     17 H1        -35.5925   26.9403   27.0105 H         1 4G2         0.2338
     18 H2        -34.1077   25.6359   27.3067 H         1 4G2         0.0645
     19 H3        -30.9149   23.3951   25.3943 H         1 4G2         0.0633
     20 H4        -32.0612   23.6472   23.1820 H         1 4G2         0.0621
     21 H5        -34.2587   24.8329   23.1046 H         1 4G2         0.0640
     22 H6        -38.3951   26.3755   22.4348 H         1 4G2         0.0361
     23 H7        -38.6598   28.0003   23.1533 H         1 4G2         0.0361
     24 H8        -39.5140   26.5707   23.8263 H         1 4G2         0.0361
@<TRIPOS>BOND
     1    1    2 ar 
     2    2    3 ar 
     3    2    4 1  
     4    4    5 2  
     5    4    8 1  
     6    5    6 1  
     7    5   16 1  
     8    6    7 2  
     9    7    8 1  
    10    7    9 1  
    11    9   10 ar 
    12    9   14 ar 
    13   10   11 ar 
    14   11   12 ar 
    15   11   15 1  
    16   12   13 ar 
    17   13   14 ar 
    18    8   17 1  
    19   10   18 1  
    20   12   19 1  
    21   13   20 1  
    22   14   21 1  
    23   16   22 1  
    24   16   23 1  
    25   16   24 1  
@<TRIPOS>SUBSTRUCTURE
     1 4G2         1

