### 
### Created by X-TOOL on Mon Sep 10 21:13:07 2018
### 

@<TRIPOS>MOLECULE
2xp7_ligand
   23    24     1     0     0
SMALL
GAST_HUCK


@<TRIPOS>ATOM
      1 N4C       -40.7520   18.4640   16.0600 N.pl3     1 4F8        -0.2457
      2 C5C       -41.9740   18.8690   15.6940 C.2       1 4F8         0.1258
      3 C6C       -42.2190   18.4060   14.3840 C.2       1 4F8         0.0702
      4 C7C       -43.4810   18.5870   13.4930 C.2       1 4F8         0.0586
      5 O8C       -44.5950   18.6540   14.0120 O.co2     1 4F8        -0.5658
      6 O9C       -43.4120   18.5580   12.2560 O.co2     1 4F8        -0.5658
      7 C1D       -38.9990   17.0960   14.9630 C.ar      1 4F8         0.0286
      8 C2D       -38.4570   16.5020   16.1140 C.ar      1 4F8        -0.0476
      9 C3D       -37.2500   15.7980   16.0700 C.ar      1 4F8        -0.0594
     10 C4D       -36.5740   15.6420   14.8530 C.ar      1 4F8        -0.0603
     11 C5D       -37.1360   16.2120   13.7110 C.ar      1 4F8        -0.0594
     12 C6D       -38.3420   16.9250   13.7600 C.ar      1 4F8        -0.0476
     13 C7D       -40.2290   17.7620   15.0180 C.2       1 4F8         0.1427
     14 O         -43.8410   20.3570   16.0420 O.co2     1 4F8        -0.5592
     15 O2        -42.7390   19.8280   17.7960 O.co2     1 4F8        -0.5592
     16 N3        -41.1440   17.7060   14.0100 N.2       1 4F8        -0.3023
     17 C6        -42.9130   19.7290   16.5690 C.2       1 4F8         0.0904
     18 H1        -40.2925   18.6493   16.9630 H         1 4F8         0.2407
     19 H2        -38.9854   16.5911   17.0563 H         1 4F8         0.0641
     20 H3        -36.8372   15.3728   16.9777 H         1 4F8         0.0622
     21 H4        -35.6404   15.0937   14.8004 H         1 4F8         0.0630
     22 H5        -36.6269   16.1008   12.7605 H         1 4F8         0.0622
     23 H6        -38.7601   17.3432   12.8515 H         1 4F8         0.0641
@<TRIPOS>BOND
     1    1    2 1  
     2   13    1 1  
     3    2    3 2  
     4    2   17 1  
     5    3    4 1  
     6    3   16 1  
     7    4    5 ar 
     8    4    6 ar 
     9    7    8 ar 
    10    7   12 ar 
    11    7   13 1  
    12    8    9 ar 
    13    9   10 ar 
    14   10   11 ar 
    15   11   12 ar 
    16   13   16 2  
    17   17   14 ar 
    18   17   15 ar 
    19    1   18 1  
    20    8   19 1  
    21    9   20 1  
    22   10   21 1  
    23   11   22 1  
    24   12   23 1  
@<TRIPOS>SUBSTRUCTURE
     1 4F8         1

