### 
### Created by X-TOOL on Mon Sep 10 21:13:08 2018
### 

@<TRIPOS>MOLECULE
2xp8_ligand
   36    38     1     0     0
SMALL
GAST_HUCK


@<TRIPOS>ATOM
      1 C13       -33.1440   24.9960   23.1160 C.ar      1 4FY        -0.0475
      2 C14       -31.9500   24.2850   23.0090 C.ar      1 4FY        -0.0593
      3 C2        -33.6230   29.4830   27.0160 C.3       1 4FY         0.0679
      4 C15       -31.3410   23.8650   24.1770 C.ar      1 4FY        -0.0602
      5 C16       -31.9190   24.1530   25.4230 C.ar      1 4FY        -0.0593
      6 C17       -33.1210   24.8430   25.5330 C.ar      1 4FY        -0.0475
      7 C12       -33.7420   25.2360   24.3620 C.ar      1 4FY         0.0292
      8 C9        -34.9020   25.9880   24.3820 C.2       1 4FY         0.1445
      9 N10       -35.1350   26.8230   25.3730 N.2       1 4FY        -0.2973
     10 N8        -35.8550   26.1000   23.4250 N.pl3     1 4FY        -0.2425
     11 C7        -36.7160   27.0090   23.8630 C.2       1 4FY         0.1340
     12 C20       -37.9460   27.4710   23.0900 C.2       1 4FY         0.0939
     13 O22       -37.9820   27.2570   21.8750 O.co2     1 4FY        -0.5580
     14 O21       -38.8350   28.1450   23.6230 O.co2     1 4FY        -0.5580
     15 C11       -36.2630   27.4620   25.0970 C.2       1 4FY         0.1106
     16 C18       -36.8310   28.5090   26.0890 C.2       1 4FY         0.2016
     17 O19       -37.9410   28.3750   26.6220 O.2       1 4FY        -0.3938
     18 N3        -36.0260   29.5510   26.4140 N.am      1 4FY        -0.2707
     19 C1        -34.6370   29.6870   25.8620 C.3       1 4FY         0.0564
     20 C5        -36.3960   30.5150   27.4700 C.3       1 4FY         0.0564
     21 C6        -35.3690   30.2900   28.6160 C.3       1 4FY         0.0679
     22 O4        -34.3680   29.2220   28.2780 O.3       1 4FY        -0.3758
     23 H         -33.6231   25.3734   22.2126 H         1 4FY         0.0642
     24 H         -31.5104   24.0671   22.0357 H         1 4FY         0.0622
     25 H         -33.0114   30.3781   27.1295 H         1 4FY         0.0580
     26 H         -32.9758   28.6355   26.7901 H         1 4FY         0.0580
     27 H         -30.4060   23.3067   24.1298 H         1 4FY         0.0630
     28 H         -31.4111   23.8264   26.3304 H         1 4FY         0.0622
     29 H         -33.5576   25.0659   26.5065 H         1 4FY         0.0642
     30 H         -35.9010   25.5878   22.5441 H         1 4FY         0.2423
     31 H         -34.4714   28.9392   25.0865 H         1 4FY         0.0544
     32 H         -34.5070   30.6771   25.4250 H         1 4FY         0.0544
     33 H         -37.4185   30.3583   27.8135 H         1 4FY         0.0544
     34 H         -36.3663   31.5408   27.1027 H         1 4FY         0.0544
     35 H         -35.9156   29.9740   29.5045 H         1 4FY         0.0580
     36 H         -34.8289   31.2232   28.7759 H         1 4FY         0.0580
@<TRIPOS>BOND
     1    1    2 ar 
     2    7    1 ar 
     3    2    4 ar 
     4   19    3 1  
     5    3   22 1  
     6    5    4 ar 
     7    6    5 ar 
     8    7    6 ar 
     9    8    7 1  
    10    9    8 2  
    11   10    8 1  
    12   15    9 1  
    13   11   10 1  
    14   11   12 1  
    15   15   11 2  
    16   12   13 ar 
    17   12   14 ar 
    18   16   15 1  
    19   16   17 2  
    20   18   16 am 
    21   18   19 1  
    22   18   20 1  
    23   20   21 1  
    24   21   22 1  
    25    1   23 1  
    26    2   24 1  
    27    3   25 1  
    28    3   26 1  
    29    4   27 1  
    30    5   28 1  
    31    6   29 1  
    32   10   30 1  
    33   19   31 1  
    34   19   32 1  
    35   20   33 1  
    36   20   34 1  
    37   21   35 1  
    38   21   36 1  
@<TRIPOS>SUBSTRUCTURE
     1 4FY         1

