### 
### Created by X-TOOL on Mon Sep 10 21:13:07 2018
### 

@<TRIPOS>MOLECULE
2xpa_ligand
   35    36     1     0     0
SMALL
GAST_HUCK


@<TRIPOS>ATOM
      1 C10        39.0110  -17.8670   10.2520 C.ar      1 4G5        -0.0475
      2 C11        38.9630  -19.2590   10.3400 C.ar      1 4G5        -0.0593
      3 C12        38.9080  -19.8960   11.5870 C.ar      1 4G5        -0.0602
      4 C13        38.9010  -19.1200   12.7480 C.ar      1 4G5        -0.0593
      5 C14        38.9310  -17.7180   12.6660 C.ar      1 4G5        -0.0475
      6 C9         38.9550  -17.0920   11.4200 C.ar      1 4G5         0.0292
      7 C5         39.0400  -15.7000   11.3420 C.2       1 4G5         0.1445
      8 N1         39.6080  -14.9950   12.3240 N.2       1 4G5        -0.2973
      9 N4         38.6750  -14.8520   10.3400 N.pl3     1 4G5        -0.2425
     10 C3         39.0110  -13.6040   10.7330 C.2       1 4G5         0.1340
     11 C15        38.8020  -12.2970    9.9310 C.2       1 4G5         0.0939
     12 O17        38.5330  -12.3280    8.7110 O.co2     1 4G5        -0.5580
     13 O16        38.9850  -11.2150   10.5150 O.co2     1 4G5        -0.5580
     14 C2         39.6140  -13.7110   11.9930 C.2       1 4G5         0.1107
     15 C6         40.2250  -12.6800   12.9800 C.2       1 4G5         0.2033
     16 O8         39.4830  -11.9210   13.5970 O.2       1 4G5        -0.3937
     17 N7         41.5650  -12.7720   13.2150 N.am      1 4G5        -0.2594
     18 C22        42.3730  -13.7430   12.4110 C.3       1 4G5         0.0241
     19 C18        42.2000  -11.9070   14.2400 C.3       1 4G5         0.1213
     20 C19        42.6600  -12.7830   15.4700 C.2       1 4G5         0.1961
     21 O21        42.0210  -13.7660   15.8860 O.2       1 4G5        -0.3951
     22 N20        43.8080  -12.3780   16.0350 N.am      1 4G5        -0.2992
     23 H1         39.0913  -17.3860    9.2839 H         1 4G5         0.0642
     24 H2         38.9683  -19.8539    9.4339 H         1 4G5         0.0622
     25 H3         38.8713  -20.9776   11.6496 H         1 4G5         0.0630
     26 H4         38.8722  -19.6024   13.7183 H         1 4G5         0.0622
     27 H5         38.9355  -17.1224   13.5717 H         1 4G5         0.0642
     28 H6         38.2271  -15.1134    9.4501 H         1 4G5         0.2423
     29 H7         43.4262  -13.6911   12.7240 H         1 4G5         0.0487
     30 H8         42.2949  -13.4896   11.3435 H         1 4G5         0.0487
     31 H9         41.9916  -14.7616   12.5749 H         1 4G5         0.0487
     32 H10        41.4758  -11.1522   14.5801 H         1 4G5         0.0764
     33 H11        43.0751  -11.4045   13.8022 H         1 4G5         0.0764
     34 H12        44.1795  -12.8714   16.8215 H         1 4G5         0.1815
     35 H13        44.2919  -11.5828   15.6695 H         1 4G5         0.1815
@<TRIPOS>BOND
     1    1    2 ar 
     2    1    6 ar 
     3    2    3 ar 
     4    3    4 ar 
     5    4    5 ar 
     6    5    6 ar 
     7    6    7 1  
     8    7    8 2  
     9    7    9 1  
    10    8   14 1  
    11    9   10 1  
    12   10   11 1  
    13   10   14 2  
    14   11   12 ar 
    15   11   13 ar 
    16   14   15 1  
    17   15   16 2  
    18   15   17 am 
    19   17   18 1  
    20   17   19 1  
    21   19   20 1  
    22   20   21 2  
    23   20   22 am 
    24    1   23 1  
    25    2   24 1  
    26    3   25 1  
    27    4   26 1  
    28    5   27 1  
    29    9   28 1  
    30   18   29 1  
    31   18   30 1  
    32   18   31 1  
    33   19   32 1  
    34   19   33 1  
    35   22   34 1  
    36   22   35 1  
@<TRIPOS>SUBSTRUCTURE
     1 4G5         1

