### 
### Created by X-TOOL on Mon Sep 10 21:13:07 2018
### 

@<TRIPOS>MOLECULE
2xpb_ligand
   41    43     1     0     0
SMALL
GAST_HUCK


@<TRIPOS>ATOM
      1 C5         39.4070  -17.8470   12.7850 C.ar      1 4GE        -0.0335
      2 C6         39.3470  -19.2380   12.9100 C.ar      1 4GE         0.0429
      3 CL1        39.6560  -20.0070   14.4540 Cl        1 4GE        -0.0703
      4 C1         39.0910  -20.0120   11.7750 C.ar      1 4GE        -0.0463
      5 C2         38.8920  -19.3970   10.5260 C.ar      1 4GE        -0.0588
      6 C3         38.9510  -18.0020   10.4380 C.ar      1 4GE        -0.0474
      7 C4         39.1760  -17.2240   11.5630 C.ar      1 4GE         0.0297
      8 C7         39.2480  -15.8420   11.4880 C.2       1 4GE         0.1445
      9 N8         39.7830  -15.1150   12.4820 N.2       1 4GE        -0.2973
     10 N11        38.8340  -14.9970   10.4890 N.pl3     1 4GE        -0.2424
     11 C10        39.1440  -13.7380   10.8640 C.2       1 4GE         0.1340
     12 C13        38.8660  -12.4650    9.9880 C.2       1 4GE         0.0939
     13 O15        38.4260  -12.5990    8.8300 O.co2     1 4GE        -0.5580
     14 O14        39.0700  -11.3200   10.4500 O.co2     1 4GE        -0.5580
     15 C9         39.7390  -13.8140   12.1380 C.2       1 4GE         0.1107
     16 C16        40.3110  -12.7470   13.1350 C.2       1 4GE         0.2031
     17 O18        39.5500  -12.0730   13.8250 O.2       1 4GE        -0.3937
     18 N17        41.6540  -12.7150   13.3110 N.am      1 4GE        -0.2669
     19 C21        42.5210  -13.5960   12.4530 C.3       1 4GE         0.0238
     20 C19        42.2280  -11.8120   14.3560 C.3       1 4GE         0.0662
     21 C20        42.9650  -12.7190   15.3920 C.ar      1 4GE        -0.0209
     22 C22        42.2700  -13.7170   16.0980 C.ar      1 4GE        -0.0584
     23 C23        42.9290  -14.5400   17.0230 C.ar      1 4GE        -0.0685
     24 C24        44.3010  -14.4070   17.2490 C.ar      1 4GE        -0.0687
     25 C25        45.0130  -13.4180   16.5390 C.ar      1 4GE        -0.0685
     26 C26        44.3460  -12.5820   15.6170 C.ar      1 4GE        -0.0584
     27 H1         39.6375  -17.2434   13.6554 H         1 4GE         0.0648
     28 H2         39.0456  -21.0919   11.8577 H         1 4GE         0.0636
     29 H3         38.6956  -19.9955    9.6438 H         1 4GE         0.0622
     30 H4         38.8187  -17.5220    9.4751 H         1 4GE         0.0643
     31 H5         38.3705  -15.2735    9.6117 H         1 4GE         0.2423
     32 H6         43.5766  -13.4475   12.7243 H         1 4GE         0.0487
     33 H7         42.3744  -13.3356   11.3944 H         1 4GE         0.0487
     34 H8         42.2459  -14.6489   12.6131 H         1 4GE         0.0487
     35 H9         41.4233  -11.2496   14.8521 H         1 4GE         0.0684
     36 H10        42.9386  -11.1084   13.8978 H         1 4GE         0.0684
     37 H11        41.2085  -13.8523   15.9247 H         1 4GE         0.0557
     38 H12        42.3666  -15.2886   17.5693 H         1 4GE         0.0599
     39 H13        44.8090  -15.0519   17.9569 H         1 4GE         0.0559
     40 H14        46.0781  -13.2990   16.7020 H         1 4GE         0.0599
     41 H15        44.9048  -11.8264   15.0768 H         1 4GE         0.0557
@<TRIPOS>BOND
     1    1    2 ar 
     2    1    7 ar 
     3    2    3 1  
     4    2    4 ar 
     5    4    5 ar 
     6    5    6 ar 
     7    6    7 ar 
     8    7    8 1  
     9    8    9 2  
    10    8   10 1  
    11    9   15 1  
    12   10   11 1  
    13   11   12 1  
    14   11   15 2  
    15   12   13 ar 
    16   12   14 ar 
    17   15   16 1  
    18   16   17 2  
    19   16   18 am 
    20   18   19 1  
    21   18   20 1  
    22   20   21 1  
    23   21   22 ar 
    24   21   26 ar 
    25   22   23 ar 
    26   23   24 ar 
    27   24   25 ar 
    28   25   26 ar 
    29    1   27 1  
    30    4   28 1  
    31    5   29 1  
    32    6   30 1  
    33   10   31 1  
    34   19   32 1  
    35   19   33 1  
    36   19   34 1  
    37   20   35 1  
    38   20   36 1  
    39   22   37 1  
    40   23   38 1  
    41   24   39 1  
    42   25   40 1  
    43   26   41 1  
@<TRIPOS>SUBSTRUCTURE
     1 4GE         1

