### 
### Created by X-TOOL on Fri Sep 26 17:34:50 2014
### 

@<TRIPOS>MOLECULE
2xpc_ligand
   58    61     1     0     0
SMALL
GAST_HUCK


@<TRIPOS>ATOM
      1 N30        21.6620   34.4520   46.6590 N.1       1 MOL        -0.3338
      2 C30        20.5700   34.4340   47.0450 C.1       1 MOL         0.0923
      3 C27        19.3770   34.3900   47.5450 C.ar      1 MOL         0.0866
      4 C26        18.2940   34.8570   46.8040 C.ar      1 MOL         0.0002
      5 C25        17.0190   34.8210   47.3460 C.ar      1 MOL         0.1469
      6 F25        15.9530   35.2620   46.6420 F         1 MOL        -0.1865
      7 C28        19.1840   33.8970   48.8300 C.ar      1 MOL        -0.0372
      8 C29        17.9060   33.8680   49.3770 C.ar      1 MOL        -0.0475
      9 C24        16.8380   34.3380   48.6270 C.ar      1 MOL         0.0306
     10 C23        15.4910   34.3480   49.2360 C.3       1 MOL         0.1098
     11 O22        15.2960   33.7410   50.5430 O.3       1 MOL        -0.3038
     12 C20        14.5590   32.6010   50.2460 C.ar      1 MOL         0.0952
     13 C21        13.9960   32.4540   48.9670 C.ar      1 MOL        -0.0289
     14 C15        13.1540   31.3640   48.6680 C.ar      1 MOL        -0.0286
     15 C14        12.6000   31.2170   47.3910 C.ar      1 MOL        -0.0582
     16 C13        11.7450   30.1400   47.1110 C.ar      1 MOL        -0.0386
     17 C19        14.3120   31.6300   51.2170 C.ar      1 MOL        -0.0272
     18 C18        13.4820   30.5350   50.9100 C.ar      1 MOL        -0.0562
     19 C16        12.8920   30.3910   49.6640 C.ar      1 MOL        -0.0229
     20 C17        12.0870   29.2850   49.3450 C.ar      1 MOL        -0.0318
     21 C12        11.4910   29.1560   48.0770 C.ar      1 MOL         0.1051
     22 S11        10.4330   27.9730   47.6600 S.o2      1 MOL         0.0670
     23 O32        10.5270   27.5510   46.2550 O.2       1 MOL        -0.1507
     24 O33        10.4780   26.8760   48.6560 O.2       1 MOL        -0.1507
     25 N           9.0530   28.6860   47.7600 N.am      1 MOL        -0.2429
     26 C1          8.3880   28.9830   49.0400 C.3       1 MOL         0.0522
     27 C3          8.6760   30.3440   49.6830 C.3       1 MOL        -0.0297
     28 C6          7.8240   31.3700   48.9230 C.3       1 MOL        -0.0367
     29 C4          6.3610   30.9510   49.1420 C.3       1 MOL         0.0137
     30 C8          5.4350   31.9900   48.5960 C.2       1 MOL         0.0380
     31 O4          5.2820   33.0190   49.3070 O.co2     1 MOL        -0.5687
     32 O3          4.8720   31.7690   47.4960 O.co2     1 MOL        -0.5687
     33 C5          6.0340   29.5550   48.5770 C.3       1 MOL        -0.0224
     34 C2          6.9940   28.5430   49.2020 C.3       1 MOL         0.0331
     35 C7          6.7950   27.2520   48.8220 C.2       1 MOL         0.0398
     36 O1          7.0870   26.3140   49.6110 O.co2     1 MOL        -0.5687
     37 O2          6.3510   27.0520   47.6880 O.co2     1 MOL        -0.5687
     38 H1         18.4482   35.2480   45.8048 H         1 MOL         0.0685
     39 H2         20.0288   33.5355   49.4051 H         1 MOL         0.0668
     40 H3         17.7462   33.4827   50.3775 H         1 MOL         0.0573
     41 H4         14.8191   33.8280   48.5373 H         1 MOL         0.0792
     42 H5         15.1859   35.4013   49.3227 H         1 MOL         0.0792
     43 H6         14.2122   33.1888   48.1999 H         1 MOL         0.0497
     44 H7         12.8323   31.9378   46.6154 H         1 MOL         0.0591
     45 H8         11.2755   30.0680   46.1366 H         1 MOL         0.0627
     46 H9         14.7564   31.7182   52.2018 H         1 MOL         0.0590
     47 H10        13.2992   29.7834   51.6694 H         1 MOL         0.0618
     48 H11        11.9217   28.5156   50.0905 H         1 MOL         0.0636
     49 H12         8.5952   28.9558   46.9129 H         1 MOL         0.1676
     50 H13         8.9192   28.2975   49.7167 H         1 MOL         0.0532
     51 H14         9.7437   30.5913   49.5886 H         1 MOL         0.0286
     52 H15         8.3956   30.3295   50.7465 H         1 MOL         0.0286
     53 H16         8.0702   31.3524   47.8511 H         1 MOL         0.0286
     54 H17         7.9960   32.3805   49.3222 H         1 MOL         0.0286
     55 H18         6.1983   30.9018   50.2288 H         1 MOL         0.0467
     56 H19         6.1581   29.5584   47.4840 H         1 MOL         0.0306
     57 H20         4.9971   29.2867   48.8275 H         1 MOL         0.0306
     58 H21         6.7894   28.5633   50.2826 H         1 MOL         0.0486
@<TRIPOS>BOND
     1    1    2 3  
     2    2    3 1  
     3    3    4 ar 
     4    3    7 ar 
     5    4    5 ar 
     6    5    6 1  
     7    5    9 ar 
     8    7    8 ar 
     9    8    9 ar 
    10    9   10 1  
    11   10   11 1  
    12   11   12 1  
    13   12   13 ar 
    14   12   17 ar 
    15   13   14 ar 
    16   14   15 ar 
    17   14   19 ar 
    18   15   16 ar 
    19   16   21 ar 
    20   17   18 ar 
    21   18   19 ar 
    22   19   20 ar 
    23   20   21 ar 
    24   21   22 1  
    25   22   23 2  
    26   22   24 2  
    27   22   25 am 
    28   25   26 1  
    29   26   27 1  
    30   26   34 1  
    31   27   28 1  
    32   28   29 1  
    33   29   30 1  
    34   29   33 1  
    35   30   31 ar 
    36   30   32 ar 
    37   33   34 1  
    38   34   35 1  
    39   35   36 ar 
    40   35   37 ar 
    41    4   38 1  
    42    7   39 1  
    43    8   40 1  
    44   10   41 1  
    45   10   42 1  
    46   13   43 1  
    47   15   44 1  
    48   16   45 1  
    49   17   46 1  
    50   18   47 1  
    51   20   48 1  
    52   25   49 1  
    53   26   50 1  
    54   27   51 1  
    55   27   52 1  
    56   28   53 1  
    57   28   54 1  
    58   29   55 1  
    59   33   56 1  
    60   33   57 1  
    61   34   58 1  
@<TRIPOS>SUBSTRUCTURE
     1 MOL         1

