### 
### Created by X-TOOL on Mon Sep 10 21:13:06 2018
### 

@<TRIPOS>MOLECULE
2xpk_ligand
   52    54     1     0     0
SMALL
GAST_HUCK


@<TRIPOS>ATOM
      1 CAZ         5.2880   -2.0340   15.7010 C.3       1 Z0M         0.0075
      2 CAN         3.8310   -1.7130   16.0410 C.3       1 Z0M         0.0462
      3 CAL         3.5460   -0.1920   16.0920 C.2       1 Z0M         0.1793
      4 OAM         4.4170    0.6470   15.8430 O.2       1 Z0M        -0.3969
      5 NAK         2.2680    0.1080   16.4010 N.am      1 Z0M        -0.2640
      6 CAB         1.4380    1.9530   15.0470 C.3       1 Z0M         0.1222
      7 OAG         0.1170    1.5980   14.7110 O.3       1 Z0M        -0.3842
      8 CAA         1.5660    3.4860   14.9230 C.3       1 Z0M         0.1176
      9 OAH         1.2500    3.8650   13.6020 O.3       1 Z0M        -0.3858
     10 CAF         2.9910    3.8840   15.2540 C.3       1 Z0M         0.1168
     11 CAI         3.2840    5.3420   14.9220 C.3       1 Z0M         0.0768
     12 OAJ         2.4360    6.2280   15.6960 O.3       1 Z0M        -0.3919
     13 NAE         3.1860    3.5840   16.6990 N.pl3     1 Z0M        -0.2497
     14 CAQ         3.8510    4.2020   17.6690 C.2       1 Z0M         0.0236
     15 CAD         2.6160    2.4420   17.2780 C.2       1 Z0M         0.1393
     16 NAO         2.9500    2.4610   18.5570 N.2       1 Z0M        -0.3317
     17 CAP         3.6990    3.5250   18.8160 C.2       1 Z0M        -0.0178
     18 CAR         4.3400    3.9160   20.1960 C.3       1 Z0M        -0.0191
     19 CAS         3.3830    3.7700   21.3970 C.3       1 Z0M        -0.0133
     20 CAT         2.2840    4.8380   21.3610 C.ar      1 Z0M        -0.0416
     21 CAU         1.0960    4.5860   20.6430 C.ar      1 Z0M        -0.0602
     22 CAV         0.0930    5.5520   20.5850 C.ar      1 Z0M        -0.0686
     23 CAW         0.2850    6.7720   21.2420 C.ar      1 Z0M        -0.0687
     24 CAC         1.7170    1.4580   16.4760 C.3       1 Z0M         0.1446
     25 CAX         1.4680    7.0280   21.9550 C.ar      1 Z0M        -0.0686
     26 CAY         2.4800    6.0590   22.0220 C.ar      1 Z0M        -0.0602
     27 SAZ         5.5900   -3.8240   15.4400 S.3       1 Z0M        -0.1759
     28 H1          5.9247   -1.6889   16.5290 H         1 Z0M         0.0398
     29 H2          5.5593   -1.4957   14.7809 H         1 Z0M         0.0398
     30 H3          3.5959   -2.1474   17.0239 H         1 Z0M         0.0510
     31 H4          3.1838   -2.1660   15.2756 H         1 Z0M         0.0510
     32 H5          1.6494   -0.6537   16.5938 H         1 Z0M         0.1888
     33 H6          2.1452    1.4737   14.3541 H         1 Z0M         0.0672
     34 H7         -0.0665    1.8721   13.8201 H         1 Z0M         0.2103
     35 H8          0.8737    3.9767   15.6229 H         1 Z0M         0.0654
     36 H9          1.3265    4.8082   13.5174 H         1 Z0M         0.2100
     37 H10         3.6801    3.2616   14.6643 H         1 Z0M         0.0699
     38 H11         3.1000    5.5118   13.8509 H         1 Z0M         0.0589
     39 H12         4.3375    5.5594   15.1521 H         1 Z0M         0.0589
     40 H13         2.6353    7.1297   15.4734 H         1 Z0M         0.2095
     41 H14         4.4299    5.1168   17.5507 H         1 Z0M         0.0663
     42 H15         4.6675    4.9646   20.1404 H         1 Z0M         0.0392
     43 H16         5.2121    3.2681   20.3681 H         1 Z0M         0.0392
     44 H17         3.9574    3.8771   22.3290 H         1 Z0M         0.0442
     45 H18         2.9170    2.7741   21.3659 H         1 Z0M         0.0442
     46 H19         0.9628    3.6379   20.1347 H         1 Z0M         0.0557
     47 H20        -0.8233    5.3606   20.0383 H         1 Z0M         0.0599
     48 H21        -0.4891    7.5297   21.2004 H         1 Z0M         0.0559
     49 H22         0.7550    1.3977   17.0060 H         1 Z0M         0.0820
     50 H23         1.5996    7.9800   22.4564 H         1 Z0M         0.0599
     51 H24         3.3939    6.2500   22.5729 H         1 Z0M         0.0557
     52 H25         6.5628   -3.9709   15.2204 H         1 Z0M         0.1018
@<TRIPOS>BOND
     1    2    1 1  
     2    1   27 1  
     3    3    2 1  
     4    3    4 2  
     5    5    3 am 
     6   24    5 1  
     7    6    7 1  
     8    6    8 1  
     9    6   24 1  
    10    8    9 1  
    11    8   10 1  
    12   10   11 1  
    13   10   13 1  
    14   11   12 1  
    15   13   14 1  
    16   13   15 1  
    17   14   17 2  
    18   15   16 2  
    19   15   24 1  
    20   16   17 1  
    21   17   18 1  
    22   18   19 1  
    23   19   20 1  
    24   20   21 ar 
    25   20   26 ar 
    26   21   22 ar 
    27   22   23 ar 
    28   23   25 ar 
    29   25   26 ar 
    30    1   28 1  
    31    1   29 1  
    32    2   30 1  
    33    2   31 1  
    34    5   32 1  
    35    6   33 1  
    36    7   34 1  
    37    8   35 1  
    38    9   36 1  
    39   10   37 1  
    40   11   38 1  
    41   11   39 1  
    42   12   40 1  
    43   14   41 1  
    44   18   42 1  
    45   18   43 1  
    46   19   44 1  
    47   19   45 1  
    48   21   46 1  
    49   22   47 1  
    50   23   48 1  
    51   24   49 1  
    52   25   50 1  
    53   26   51 1  
    54   27   52 1  
@<TRIPOS>SUBSTRUCTURE
     1 Z0M         1

