### 
### Created by X-TOOL on Mon Sep 10 21:13:08 2018
### 

@<TRIPOS>MOLECULE
2xsb_ligand
   28    28     1     0     0
SMALL
GAST_HUCK


@<TRIPOS>ATOM
      1 C1          9.5700   17.0710   31.9520 C.2       1 GDL         0.2627
      2 C2          9.7290   15.7310   32.3730 C.3       1 GDL         0.1706
      3 C3          8.9860   14.6920   31.4790 C.3       1 GDL         0.1251
      4 C4          7.7650   15.2950   30.8310 C.3       1 GDL         0.1181
      5 C5          8.3220   16.3790   29.9270 C.3       1 GDL         0.1389
      6 C6          7.2440   17.0900   29.0960 C.3       1 GDL         0.0774
      7 C7         12.0270   15.6710   31.3730 C.2       1 GDL         0.1753
      8 C8         13.4570   15.1860   31.5780 C.3       1 GDL         0.0258
      9 N1         11.1750   15.3860   32.3920 N.am      1 GDL        -0.2622
     10 O1          9.9870   17.9700   32.6770 O.2       1 GDL        -0.3677
     11 O3          8.6740   13.4940   32.2220 O.3       1 GDL        -0.3843
     12 O4          7.0830   14.2930   30.0340 O.3       1 GDL        -0.3860
     13 O5          9.0250   17.3550   30.7200 O.3       1 GDL        -0.2667
     14 O6          6.3730   17.8760   29.9300 O.3       1 GDL        -0.3920
     15 O7         11.7260   16.2730   30.3380 O.2       1 GDL        -0.3972
     16 H1          9.3289   15.6491   33.3944 H         1 GDL         0.0844
     17 H2          9.6735   14.4036   30.6702 H         1 GDL         0.0671
     18 H3          7.0792   15.7137   31.5823 H         1 GDL         0.0652
     19 H4          9.0330   15.9086   29.2319 H         1 GDL         0.0700
     20 H5          6.6458   16.3353   28.5645 H         1 GDL         0.0587
     21 H6          7.7330   17.7512   28.3655 H         1 GDL         0.0587
     22 H7         14.0666   15.4623   30.7050 H         1 GDL         0.0467
     23 H8         13.4599   14.0923   31.6959 H         1 GDL         0.0467
     24 H9         13.8768   15.6533   32.4810 H         1 GDL         0.0467
     25 H10        11.5398   14.9194   33.1977 H         1 GDL         0.1885
     26 H11         8.3009   12.8469   31.6351 H         1 GDL         0.2102
     27 H12         6.3705   14.7011   29.5562 H         1 GDL         0.2100
     28 H13         6.8835   18.5329   30.3887 H         1 GDL         0.2095
@<TRIPOS>BOND
     1    2    1 1  
     2    1   10 2  
     3    1   13 1  
     4    2    3 1  
     5    9    2 1  
     6    3    4 1  
     7    3   11 1  
     8    4    5 1  
     9    4   12 1  
    10    5    6 1  
    11   13    5 1  
    12    6   14 1  
    13    7    8 1  
    14    7    9 am 
    15    7   15 2  
    16    2   16 1  
    17    3   17 1  
    18    4   18 1  
    19    5   19 1  
    20    6   20 1  
    21    6   21 1  
    22    8   22 1  
    23    8   23 1  
    24    8   24 1  
    25    9   25 1  
    26   11   26 1  
    27   12   27 1  
    28   14   28 1  
@<TRIPOS>SUBSTRUCTURE
     1 GDL         1

