### 
### Created by X-TOOL on Mon Sep 10 21:13:07 2018
### 

@<TRIPOS>MOLECULE
2xtk_ligand
   19    19     1     0     0
SMALL
GAST_HUCK


@<TRIPOS>ATOM
      1 C1         14.5950   35.7520   73.2710 C.2       1 AZM         0.2562
      2 C2         15.0390   37.5800   74.7130 C.2       1 AZM         0.2252
      3 C3         15.8080   39.7310   74.5300 C.2       1 AZM         0.2120
      4 C4         16.2160   41.0040   75.2620 C.3       1 AZM         0.0337
      5 N1         15.0450   33.3010   72.3630 N.am      1 AZM        -0.2565
      6 N2         14.4910   36.5190   75.3190 N.2       1 AZM        -0.2573
      7 N3         14.2490   35.5580   74.5570 N.2       1 AZM        -0.2476
      8 N4         15.3880   38.7380   75.3200 N.am      1 AZM        -0.1925
      9 O1         14.9650   35.1210   70.6900 O.2       1 AZM        -0.1452
     10 O2         12.8640   34.3290   71.8050 O.2       1 AZM        -0.1452
     11 O3         15.8510   39.6270   73.3100 O.2       1 AZM        -0.3804
     12 S1         14.3670   34.5830   71.9940 S.o2      1 AZM         0.0991
     13 S2         15.2140   37.2220   73.1180 S.3       1 AZM         0.0874
     14 H1         16.5446   41.7578   74.5313 H         1 AZM         0.0474
     15 H2         17.0410   40.7805   75.9544 H         1 AZM         0.0474
     16 H3         15.3569   41.3926   75.8285 H         1 AZM         0.0474
     17 H4         15.0125   32.5205   71.7387 H         1 AZM         0.1638
     18 H5         15.5306   33.2248   73.2339 H         1 AZM         0.1638
     19 H6         15.3342   38.8457   76.3127 H         1 AZM         0.2411
@<TRIPOS>BOND
     1    1    7 2  
     2    1   12 1  
     3   13    1 1  
     4    2    6 2  
     5    8    2 1  
     6    2   13 1  
     7    3    4 1  
     8    3    8 am 
     9    3   11 2  
    10   12    5 am 
    11    6    7 1  
    12   12    9 2  
    13   12   10 2  
    14    4   14 1  
    15    4   15 1  
    16    4   16 1  
    17    5   17 1  
    18    5   18 1  
    19    8   19 1  
@<TRIPOS>SUBSTRUCTURE
     1 AZM         1

