### 
### Created by X-TOOL on Mon Sep 10 21:13:04 2018
### 

@<TRIPOS>MOLECULE
2xuc_ligand
   20    19     1     0     0
SMALL
GAST_HUCK


@<TRIPOS>ATOM
      1 CAB       -10.1290    9.1880   -2.3020 C.3       1 XRG         0.0199
      2 NAF       -10.2250   10.2210   -3.3160 N.am      1 XRG        -0.2765
      3 CAI       -11.4270   10.7740   -3.4010 C.2       1 XRG         0.2581
      4 OAD       -12.3980   10.3960   -2.7250 O.2       1 XRG        -0.4011
      5 NAG       -11.5600   11.7480   -4.3250 N.am      1 XRG        -0.2103
      6 CAH       -12.6890   12.3790   -4.5950 C.cat     1 XRG         0.3279
      7 NAC       -13.7650   12.1810   -3.8600 N.pl3     1 XRG        -0.2545
      8 NAE       -12.7390   13.2320   -5.6150 N.pl3     1 XRG        -0.2447
      9 CAA       -14.0320   13.9780   -5.8820 C.3       1 XRG         0.0778
     10 H1         -9.1081    8.7786   -2.2912 H         1 XRG         0.0481
     11 H2        -10.8442    8.3837   -2.5291 H         1 XRG         0.0481
     12 H3        -10.3618    9.6184   -1.3169 H         1 XRG         0.0481
     13 H4         -9.4566   10.4907   -3.8964 H         1 XRG         0.1841
     14 H5        -10.7458   12.0112   -4.8426 H         1 XRG         0.1851
     15 H6        -14.6388   12.6794   -4.0814 H         1 XRG         0.3198
     16 H7        -13.7321   11.5279   -3.0642 H         1 XRG         0.3198
     17 H8        -11.9139   13.3830   -6.2128 H         1 XRG         0.3221
     18 H9        -13.9022   14.6364   -6.7536 H         1 XRG         0.0760
     19 H10       -14.2949   14.5828   -5.0016 H         1 XRG         0.0760
     20 H11       -14.8368   13.2560   -6.0846 H         1 XRG         0.0760
@<TRIPOS>BOND
     1    1    2 1  
     2    2    3 am 
     3    3    4 2  
     4    3    5 am 
     5    5    6 ar 
     6    6    7 ar 
     7    6    8 ar 
     8    8    9 1  
     9    1   10 1  
    10    1   11 1  
    11    1   12 1  
    12    2   13 1  
    13    5   14 1  
    14    7   15 1  
    15    7   16 1  
    16    8   17 1  
    17    9   18 1  
    18    9   19 1  
    19    9   20 1  
@<TRIPOS>SUBSTRUCTURE
     1 XRG         1

