### 
### Created by X-TOOL on Mon Sep 10 21:13:03 2018
### 

@<TRIPOS>MOLECULE
2xuf_ligand
   92    99     1     0     0
SMALL
GAST_HUCK


@<TRIPOS>ATOM
      1 N3         40.3520   29.9790    7.1050 N.pl3     1 TZ4        -0.3390
      2 C19        40.1810   28.8520    7.8840 C.ar      1 TZ4         0.0271
      3 C18        41.2360   28.3930    8.7520 C.ar      1 TZ4        -0.0530
      4 C17        41.0520   27.2600    9.5310 C.ar      1 TZ4        -0.0760
      5 C16        39.8210   26.4990    9.5120 C.ar      1 TZ4        -0.0361
      6 C14        38.7650   26.9610    8.6390 C.ar      1 TZ4        -0.0145
      7 C15        38.9820   28.1460    7.8270 C.ar      1 TZ4        -0.0409
      8 C7         37.5850   26.1660    8.4510 C.3       1 TZ4         0.1019
      9 C8         36.5150   26.7210    7.5420 C.ar      1 TZ4        -0.0075
     10 C9         35.6660   27.7100    8.0930 C.ar      1 TZ4        -0.0562
     11 C10        34.6660   28.2960    7.3130 C.ar      1 TZ4        -0.0681
     12 C11        34.5180   27.8820    5.9860 C.ar      1 TZ4        -0.0685
     13 C12        35.3590   26.8960    5.4320 C.ar      1 TZ4        -0.0681
     14 C13        36.3650   26.3110    6.2060 C.ar      1 TZ4        -0.0562
     15 C4         39.6620   25.2160   10.1890 C.ar      1 TZ4        -0.0206
     16 C3         40.6680   24.6430   11.0600 C.ar      1 TZ4        -0.0789
     17 C2         40.5000   23.4150   11.6690 C.ar      1 TZ4        -0.0582
     18 C1         39.3020   22.6650   11.4600 C.ar      1 TZ4         0.0225
     19 N1         39.1150   21.4340   12.0450 N.pl3     1 TZ4        -0.3397
     20 C6         38.4520   24.4450    9.9780 C.ar      1 TZ4         0.0395
     21 C5         38.3070   23.1830   10.6360 C.ar      1 TZ4        -0.0279
     22 N2         37.4640   24.9760    9.1100 N.pl3     1 TZ4        -0.2861
     23 C20        36.2510   24.1310    8.8930 C.3       1 TZ4         0.0315
     24 C21        35.0330   24.2700    9.8040 C.3       1 TZ4        -0.0328
     25 C22        33.8580   23.6680    9.0270 C.3       1 TZ4        -0.0511
     26 C23        33.3770   22.2960    9.4880 C.3       1 TZ4        -0.0517
     27 C24        31.8650   22.0570    9.3390 C.3       1 TZ4        -0.0462
     28 C25        30.9490   22.8370   10.3050 C.3       1 TZ4        -0.0185
     29 C26        29.6390   22.0960   10.4890 C.2       1 TZ4         0.0370
     30 N4         29.6010   20.9660   11.1990 N.2       1 TZ4        -0.2265
     31 N5         28.3460   20.5680   11.1880 N.2       1 TZ4        -0.1019
     32 N6         27.5830   21.3980   10.4930 N.pl3     1 TZ4        -0.1792
     33 C27        28.3600   22.4080   10.0090 C.2       1 TZ4         0.0694
     34 C28        26.1250   21.2980   10.2430 C.3       1 TZ4         0.0969
     35 C29        25.1940   22.1270   11.1740 C.3       1 TZ4         0.0646
     36 N7         25.2580   21.8440   12.6340 N.pl3     1 TZ4        -0.2935
     37 C30        26.4500   21.8340   13.3760 C.ar      1 TZ4         0.0977
     38 C31        26.6590   20.6940   14.2360 C.ar      1 TZ4         0.0377
     39 C32        25.7730   19.5370   14.3060 C.ar      1 TZ4        -0.0468
     40 C33        27.8940   20.5880   14.9800 C.ar      1 TZ4         0.0172
     41 C34        28.2310   19.3700   15.7140 C.ar      1 TZ4        -0.0497
     42 C35        27.3550   18.2940   15.7460 C.ar      1 TZ4        -0.0615
     43 C36        26.1190   18.3910   15.0230 C.ar      1 TZ4        -0.0598
     44 N8         28.8420   21.5430   14.9330 N.ar      1 TZ4        -0.3395
     45 C37        28.6760   22.6210   14.1210 C.ar      1 TZ4         0.0172
     46 C38        29.7250   23.6280   14.1580 C.ar      1 TZ4        -0.0497
     47 C39        27.4700   22.8370   13.3500 C.ar      1 TZ4         0.0377
     48 C40        27.3330   24.1280   12.7050 C.ar      1 TZ4        -0.0468
     49 C41        28.3300   25.0820   12.7730 C.ar      1 TZ4        -0.0598
     50 C42        29.5950   24.7770   13.4060 C.ar      1 TZ4        -0.0615
     51 H          41.2312   30.4950    7.1405 H         1 TZ4         0.1716
     52 H          39.5992   30.2956    6.4939 H         1 TZ4         0.1716
     53 H          42.1796   28.9368    8.7964 H         1 TZ4         0.0460
     54 H          41.8633   26.9312   10.1805 H         1 TZ4         0.0544
     55 H          38.1910   28.4891    7.1602 H         1 TZ4         0.0452
     56 H          37.1112   25.2089    8.2328 H         1 TZ4         0.0872
     57 H          35.7929   28.0162    9.1314 H         1 TZ4         0.0561
     58 H          34.0131   29.0620    7.7315 H         1 TZ4         0.0600
     59 H          33.7387   28.3295    5.3691 H         1 TZ4         0.0561
     60 H          35.2242   26.5883    4.3951 H         1 TZ4         0.0600
     61 H          37.0210   25.5510    5.7815 H         1 TZ4         0.0561
     62 H          41.5877   25.1995   11.2406 H         1 TZ4         0.0537
     63 H          41.2847   23.0162   12.3119 H         1 TZ4         0.0412
     64 H          38.2553   20.9127   11.8727 H         1 TZ4         0.1719
     65 H          39.8360   21.0425   12.6511 H         1 TZ4         0.1719
     66 H          37.3912   22.6108   10.4878 H         1 TZ4         0.0403
     67 H          36.5998   23.1130    9.0663 H         1 TZ4         0.0519
     68 H          35.8866   24.4334    7.9113 H         1 TZ4         0.0519
     69 H          34.8462   25.3132   10.0590 H         1 TZ4         0.0284
     70 H          35.1866   23.7544   10.7520 H         1 TZ4         0.0284
     71 H          34.2052   23.5398    8.0018 H         1 TZ4         0.0266
     72 H          33.0185   24.3484    9.1699 H         1 TZ4         0.0266
     73 H          33.6051   22.2222   10.5513 H         1 TZ4         0.0266
     74 H          33.8767   21.5586    8.8597 H         1 TZ4         0.0266
     75 H          31.7027   21.0009    9.5543 H         1 TZ4         0.0281
     76 H          31.6028   22.3927    8.3357 H         1 TZ4         0.0281
     77 H          30.7473   23.8243    9.8895 H         1 TZ4         0.0380
     78 H          31.4453   22.9334   11.2707 H         1 TZ4         0.0380
     79 H          28.0583   23.2564    9.3948 H         1 TZ4         0.0898
     80 H          25.8637   20.2534   10.4123 H         1 TZ4         0.0670
     81 H          25.9667   21.6883    9.2377 H         1 TZ4         0.0670
     82 H          24.1771   21.8785   10.8703 H         1 TZ4         0.0569
     83 H          25.5118   23.1635   11.0608 H         1 TZ4         0.0569
     84 H          24.3855   21.6459   13.1237 H         1 TZ4         0.1943
     85 H          24.8162   19.5686   13.7848 H         1 TZ4         0.0675
     86 H          29.1820   19.3059   16.2428 H         1 TZ4         0.0582
     87 H          27.6007   17.3935   16.3088 H         1 TZ4         0.0657
     88 H          25.4311   17.5456   15.0343 H         1 TZ4         0.0582
     89 H          30.6093   23.4754   14.7768 H         1 TZ4         0.0582
     90 H          26.4204   24.3517   12.1525 H         1 TZ4         0.0675
     91 H          28.1626   26.0712   12.3469 H         1 TZ4         0.0582
     92 H          30.4421   25.4528   13.2890 H         1 TZ4         0.0657
@<TRIPOS>BOND
     1    1    2 1  
     2    2    3 ar 
     3    2    7 ar 
     4    3    4 ar 
     5    4    5 ar 
     6    5    6 ar 
     7    5   15 1  
     8    6    7 ar 
     9    6    8 1  
    10    8    9 1  
    11    8   22 1  
    12    9   10 ar 
    13    9   14 ar 
    14   10   11 ar 
    15   11   12 ar 
    16   12   13 ar 
    17   13   14 ar 
    18   15   16 ar 
    19   15   20 ar 
    20   16   17 ar 
    21   17   18 ar 
    22   18   19 1  
    23   18   21 ar 
    24   20   21 ar 
    25   20   22 1  
    26   22   23 1  
    27   23   24 1  
    28   24   25 1  
    29   25   26 1  
    30   26   27 1  
    31   27   28 1  
    32   28   29 1  
    33   29   30 1  
    34   29   33 2  
    35   30   31 2  
    36   31   32 1  
    37   32   33 1  
    38   32   34 1  
    39   34   35 1  
    40   35   36 1  
    41   36   37 1  
    42   37   38 ar 
    43   37   47 ar 
    44   38   39 ar 
    45   38   40 ar 
    46   39   43 ar 
    47   40   41 ar 
    48   40   44 ar 
    49   41   42 ar 
    50   42   43 ar 
    51   44   45 ar 
    52   45   46 ar 
    53   45   47 ar 
    54   46   50 ar 
    55   47   48 ar 
    56   48   49 ar 
    57   49   50 ar 
    58    1   51 1  
    59    1   52 1  
    60    3   53 1  
    61    4   54 1  
    62    7   55 1  
    63    8   56 1  
    64   10   57 1  
    65   11   58 1  
    66   12   59 1  
    67   13   60 1  
    68   14   61 1  
    69   16   62 1  
    70   17   63 1  
    71   19   64 1  
    72   19   65 1  
    73   21   66 1  
    74   23   67 1  
    75   23   68 1  
    76   24   69 1  
    77   24   70 1  
    78   25   71 1  
    79   25   72 1  
    80   26   73 1  
    81   26   74 1  
    82   27   75 1  
    83   27   76 1  
    84   28   77 1  
    85   28   78 1  
    86   33   79 1  
    87   34   80 1  
    88   34   81 1  
    89   35   82 1  
    90   35   83 1  
    91   36   84 1  
    92   39   85 1  
    93   41   86 1  
    94   42   87 1  
    95   43   88 1  
    96   46   89 1  
    97   48   90 1  
    98   49   91 1  
    99   50   92 1  
@<TRIPOS>SUBSTRUCTURE
     1 TZ4         1

