### 
### Created by X-TOOL on Mon Sep 10 21:13:03 2018
### 

@<TRIPOS>MOLECULE
2xui_ligand
   92    99     1     0     0
SMALL
GAST_HUCK


@<TRIPOS>ATOM
      1 N2         35.7840   19.9500    4.7030 N.pl3     1 TZ5        -0.3397
      2 C8         35.6130   21.2780    5.0650 C.ar      1 TZ5         0.0225
      3 C7         35.4760   22.3420    4.1020 C.ar      1 TZ5        -0.0582
      4 C6         35.2920   23.6620    4.5030 C.ar      1 TZ5        -0.0789
      5 C5         35.2620   24.0430    5.9110 C.ar      1 TZ5        -0.0206
      6 C19        35.5690   21.6260    6.4200 C.ar      1 TZ5        -0.0279
      7 C18        35.3610   22.9730    6.8740 C.ar      1 TZ5         0.0395
      8 N3         35.5260   23.3320    8.2310 N.pl3     1 TZ5        -0.2861
      9 C11        35.6750   24.5840    8.7130 C.3       1 TZ5         0.1019
     10 C12        35.8680   24.8270   10.1740 C.ar      1 TZ5        -0.0075
     11 C13        37.1700   24.7180   10.7010 C.ar      1 TZ5        -0.0562
     12 C14        37.3390   24.9660   12.0810 C.ar      1 TZ5        -0.0681
     13 C15        36.2430   25.3040   12.9010 C.ar      1 TZ5        -0.0685
     14 C16        34.9380   25.4140   12.3600 C.ar      1 TZ5        -0.0681
     15 C17        34.7560   25.1650   10.9960 C.ar      1 TZ5        -0.0562
     16 C10        35.6180   25.6820    7.8070 C.ar      1 TZ5        -0.0145
     17 C9         35.3190   26.9890    8.3280 C.ar      1 TZ5        -0.0409
     18 C4         35.4200   25.4320    6.3850 C.ar      1 TZ5        -0.0361
     19 C3         34.9500   26.5470    5.6080 C.ar      1 TZ5        -0.0760
     20 C2         34.6710   27.7850    6.1390 C.ar      1 TZ5        -0.0530
     21 C1         34.8520   28.0180    7.5290 C.ar      1 TZ5         0.0271
     22 N1         34.5960   29.2650    8.0790 N.pl3     1 TZ5        -0.3390
     23 C20        35.5590   22.2210    9.2150 C.3       1 TZ5         0.0315
     24 C21        34.2340   21.4630    9.3920 C.3       1 TZ5        -0.0328
     25 C22        32.9860   22.3460    9.2560 C.3       1 TZ5        -0.0511
     26 C23        31.7360   21.4940    9.3480 C.3       1 TZ5        -0.0509
     27 C24        30.6430   22.3660    9.9360 C.3       1 TZ5        -0.0395
     28 C25        29.4370   21.5750   10.4140 C.3       1 TZ5         0.0117
     29 C26        29.7720   20.6110   11.5010 C.2       1 TZ5         0.0901
     30 N4         30.4070   20.6800   12.6990 N.pl3     1 TZ5        -0.1693
     31 N5         30.4190   19.4950   13.2630 N.2       1 TZ5        -0.1095
     32 N6         29.8250   18.6020   12.5330 N.2       1 TZ5        -0.2428
     33 C27        29.4380   19.2730   11.4620 C.2       1 TZ5         0.0180
     34 C28        30.9820   21.8940   13.2950 C.3       1 TZ5         0.0984
     35 C29        29.9320   22.8600   13.8490 C.3       1 TZ5         0.0644
     36 N7         29.0100   22.2310   14.8210 N.pl3     1 TZ5        -0.2935
     37 C30        27.7460   21.7750   14.4180 C.ar      1 TZ5         0.0977
     38 C31        26.8790   22.4390   13.4940 C.ar      1 TZ5         0.0377
     39 C32        27.0690   23.8210   13.0670 C.ar      1 TZ5        -0.0468
     40 C33        25.6200   21.8180   13.1580 C.ar      1 TZ5         0.0172
     41 C34        24.6140   22.5240   12.3980 C.ar      1 TZ5        -0.0497
     42 C35        24.8490   23.8290   12.0090 C.ar      1 TZ5        -0.0615
     43 C36        26.0970   24.4790   12.3450 C.ar      1 TZ5        -0.0598
     44 N8         25.2370   20.6490   13.6950 N.ar      1 TZ5        -0.3395
     45 C37        26.0430   19.9970   14.5760 C.ar      1 TZ5         0.0172
     46 C38        25.6250   18.6680   15.0000 C.ar      1 TZ5        -0.0497
     47 C39        27.3190   20.5310   14.9880 C.ar      1 TZ5         0.0377
     48 C40        28.1300   19.6980   15.8640 C.ar      1 TZ5        -0.0468
     49 C41        27.6720   18.4400   16.2450 C.ar      1 TZ5        -0.0598
     50 C42        26.5720   17.8310   15.5500 C.ar      1 TZ5        -0.0615
     51 H          35.8174   19.6904    3.7172 H         1 TZ5         0.1719
     52 H          35.8763   19.2331    5.4226 H         1 TZ5         0.1719
     53 H          35.5174   22.1080    3.0382 H         1 TZ5         0.0412
     54 H          35.1667   24.4334    3.7432 H         1 TZ5         0.0537
     55 H          35.6983   20.8399    7.1639 H         1 TZ5         0.0403
     56 H          36.5454   24.3426    9.3231 H         1 TZ5         0.0872
     57 H          38.0158   24.4520   10.0670 H         1 TZ5         0.0561
     58 H          38.3342   24.8949   12.5199 H         1 TZ5         0.0600
     59 H          36.4015   25.4829   13.9645 H         1 TZ5         0.0561
     60 H          34.0940   25.6869   12.9935 H         1 TZ5         0.0600
     61 H          33.7589   25.2300   10.5606 H         1 TZ5         0.0561
     62 H          35.4657   27.1759    9.3918 H         1 TZ5         0.0452
     63 H          34.8066   26.4030    4.5371 H         1 TZ5         0.0544
     64 H          34.3113   28.5866    5.4939 H         1 TZ5         0.0460
     65 H          34.2737   30.0283    7.4842 H         1 TZ5         0.1716
     66 H          34.7300   29.4189    9.0784 H         1 TZ5         0.1716
     67 H          35.7960   22.6661   10.1813 H         1 TZ5         0.0519
     68 H          36.2860   21.4977    8.8457 H         1 TZ5         0.0519
     69 H          34.2298   21.0509   10.4011 H         1 TZ5         0.0284
     70 H          34.1847   20.7104    8.6051 H         1 TZ5         0.0284
     71 H          33.0065   22.8496    8.2895 H         1 TZ5         0.0266
     72 H          32.9782   23.0823   10.0597 H         1 TZ5         0.0266
     73 H          31.9112   20.6210    9.9767 H         1 TZ5         0.0267
     74 H          31.4472   21.1276    8.3629 H         1 TZ5         0.0267
     75 H          30.3038   23.0433    9.1522 H         1 TZ5         0.0290
     76 H          31.0619   22.8828   10.7994 H         1 TZ5         0.0290
     77 H          29.0554   21.0041    9.5675 H         1 TZ5         0.0472
     78 H          28.7085   22.2832   10.8088 H         1 TZ5         0.0472
     79 H          28.9064   18.8137   10.6286 H         1 TZ5         0.0436
     80 H          31.5263   22.4179   12.5093 H         1 TZ5         0.0667
     81 H          31.6120   21.5826   14.1282 H         1 TZ5         0.0667
     82 H          29.3336   23.2122   13.0088 H         1 TZ5         0.0568
     83 H          30.4617   23.6589   14.3679 H         1 TZ5         0.0568
     84 H          29.2967   22.1279   15.7944 H         1 TZ5         0.1943
     85 H          27.9926   24.3403   13.3226 H         1 TZ5         0.0675
     86 H          23.6781   22.0316   12.1339 H         1 TZ5         0.0582
     87 H          24.0898   24.3717   11.4458 H         1 TZ5         0.0657
     88 H          26.2712   25.5054   12.0220 H         1 TZ5         0.0582
     89 H          24.5907   18.3438   14.8855 H         1 TZ5         0.0582
     90 H          29.0946   20.0589   16.2211 H         1 TZ5         0.0675
     91 H          28.1492   17.9156   17.0729 H         1 TZ5         0.0582
     92 H          26.4894   16.7478   15.4610 H         1 TZ5         0.0657
@<TRIPOS>BOND
     1    1    2 1  
     2    2    3 ar 
     3    2    6 ar 
     4    3    4 ar 
     5    4    5 ar 
     6    5    7 ar 
     7    5   18 1  
     8    6    7 ar 
     9    7    8 1  
    10    8    9 1  
    11    8   23 1  
    12    9   10 1  
    13    9   16 1  
    14   10   11 ar 
    15   10   15 ar 
    16   11   12 ar 
    17   12   13 ar 
    18   13   14 ar 
    19   14   15 ar 
    20   16   17 ar 
    21   16   18 ar 
    22   17   21 ar 
    23   18   19 ar 
    24   19   20 ar 
    25   20   21 ar 
    26   21   22 1  
    27   23   24 1  
    28   24   25 1  
    29   25   26 1  
    30   26   27 1  
    31   27   28 1  
    32   28   29 1  
    33   29   30 1  
    34   29   33 2  
    35   30   31 1  
    36   30   34 1  
    37   31   32 2  
    38   32   33 1  
    39   34   35 1  
    40   35   36 1  
    41   36   37 1  
    42   37   38 ar 
    43   37   47 ar 
    44   38   39 ar 
    45   38   40 ar 
    46   39   43 ar 
    47   40   41 ar 
    48   40   44 ar 
    49   41   42 ar 
    50   42   43 ar 
    51   44   45 ar 
    52   45   46 ar 
    53   45   47 ar 
    54   46   50 ar 
    55   47   48 ar 
    56   48   49 ar 
    57   49   50 ar 
    58    1   51 1  
    59    1   52 1  
    60    3   53 1  
    61    4   54 1  
    62    6   55 1  
    63    9   56 1  
    64   11   57 1  
    65   12   58 1  
    66   13   59 1  
    67   14   60 1  
    68   15   61 1  
    69   17   62 1  
    70   19   63 1  
    71   20   64 1  
    72   22   65 1  
    73   22   66 1  
    74   23   67 1  
    75   23   68 1  
    76   24   69 1  
    77   24   70 1  
    78   25   71 1  
    79   25   72 1  
    80   26   73 1  
    81   26   74 1  
    82   27   75 1  
    83   27   76 1  
    84   28   77 1  
    85   28   78 1  
    86   33   79 1  
    87   34   80 1  
    88   34   81 1  
    89   35   82 1  
    90   35   83 1  
    91   36   84 1  
    92   39   85 1  
    93   41   86 1  
    94   42   87 1  
    95   43   88 1  
    96   46   89 1  
    97   48   90 1  
    98   49   91 1  
    99   50   92 1  
@<TRIPOS>SUBSTRUCTURE
     1 TZ5         1

