### 
### Created by X-TOOL on Mon Sep 10 21:13:03 2018
### 

@<TRIPOS>MOLECULE
2xup_ligand
   92    99     1     0     0
SMALL
GAST_HUCK


@<TRIPOS>ATOM
      1 N2         36.4270   20.1980    4.5330 N.pl3     1 TZ5        -0.3397
      2 C8         36.2540   21.5140    4.8970 C.ar      1 TZ5         0.0225
      3 C7         36.1870   22.5530    3.9230 C.ar      1 TZ5        -0.0582
      4 C6         36.0060   23.8580    4.3050 C.ar      1 TZ5        -0.0789
      5 C5         35.8880   24.2150    5.6890 C.ar      1 TZ5        -0.0206
      6 C19        36.1340   21.8320    6.2430 C.ar      1 TZ5        -0.0279
      7 C18        35.9580   23.1690    6.6570 C.ar      1 TZ5         0.0395
      8 N3         35.9270   23.5410    8.0060 N.pl3     1 TZ5        -0.2861
      9 C11        35.8350   24.8060    8.4620 C.3       1 TZ5         0.1019
     10 C12        35.8130   24.9890    9.9480 C.ar      1 TZ5        -0.0075
     11 C13        34.6010   25.1710   10.6110 C.ar      1 TZ5        -0.0562
     12 C14        34.5840   25.3160   11.9940 C.ar      1 TZ5        -0.0681
     13 C15        35.7840   25.2640   12.7020 C.ar      1 TZ5        -0.0685
     14 C16        37.0000   25.0660   12.0460 C.ar      1 TZ5        -0.0681
     15 C17        37.0120   24.9230   10.6640 C.ar      1 TZ5        -0.0562
     16 C10        35.7610   25.8810    7.5350 C.ar      1 TZ5        -0.0145
     17 C9         35.6920   27.2530    7.9650 C.ar      1 TZ5        -0.0409
     18 C4         35.7880   25.5930    6.1290 C.ar      1 TZ5        -0.0361
     19 C3         35.7460   26.7000    5.2270 C.ar      1 TZ5        -0.0760
     20 C2         35.6800   28.0110    5.6590 C.ar      1 TZ5        -0.0530
     21 C1         35.6500   28.3050    7.0530 C.ar      1 TZ5         0.0271
     22 N1         35.5880   29.6210    7.4850 N.pl3     1 TZ5        -0.3390
     23 C20        35.9950   22.4830    9.0560 C.3       1 TZ5         0.0315
     24 C21        34.8290   21.4920    9.1750 C.3       1 TZ5        -0.0328
     25 C22        33.4430   22.1600    9.2530 C.3       1 TZ5        -0.0511
     26 C23        32.2710   21.1860    9.4820 C.3       1 TZ5        -0.0509
     27 C24        30.9400   21.9340    9.6840 C.3       1 TZ5        -0.0395
     28 C25        29.8160   21.0990   10.3350 C.3       1 TZ5         0.0117
     29 C26        30.2550   20.1500   11.4140 C.2       1 TZ5         0.0901
     30 N4         30.9030   20.3040   12.5970 N.pl3     1 TZ5        -0.1693
     31 N5         31.0740   19.1360   13.2020 N.2       1 TZ5        -0.1095
     32 N6         30.5700   18.1640   12.4860 N.2       1 TZ5        -0.2428
     33 C27        30.0810   18.7700   11.4050 C.2       1 TZ5         0.0180
     34 C28        31.3280   21.6280   13.0850 C.3       1 TZ5         0.0984
     35 C29        30.1590   22.4790   13.6160 C.3       1 TZ5         0.0644
     36 N7         29.3480   21.7220   14.5980 N.pl3     1 TZ5        -0.2935
     37 C30        28.0910   21.3170   14.1750 C.ar      1 TZ5         0.0977
     38 C31        27.1710   22.0840   13.4090 C.ar      1 TZ5         0.0377
     39 C32        27.4110   23.4370   12.9580 C.ar      1 TZ5        -0.0468
     40 C33        25.9290   21.4920   13.0340 C.ar      1 TZ5         0.0172
     41 C34        24.9830   22.2250   12.2310 C.ar      1 TZ5        -0.0497
     42 C35        25.2610   23.5060   11.8270 C.ar      1 TZ5        -0.0615
     43 C36        26.4990   24.1220   12.1980 C.ar      1 TZ5        -0.0598
     44 N8         25.5980   20.2380   13.3870 N.ar      1 TZ5        -0.3395
     45 C37        26.4650   19.4910   14.1010 C.ar      1 TZ5         0.0172
     46 C38        26.0170   18.2070   14.5790 C.ar      1 TZ5        -0.0497
     47 C39        27.7230   19.9980   14.5400 C.ar      1 TZ5         0.0377
     48 C40        28.4570   19.1970   15.5040 C.ar      1 TZ5        -0.0468
     49 C41        27.9600   17.9880   15.9210 C.ar      1 TZ5        -0.0598
     50 C42        26.9300   17.3780   15.1520 C.ar      1 TZ5        -0.0615
     51 H1         36.5176   19.9464    3.5383 H         1 TZ5         0.1719
     52 H2         36.4659   19.4647    5.2553 H         1 TZ5         0.1719
     53 H3         36.2800   22.3095    2.8708 H         1 TZ5         0.0412
     54 H4         35.9513   24.6322    3.5483 H         1 TZ5         0.0537
     55 H5         36.1761   21.0430    6.9852 H         1 TZ5         0.0403
     56 H6         36.9309   24.9006    8.4673 H         1 TZ5         0.0872
     57 H7         33.6738   25.1995   10.0502 H         1 TZ5         0.0561
     58 H8         33.6466   25.4680   12.5167 H         1 TZ5         0.0600
     59 H9         35.7724   25.3793   13.7798 H         1 TZ5         0.0561
     60 H10        37.9254   25.0242   12.6089 H         1 TZ5         0.0600
     61 H11        37.9483   24.7607   10.1424 H         1 TZ5         0.0561
     62 H12        35.6722   27.4732    9.0262 H         1 TZ5         0.0452
     63 H13        35.7667   26.5038    4.1611 H         1 TZ5         0.0544
     64 H14        35.6510   28.8178    4.9356 H         1 TZ5         0.0460
     65 H15        35.5664   29.8317    8.4930 H         1 TZ5         0.1716
     66 H16        35.5636   30.3880    6.7979 H         1 TZ5         0.1716
     67 H17        36.0870   22.9937   10.0259 H         1 TZ5         0.0519
     68 H18        36.9037   21.8934    8.8643 H         1 TZ5         0.0519
     69 H19        34.9758   20.8932   10.0859 H         1 TZ5         0.0284
     70 H20        34.8454   20.8316    8.2954 H         1 TZ5         0.0284
     71 H21        33.2657   22.6930    8.3072 H         1 TZ5         0.0266
     72 H22        33.4564   22.8812   10.0835 H         1 TZ5         0.0266
     73 H23        32.4795   20.5814   10.3770 H         1 TZ5         0.0267
     74 H24        32.1797   20.5260    8.6068 H         1 TZ5         0.0267
     75 H25        30.5864   22.2738    8.6994 H         1 TZ5         0.0290
     76 H26        31.1325   22.8065   10.3256 H         1 TZ5         0.0290
     77 H27        29.3299   20.5100    9.5433 H         1 TZ5         0.0472
     78 H28        29.0869   21.7962   10.7735 H         1 TZ5         0.0472
     79 H29        29.5917   18.2358   10.5919 H         1 TZ5         0.0436
     80 H30        31.8072   22.1696   12.2561 H         1 TZ5         0.0667
     81 H31        32.0547   21.4849   13.8983 H         1 TZ5         0.0667
     82 H32        29.5176   22.7739   12.7724 H         1 TZ5         0.0568
     83 H33        30.5625   23.3795   14.1021 H         1 TZ5         0.0568
     84 H34        29.6985   21.5084   15.5427 H         1 TZ5         0.1943
     85 H35        28.3405   23.9242   13.2293 H         1 TZ5         0.0675
     86 H36        24.0461   21.7612   11.9445 H         1 TZ5         0.0582
     87 H37        24.5428   24.0524   11.2264 H         1 TZ5         0.0657
     88 H38        26.7159   25.1343   11.8765 H         1 TZ5         0.0582
     89 H39        24.9788   17.9099   14.4841 H         1 TZ5         0.0582
     90 H40        29.4018   19.5560   15.8958 H         1 TZ5         0.0675
     91 H41        28.3429   17.5091   16.8149 H         1 TZ5         0.0582
     92 H42        26.8756   16.3024   15.0286 H         1 TZ5         0.0657
@<TRIPOS>BOND
     1    1    2 1  
     2    2    3 ar 
     3    2    6 ar 
     4    3    4 ar 
     5    4    5 ar 
     6    5    7 ar 
     7    5   18 1  
     8    6    7 ar 
     9    7    8 1  
    10    8    9 1  
    11    8   23 1  
    12    9   10 1  
    13    9   16 1  
    14   10   11 ar 
    15   10   15 ar 
    16   11   12 ar 
    17   12   13 ar 
    18   13   14 ar 
    19   14   15 ar 
    20   16   17 ar 
    21   16   18 ar 
    22   17   21 ar 
    23   18   19 ar 
    24   19   20 ar 
    25   20   21 ar 
    26   21   22 1  
    27   23   24 1  
    28   24   25 1  
    29   25   26 1  
    30   26   27 1  
    31   27   28 1  
    32   28   29 1  
    33   29   30 1  
    34   29   33 2  
    35   30   31 1  
    36   30   34 1  
    37   31   32 2  
    38   32   33 1  
    39   34   35 1  
    40   35   36 1  
    41   36   37 1  
    42   37   38 ar 
    43   37   47 ar 
    44   38   39 ar 
    45   38   40 ar 
    46   39   43 ar 
    47   40   41 ar 
    48   40   44 ar 
    49   41   42 ar 
    50   42   43 ar 
    51   44   45 ar 
    52   45   46 ar 
    53   45   47 ar 
    54   46   50 ar 
    55   47   48 ar 
    56   48   49 ar 
    57   49   50 ar 
    58    1   51 1  
    59    1   52 1  
    60    3   53 1  
    61    4   54 1  
    62    6   55 1  
    63    9   56 1  
    64   11   57 1  
    65   12   58 1  
    66   13   59 1  
    67   14   60 1  
    68   15   61 1  
    69   17   62 1  
    70   19   63 1  
    71   20   64 1  
    72   22   65 1  
    73   22   66 1  
    74   23   67 1  
    75   23   68 1  
    76   24   69 1  
    77   24   70 1  
    78   25   71 1  
    79   25   72 1  
    80   26   73 1  
    81   26   74 1  
    82   27   75 1  
    83   27   76 1  
    84   28   77 1  
    85   28   78 1  
    86   33   79 1  
    87   34   80 1  
    88   34   81 1  
    89   35   82 1  
    90   35   83 1  
    91   36   84 1  
    92   39   85 1  
    93   41   86 1  
    94   42   87 1  
    95   43   88 1  
    96   46   89 1  
    97   48   90 1  
    98   49   91 1  
    99   50   92 1  
@<TRIPOS>SUBSTRUCTURE
     1 TZ5         1

