### 
### Created by X-TOOL on Mon Sep 10 21:13:06 2018
### 

@<TRIPOS>MOLECULE
2xuz_ligand
   75    78     1     0     0
SMALL
GAST_HUCK


@<TRIPOS>ATOM
      1 O6         -6.2640  -15.8570   10.7310 O.3       1 EB4        -0.3357
      2 O4         -5.3840  -16.7480   13.3240 O.3       1 EB4        -0.3357
      3 O5         -8.1890  -16.5500   12.7760 O.3       1 EB4        -0.3357
      4 N1         -4.0910  -21.3350   11.8160 N.am      1 EB4        -0.2634
      5 C5         -9.2690  -17.3290   13.0480 C.ar      1 EB4         0.1223
      6 C4         -4.2840  -17.5070   13.5710 C.ar      1 EB4         0.1223
      7 C1         -4.2290  -18.7610   12.9770 C.ar      1 EB4         0.1379
      8 C2         -9.1230  -18.6930   12.8010 C.ar      1 EB4         0.1379
      9 C6         -6.3860  -16.1120    9.3920 C.ar      1 EB4         0.1223
     10 C8        -10.4740  -16.8250   13.5370 C.ar      1 EB4        -0.0372
     11 N2         -8.9270  -21.4460   12.1840 N.am      1 EB4        -0.2634
     12 C9         -6.2370  -15.1160    8.4390 C.ar      1 EB4        -0.0372
     13 C10        -2.1690  -17.9190   14.5930 C.ar      1 EB4        -0.0763
     14 O3         -6.8290  -18.3630    9.9370 O.3       1 EB4        -0.3312
     15 N3         -6.8650  -20.1170    8.0650 N.am      1 EB4        -0.2634
     16 C16        -3.1470  -19.6260   13.1580 C.ar      1 EB4         0.0702
     17 C7         -3.2540  -17.0810   14.3870 C.ar      1 EB4        -0.0372
     18 C3         -6.6750  -17.4180    8.9890 C.ar      1 EB4         0.1379
     19 C11       -11.5220  -17.7130   13.7800 C.ar      1 EB4        -0.0763
     20 O1         -5.2730  -19.1240   12.1770 O.3       1 EB4        -0.3312
     21 O2         -7.9270  -19.1390   12.3340 O.3       1 EB4        -0.3312
     22 C12        -6.3700  -15.4510    7.0980 C.ar      1 EB4        -0.0763
     23 C15        -6.6500  -16.7630    6.7080 C.ar      1 EB4        -0.0617
     24 C14       -11.3590  -19.0800   13.5370 C.ar      1 EB4        -0.0617
     25 C13        -2.1220  -19.1820   13.9920 C.ar      1 EB4        -0.0617
     26 O7         -2.1550  -21.6940   12.9310 O.2       1 EB4        -0.3910
     27 C19        -3.0660  -20.9260   12.6000 C.2       1 EB4         0.1988
     28 C22        -4.1190  -22.7020   11.2620 C.3       1 EB4         0.1693
     29 C25        -4.2570  -22.6300    9.8770 C.2       1 EB4         0.2624
     30 O10        -3.2970  -22.8640    9.1410 O.2       1 EB4        -0.3677
     31 O15        -5.4680  -22.2240    9.4390 O.3       1 EB4        -0.2701
     32 C30        -5.5640  -22.1270    8.0170 C.3       1 EB4         0.1181
     33 C24        -6.9370  -21.5510    7.6830 C.3       1 EB4         0.1693
     34 C21        -7.0720  -19.0910    7.1900 C.2       1 EB4         0.1988
     35 C18        -6.8190  -17.7830    7.6480 C.ar      1 EB4         0.0702
     36 O9         -7.3560  -19.2660    6.0020 O.2       1 EB4        -0.3910
     37 C27        -7.9020  -22.3470    8.3420 C.2       1 EB4         0.2624
     38 O12        -8.0490  -23.5170    7.9830 O.2       1 EB4        -0.3677
     39 C28        -5.2470  -23.5150   11.9260 C.3       1 EB4         0.1181
     40 O13        -6.4940  -22.7430   11.9820 O.3       1 EB4        -0.2701
     41 C26        -7.6000  -23.4640   11.6160 C.2       1 EB4         0.2624
     42 O11        -7.5410  -24.6390   11.2590 O.2       1 EB4        -0.3677
     43 C23        -8.8630  -22.8300   11.6490 C.3       1 EB4         0.1693
     44 C29        -9.4130  -22.7340   10.1960 C.3       1 EB4         0.1181
     45 O14        -8.5950  -21.7940    9.3830 O.3       1 EB4        -0.2701
     46 C20       -10.0560  -20.9750   12.7770 C.2       1 EB4         0.1988
     47 O8        -11.0670  -21.6680   12.9200 O.2       1 EB4        -0.3910
     48 C17       -10.1450  -19.6060   13.0610 C.ar      1 EB4         0.0702
     49 H          -6.4006  -16.6693   11.2240 H         1 EB4         0.2443
     50 H          -5.3042  -15.9107   13.7868 H         1 EB4         0.2443
     51 H          -7.4454  -16.8380   13.3104 H         1 EB4         0.2443
     52 H          -4.8530  -20.6904   11.6058 H         1 EB4         0.1874
     53 H         -10.5945  -15.7582   13.7256 H         1 EB4         0.0543
     54 H          -8.1109  -20.8392   12.1052 H         1 EB4         0.1874
     55 H          -6.0197  -14.0902    8.7366 H         1 EB4         0.0543
     56 H          -1.3459  -17.5916   15.2282 H         1 EB4         0.0508
     57 H          -6.0199  -18.4365   10.4484 H         1 EB4         0.2472
     58 H          -6.6489  -19.8870    9.0349 H         1 EB4         0.1874
     59 H          -3.2938  -16.1007   14.8618 H         1 EB4         0.0543
     60 H         -12.4724  -17.3393   14.1611 H         1 EB4         0.0508
     61 H          -5.9247  -18.4193   12.1639 H         1 EB4         0.2472
     62 H          -7.7334  -18.7136   11.4955 H         1 EB4         0.2472
     63 H          -6.2542  -14.6784    6.3379 H         1 EB4         0.0508
     64 H          -6.7386  -16.9961    5.6469 H         1 EB4         0.0544
     65 H         -12.1944  -19.7554   13.7213 H         1 EB4         0.0544
     66 H          -1.2670  -19.8314   14.1797 H         1 EB4         0.0544
     67 H          -3.1847  -23.2205   11.4775 H         1 EB4         0.0843
     68 H          -5.4436  -23.1096    7.5608 H         1 EB4         0.0664
     69 H          -4.7768  -21.4818    7.6268 H         1 EB4         0.0664
     70 H          -7.2328  -21.5785    6.6343 H         1 EB4         0.0843
     71 H          -4.9450  -23.7632   12.9435 H         1 EB4         0.0664
     72 H          -5.4209  -24.4153   11.3366 H         1 EB4         0.0664
     73 H          -9.4341  -23.4562   12.3344 H         1 EB4         0.0843
     74 H         -10.4387  -22.3670   10.2318 H         1 EB4         0.0664
     75 H          -9.3717  -23.7224    9.7383 H         1 EB4         0.0664
@<TRIPOS>BOND
     1    9    1 1  
     2    6    2 1  
     3    5    3 1  
     4    4   27 am 
     5   28    4 1  
     6    8    5 ar 
     7    5   10 ar 
     8    7    6 ar 
     9    6   17 ar 
    10   16    7 ar 
    11    7   20 1  
    12    8   21 1  
    13   48    8 ar 
    14    9   12 ar 
    15   18    9 ar 
    16   19   10 ar 
    17   11   43 1  
    18   46   11 am 
    19   22   12 ar 
    20   13   17 ar 
    21   25   13 ar 
    22   18   14 1  
    23   33   15 1  
    24   15   34 am 
    25   16   25 ar 
    26   27   16 1  
    27   35   18 ar 
    28   24   19 ar 
    29   23   22 ar 
    30   35   23 ar 
    31   48   24 ar 
    32   27   26 2  
    33   28   29 1  
    34   39   28 1  
    35   29   30 2  
    36   29   31 1  
    37   32   31 1  
    38   33   32 1  
    39   37   33 1  
    40   34   35 1  
    41   34   36 2  
    42   37   38 2  
    43   45   37 1  
    44   40   39 1  
    45   41   40 1  
    46   41   42 2  
    47   43   41 1  
    48   43   44 1  
    49   44   45 1  
    50   46   47 2  
    51   46   48 1  
    52    1   49 1  
    53    2   50 1  
    54    3   51 1  
    55    4   52 1  
    56   10   53 1  
    57   11   54 1  
    58   12   55 1  
    59   13   56 1  
    60   14   57 1  
    61   15   58 1  
    62   17   59 1  
    63   19   60 1  
    64   20   61 1  
    65   21   62 1  
    66   22   63 1  
    67   23   64 1  
    68   24   65 1  
    69   25   66 1  
    70   28   67 1  
    71   32   68 1  
    72   32   69 1  
    73   33   70 1  
    74   39   71 1  
    75   39   72 1  
    76   43   73 1  
    77   44   74 1  
    78   44   75 1  
@<TRIPOS>SUBSTRUCTURE
     1 EB4         1

