### 
### Created by X-TOOL on Mon Sep 10 21:13:06 2018
### 

@<TRIPOS>MOLECULE
2xv1_ligand
   69    72     1     0     0
SMALL
GAST_HUCK


@<TRIPOS>ATOM
      1 O20        16.0540   16.1350   11.7830 O.3       1 ECA        -0.3357
      2 C17        17.0790   16.8550   12.3020 C.ar      1 ECA         0.1223
      3 C18        17.0530   18.2410   12.1670 C.ar      1 ECA         0.1379
      4 O19        15.9930   18.7640   11.5070 O.3       1 ECA        -0.3312
      5 C16        18.1270   16.2270   12.9780 C.ar      1 ECA        -0.0372
      6 C15        19.1510   17.0050   13.5060 C.ar      1 ECA        -0.0763
      7 C14        19.1290   18.3920   13.3560 C.ar      1 ECA        -0.0617
      8 C13        18.0750   19.0360   12.7040 C.ar      1 ECA         0.0702
      9 C11        18.1430   20.5900   12.5540 C.2       1 ECA         0.1983
     10 O12        19.0450   21.2150   13.1040 O.2       1 ECA        -0.3910
     11 N10        17.2360   21.1480   11.7470 N.am      1 ECA        -0.2771
     12 C9         17.1150   22.5780   11.3210 C.3       1 ECA         0.0607
     13 C2         16.2010   22.3560   10.1230 C.ar      1 ECA        -0.0345
     14 C1         14.8290   22.5370   10.2420 C.ar      1 ECA        -0.0623
     15 C3         16.7440   21.8520    8.9380 C.ar      1 ECA        -0.0623
     16 C4         15.9120   21.5900    7.8510 C.ar      1 ECA        -0.0345
     17 C8         16.5100   20.9980    6.5720 C.3       1 ECA         0.0607
     18 N21        16.1920   19.5660    6.8180 N.am      1 ECA        -0.2771
     19 C22        16.2070   18.5660    5.9300 C.2       1 ECA         0.1983
     20 O23        16.5420   18.6910    4.7500 O.2       1 ECA        -0.3910
     21 C24        15.7290   17.1870    6.4710 C.ar      1 ECA         0.0702
     22 C25        15.7580   16.0870    5.6120 C.ar      1 ECA        -0.0617
     23 C26        15.3370   14.8310    6.0430 C.ar      1 ECA        -0.0763
     24 C27        14.8580   14.6560    7.3400 C.ar      1 ECA        -0.0372
     25 C28        14.8100   15.7390    8.2100 C.ar      1 ECA         0.1223
     26 O31        14.3490   15.5820    9.4930 O.3       1 ECA        -0.3357
     27 C29        15.2440   16.9870    7.7790 C.ar      1 ECA         0.1379
     28 O30        15.1830   18.0020    8.6720 O.3       1 ECA        -0.3312
     29 C5         14.5300   21.7680    7.9620 C.ar      1 ECA        -0.0623
     30 C6         13.9970   22.2770    9.1520 C.ar      1 ECA        -0.0345
     31 C7         12.4860   22.4320    9.3290 C.3       1 ECA         0.0607
     32 N32        12.1900   21.1290   10.0200 N.am      1 ECA        -0.2771
     33 C33        11.1180   20.8500   10.7790 C.2       1 ECA         0.1983
     34 O34        10.1940   21.6450   10.9770 O.2       1 ECA        -0.3910
     35 C35        11.0850   19.4460   11.4560 C.ar      1 ECA         0.0702
     36 C36         9.9180   19.0730   12.1350 C.ar      1 ECA        -0.0617
     37 C37         9.8200   17.8330   12.7760 C.ar      1 ECA        -0.0763
     38 C38        10.9000   16.9490   12.7650 C.ar      1 ECA        -0.0372
     39 C39        12.0710   17.3130   12.1040 C.ar      1 ECA         0.1223
     40 O42        13.1520   16.4850   12.0820 O.3       1 ECA        -0.3357
     41 C40        12.1690   18.5450   11.4630 C.ar      1 ECA         0.1379
     42 O41        13.3500   18.8030   10.8460 O.3       1 ECA        -0.3312
     43 H          15.2316   16.4068   12.1970 H         1 ECA         0.2443
     44 H          15.9683   18.4125   10.6141 H         1 ECA         0.2472
     45 H          18.1420   15.1429   13.0901 H         1 ECA         0.0543
     46 H          19.9743   16.5296   14.0392 H         1 ECA         0.0508
     47 H          19.9514   18.9852   13.7559 H         1 ECA         0.0544
     48 H          16.5311   20.5142   11.3705 H         1 ECA         0.1867
     49 H          18.0543   23.0893   11.1103 H         1 ECA         0.0680
     50 H          16.7417   23.2668   12.0788 H         1 ECA         0.0680
     51 H          14.4031   22.8813   11.1844 H         1 ECA         0.0440
     52 H          17.8152   21.6643    8.8641 H         1 ECA         0.0440
     53 H          17.5655   21.2166    6.4102 H         1 ECA         0.0680
     54 H          16.1133   21.4073    5.6429 H         1 ECA         0.0680
     55 H          15.9329   19.3183    7.7730 H         1 ECA         0.1867
     56 H          16.1150   16.2126    4.5898 H         1 ECA         0.0544
     57 H          15.3824   13.9808    5.3624 H         1 ECA         0.0508
     58 H          14.5222   13.6733    7.6710 H         1 ECA         0.0543
     59 H          14.3848   16.4254    9.9501 H         1 ECA         0.2443
     60 H          14.2729   18.1272    8.9508 H         1 ECA         0.2472
     61 H          13.8737   21.5129    7.1299 H         1 ECA         0.0440
     62 H          11.9313   22.5968    8.4053 H         1 ECA         0.0680
     63 H          12.1782   23.3218    9.8782 H         1 ECA         0.0680
     64 H          12.8732   20.3812    9.8997 H         1 ECA         0.1867
     65 H           9.0723   19.7600   12.1646 H         1 ECA         0.0544
     66 H           8.8970   17.5565   13.2857 H         1 ECA         0.0508
     67 H          10.8280   15.9847   13.2679 H         1 ECA         0.0543
     68 H          13.8607   16.8990   11.5841 H         1 ECA         0.2443
     69 H          14.0591   18.7815   11.4928 H         1 ECA         0.2472
@<TRIPOS>BOND
     1    1    2 1  
     2    2    3 ar 
     3    2    5 ar 
     4    3    4 1  
     5    3    8 ar 
     6    5    6 ar 
     7    6    7 ar 
     8    7    8 ar 
     9    8    9 1  
    10    9   10 2  
    11    9   11 am 
    12   11   12 1  
    13   12   13 1  
    14   13   14 ar 
    15   13   15 ar 
    16   14   30 ar 
    17   15   16 ar 
    18   16   17 1  
    19   16   29 ar 
    20   17   18 1  
    21   18   19 am 
    22   19   20 2  
    23   19   21 1  
    24   21   22 ar 
    25   21   27 ar 
    26   22   23 ar 
    27   23   24 ar 
    28   24   25 ar 
    29   25   26 1  
    30   25   27 ar 
    31   27   28 1  
    32   29   30 ar 
    33   30   31 1  
    34   31   32 1  
    35   32   33 am 
    36   33   34 2  
    37   33   35 1  
    38   35   36 ar 
    39   35   41 ar 
    40   36   37 ar 
    41   37   38 ar 
    42   38   39 ar 
    43   39   40 1  
    44   39   41 ar 
    45   41   42 1  
    46    1   43 1  
    47    4   44 1  
    48    5   45 1  
    49    6   46 1  
    50    7   47 1  
    51   11   48 1  
    52   12   49 1  
    53   12   50 1  
    54   14   51 1  
    55   15   52 1  
    56   17   53 1  
    57   17   54 1  
    58   18   55 1  
    59   22   56 1  
    60   23   57 1  
    61   24   58 1  
    62   26   59 1  
    63   28   60 1  
    64   29   61 1  
    65   31   62 1  
    66   31   63 1  
    67   32   64 1  
    68   36   65 1  
    69   37   66 1  
    70   38   67 1  
    71   40   68 1  
    72   42   69 1  
@<TRIPOS>SUBSTRUCTURE
     1 ECA         1

