### 
### Created by X-TOOL on Mon Sep 10 21:13:06 2018
### 

@<TRIPOS>MOLECULE
2xvd_ligand
   69    72     1     0     0
SMALL
GAST_HUCK


@<TRIPOS>ATOM
      1 C1          9.4220    5.6620   10.0960 C.3       1 AS6        -0.0381
      2 C2          9.3460    5.6460   11.6120 C.3       1 AS6         0.0536
      3 C3          7.8960    5.6550   12.0780 C.3       1 AS6        -0.0381
      4 N1         10.1490    4.5810   12.2350 N.pl3     1 AS6        -0.2437
      5 C4         11.5570    4.7790   12.2250 C.ar      1 AS6         0.1353
      6 C5         12.3610    3.6850   12.5100 C.ar      1 AS6        -0.0019
      7 C6         13.7070    3.8980   12.5000 C.ar      1 AS6         0.0010
      8 N2         14.2340    5.1050   12.2260 N.ar      1 AS6        -0.2691
      9 C7         13.3990    6.1120   11.9600 C.ar      1 AS6         0.1947
     10 N3         14.0050    7.3550   11.6870 N.pl3     1 AS6        -0.2474
     11 C8         13.3490    8.5200   11.2320 C.ar      1 AS6         0.0549
     12 C9         14.0770    9.6960   11.2580 C.ar      1 AS6        -0.0220
     13 C10        13.5360   10.8980   10.8320 C.ar      1 AS6         0.0319
     14 C11        12.2370   10.9080   10.3720 C.ar      1 AS6        -0.0311
     15 C12        11.5080    9.7430   10.3410 C.ar      1 AS6         0.0676
     16 C13        12.0410    8.5380   10.7630 C.ar      1 AS6        -0.0268
     17 S1          9.8340    9.8680    9.7150 S.o2      1 AS6        -0.0111
     18 O1          9.5170   11.2920    9.6360 O.2       1 AS6        -0.1700
     19 O2          9.8070    9.0460    8.5010 O.2       1 AS6        -0.1700
     20 C14         8.8000    9.1190   10.9360 C.3       1 AS6         0.0591
     21 N4         14.2400   12.1100   10.8490 N.pl3     1 AS6        -0.3067
     22 C15        15.6390   11.9890   11.1620 C.3       1 AS6         0.0500
     23 C16        16.1790   13.3930   11.3150 C.3       1 AS6         0.0673
     24 O3         15.8920   14.1100   10.1080 O.3       1 AS6        -0.3759
     25 C17        14.4760   14.2820    9.9660 C.3       1 AS6         0.0673
     26 C18        13.9010   12.9190    9.6850 C.3       1 AS6         0.0500
     27 N5         12.0610    5.9950   11.9470 N.ar      1 AS6        -0.2348
     28 C19         9.5240    3.3320   12.4340 C.ar      1 AS6         0.0629
     29 C20         9.1100    2.5870   11.3410 C.ar      1 AS6        -0.0408
     30 C21         8.4860    1.3680   11.5030 C.ar      1 AS6        -0.0341
     31 C22         8.0420    0.6170   10.2800 C.3       1 AS6         0.0727
     32 O4          8.6610   -0.6650   10.2410 O.3       1 AS6        -0.3837
     33 C23         8.2720    0.8710   12.7730 C.ar      1 AS6        -0.0762
     34 C24         8.6910    1.5920   13.8680 C.ar      1 AS6        -0.0759
     35 C25         9.3110    2.8190   13.7070 C.ar      1 AS6        -0.0279
     36 C26         9.7380    3.5730   14.9230 C.3       1 AS6        -0.0365
     37 H          10.4564    5.8124    9.7869 H         1 AS6         0.0256
     38 H           9.0593    4.7113    9.7053 H         1 AS6         0.0256
     39 H           8.8047    6.4737    9.7111 H         1 AS6         0.0256
     40 H           9.8106    6.5674   11.9633 H         1 AS6         0.0602
     41 H           7.4297    4.7018   11.8288 H         1 AS6         0.0256
     42 H           7.8634    5.8058   13.1570 H         1 AS6         0.0256
     43 H           7.3608    6.4638   11.5805 H         1 AS6         0.0256
     44 H          11.9378    2.7051   12.7307 H         1 AS6         0.0583
     45 H          14.3760    3.0662   12.7204 H         1 AS6         0.0848
     46 H          15.0126    7.4192   11.8318 H         1 AS6         0.2174
     47 H          15.1037    9.6763   11.6234 H         1 AS6         0.0427
     48 H          11.7870   11.8409   10.0323 H         1 AS6         0.0441
     49 H          11.4485    7.6237   10.7284 H         1 AS6         0.0448
     50 H           8.9796    9.5914   11.9018 H         1 AS6         0.0468
     51 H           7.7550    9.2496   10.6550 H         1 AS6         0.0468
     52 H           9.0297    8.0555   11.0020 H         1 AS6         0.0468
     53 H          16.1671   11.4561   10.3713 H         1 AS6         0.0536
     54 H          15.7816   11.4182   12.0796 H         1 AS6         0.0536
     55 H          17.2543   13.3664   11.4914 H         1 AS6         0.0579
     56 H          15.7113   13.8863   12.1671 H         1 AS6         0.0579
     57 H          14.2480   14.9745    9.1557 H         1 AS6         0.0579
     58 H          14.0435   14.7070   10.8718 H         1 AS6         0.0579
     59 H          12.8233   12.9633    9.5278 H         1 AS6         0.0536
     60 H          14.3089   12.4931    8.7683 H         1 AS6         0.0536
     61 H           9.2807    2.9715   10.3355 H         1 AS6         0.0455
     62 H           8.3283    1.1795    9.3914 H         1 AS6         0.0707
     63 H           6.9598    0.4908   10.3111 H         1 AS6         0.0707
     64 H           8.4136   -1.1625   11.0239 H         1 AS6         0.2124
     65 H           7.7731   -0.0887   12.9081 H         1 AS6         0.0445
     66 H           8.5333    1.1935   14.8702 H         1 AS6         0.0508
     67 H           8.8667    3.7827   15.5435 H         1 AS6         0.0356
     68 H          10.4524    2.9742   15.4880 H         1 AS6         0.0356
     69 H          10.2055    4.5105   14.6221 H         1 AS6         0.0356
@<TRIPOS>BOND
     1    1    2 1  
     2    2    3 1  
     3    2    4 1  
     4    4    5 1  
     5    4   28 1  
     6    5    6 ar 
     7    5   27 ar 
     8    6    7 ar 
     9    7    8 ar 
    10    8    9 ar 
    11    9   10 1  
    12    9   27 ar 
    13   10   11 1  
    14   11   12 ar 
    15   11   16 ar 
    16   12   13 ar 
    17   13   14 ar 
    18   13   21 1  
    19   14   15 ar 
    20   15   16 ar 
    21   15   17 1  
    22   17   18 2  
    23   17   19 2  
    24   17   20 1  
    25   21   22 1  
    26   21   26 1  
    27   22   23 1  
    28   23   24 1  
    29   24   25 1  
    30   25   26 1  
    31   28   29 ar 
    32   28   35 ar 
    33   29   30 ar 
    34   30   31 1  
    35   30   33 ar 
    36   31   32 1  
    37   33   34 ar 
    38   34   35 ar 
    39   35   36 1  
    40    1   37 1  
    41    1   38 1  
    42    1   39 1  
    43    2   40 1  
    44    3   41 1  
    45    3   42 1  
    46    3   43 1  
    47    6   44 1  
    48    7   45 1  
    49   10   46 1  
    50   12   47 1  
    51   14   48 1  
    52   16   49 1  
    53   20   50 1  
    54   20   51 1  
    55   20   52 1  
    56   22   53 1  
    57   22   54 1  
    58   23   55 1  
    59   23   56 1  
    60   25   57 1  
    61   25   58 1  
    62   26   59 1  
    63   26   60 1  
    64   29   61 1  
    65   31   62 1  
    66   31   63 1  
    67   32   64 1  
    68   33   65 1  
    69   34   66 1  
    70   36   67 1  
    71   36   68 1  
    72   36   69 1  
@<TRIPOS>SUBSTRUCTURE
     1 AS6         1

