### 
### Created by X-TOOL on Mon Sep 10 21:13:04 2018
### 

@<TRIPOS>MOLECULE
2xvn_ligand
   27    27     1     0     0
SMALL
GAST_HUCK


@<TRIPOS>ATOM
      1 CAM        -9.9650    8.9660   -2.4890 C.3       1 KLS         0.0199
      2 NAL       -10.2150   10.0720   -3.4240 N.am      1 KLS        -0.2765
      3 CAK       -11.4230   10.6300   -3.4270 C.2       1 KLS         0.2560
      4 OAJ       -12.3240   10.1990   -2.7360 O.2       1 KLS        -0.4011
      5 NAN       -11.6740   11.5840   -4.3560 N.am      1 KLS        -0.2393
      6 CAB       -12.7550   12.3330   -4.6200 C.cat     1 KLS         0.2104
      7 NAA       -13.8830   12.2440   -3.9360 N.pl3     1 KLS        -0.3298
      8 NAC       -12.6200   13.2490   -5.5940 N.pl3     1 KLS        -0.2153
      9 CAD       -13.6170   14.0750   -6.0020 C.ar      1 KLS         0.1804
     10 CAE       -13.9210   14.1490   -7.3650 C.ar      1 KLS         0.0594
     11 CAF       -14.9490   14.9780   -7.8010 C.ar      1 KLS         0.0148
     12 CAG       -15.6630   15.7430   -6.8780 C.ar      1 KLS         0.0118
     13 CAH       -15.3670   15.6780   -5.5260 C.ar      1 KLS         0.0148
     14 CAI       -14.3370   14.8530   -5.0990 C.ar      1 KLS         0.0594
     15 H         -10.1182    9.3139   -1.4674 H         1 KLS         0.0481
     16 H         -10.6535    8.1485   -2.7029 H         1 KLS         0.0481
     17 H          -8.9386    8.6183   -2.6057 H         1 KLS         0.0481
     18 H          -9.4831   10.4026   -4.0529 H         1 KLS         0.1841
     19 H         -10.8859   11.7689   -4.9766 H         1 KLS         0.1823
     20 H         -14.6579   12.8731   -4.1462 H         1 KLS         0.1798
     21 H         -13.9783   11.5463   -3.1981 H         1 KLS         0.1798
     22 H         -11.7134   13.3284   -6.0546 H         1 KLS         0.2596
     23 H         -13.3535   13.5582   -8.0841 H         1 KLS         0.1022
     24 H         -15.1964   15.0300   -8.8613 H         1 KLS         0.0879
     25 H         -16.4620   16.3986   -7.2242 H         1 KLS         0.1255
     26 H         -15.9362   16.2675   -4.8073 H         1 KLS         0.0879
     27 H         -14.0870   14.8130   -4.0388 H         1 KLS         0.1022
@<TRIPOS>BOND
     1    1    2 1  
     2    2    3 am 
     3    3    4 2  
     4    3    5 am 
     5    5    6 ar 
     6    6    7 ar 
     7    6    8 ar 
     8    8    9 1  
     9    9   10 ar 
    10    9   14 ar 
    11   10   11 ar 
    12   11   12 ar 
    13   12   13 ar 
    14   13   14 ar 
    15    1   15 1  
    16    1   16 1  
    17    1   17 1  
    18    2   18 1  
    19    5   19 1  
    20    7   20 1  
    21    7   21 1  
    22    8   22 1  
    23   10   23 1  
    24   11   24 1  
    25   12   25 1  
    26   13   26 1  
    27   14   27 1  
@<TRIPOS>SUBSTRUCTURE
     1 KLS         1

