### 
### Created by X-TOOL on Mon Sep 10 21:13:05 2018
### 

@<TRIPOS>MOLECULE
2xwd_ligand
   32    33     1     0     0
SMALL
GAST_HUCK


@<TRIPOS>ATOM
      1 O4        -35.5990  -14.5230   -3.1630 O.3       1 LGS        -0.3867
      2 C4        -35.7690  -15.4030   -2.0630 C.3       1 LGS         0.1103
      3 C5        -34.4190  -15.7930   -1.4300 C.3       1 LGS         0.1113
      4 C6        -33.6810  -14.5470   -0.9130 C.3       1 LGS         0.1120
      5 O6        -33.0940  -14.9750    0.3230 O.3       1 LGS        -0.2547
      6 C3        -36.4540  -16.6330   -2.5690 C.3       1 LGS         0.1137
      7 O3        -37.6410  -16.2740   -3.2520 O.3       1 LGS        -0.3864
      8 C2        -36.7950  -17.5500   -1.4040 C.3       1 LGS         0.1318
      9 O2        -37.0800  -18.8270   -1.9970 O.3       1 LGS        -0.3843
     10 C1        -35.7010  -17.6380   -0.2720 C.3       1 LGS         0.1770
     11 O1        -36.3080  -17.5200    1.0060 O.3       1 LGS        -0.3666
     12 N1        -34.7010  -16.5720   -0.2170 N.pl3     1 LGS        -0.2126
     13 C7        -33.9200  -15.9770    0.8290 C.2       1 LGS         0.2439
     14 N2        -33.8430  -16.2680    2.1460 N.2       1 LGS        -0.3610
     15 C8        -34.5410  -17.2910    2.9730 C.3       1 LGS        -0.0329
     16 C9        -34.4090  -16.9980    4.5290 C.3       1 LGS        -0.0637
     17 H         -36.4580  -14.3025   -3.5307 H         1 LGS         0.2100
     18 H         -36.3582  -14.9046   -1.2932 H         1 LGS         0.0645
     19 H         -33.8325  -16.3247   -2.1793 H         1 LGS         0.0626
     20 H         -34.3510  -13.6979   -0.7784 H         1 LGS         0.0660
     21 H         -32.9341  -14.1875   -1.6208 H         1 LGS         0.0660
     22 H         -35.7867  -17.1549   -3.2549 H         1 LGS         0.0647
     23 H         -37.4226  -15.7040   -3.9929 H         1 LGS         0.2100
     24 H         -37.6473  -17.1449   -0.8584 H         1 LGS         0.0669
     25 H         -36.3069  -19.1365   -2.4745 H         1 LGS         0.2101
     26 H         -35.2222  -18.5872   -0.5125 H         1 LGS         0.0908
     27 H         -36.9977  -18.1819    1.0938 H         1 LGS         0.2124
     28 H         -34.0840  -18.2597    2.7706 H         1 LGS         0.0279
     29 H         -35.5994  -17.2721    2.7132 H         1 LGS         0.0279
     30 H         -33.3556  -16.9969    4.8091 H         1 LGS         0.0230
     31 H         -34.8468  -16.0251    4.7526 H         1 LGS         0.0230
     32 H         -34.9344  -17.7716    5.0889 H         1 LGS         0.0230
@<TRIPOS>BOND
     1    1    2 1  
     2    2    3 1  
     3    2    6 1  
     4    3    4 1  
     5    3   12 1  
     6    4    5 1  
     7    5   13 1  
     8    6    7 1  
     9    6    8 1  
    10    8    9 1  
    11    8   10 1  
    12   10   11 1  
    13   10   12 1  
    14   12   13 1  
    15   13   14 2  
    16   14   15 1  
    17   15   16 1  
    18    1   17 1  
    19    2   18 1  
    20    3   19 1  
    21    4   20 1  
    22    4   21 1  
    23    6   22 1  
    24    7   23 1  
    25    8   24 1  
    26    9   25 1  
    27   10   26 1  
    28   11   27 1  
    29   15   28 1  
    30   15   29 1  
    31   16   30 1  
    32   16   31 1  
    33   16   32 1  
@<TRIPOS>SUBSTRUCTURE
     1 LGS         1

