### 
### Created by X-TOOL on Mon Sep 10 21:13:05 2018
### 

@<TRIPOS>MOLECULE
2xwe_ligand
   50    51     1     0     0
SMALL
GAST_HUCK


@<TRIPOS>ATOM
      1 O4        -35.7090  -14.5450   -2.9030 O.3       1 AMF        -0.3867
      2 C4        -35.9380  -15.5770   -1.9090 C.3       1 AMF         0.1088
      3 C5        -34.6250  -16.0380   -1.3540 C.3       1 AMF         0.0929
      4 C6        -33.8070  -14.7370   -1.1140 C.3       1 AMF         0.0456
      5 S1        -33.0480  -15.0630    0.4950 S.3       1 AMF        -0.0288
      6 C3        -36.6470  -16.7810   -2.4550 C.3       1 AMF         0.1137
      7 O3        -37.8770  -16.3460   -2.9790 O.3       1 AMF        -0.3864
      8 C2        -37.0060  -17.7410   -1.2990 C.3       1 AMF         0.1319
      9 O2        -37.2050  -19.0260   -1.8390 O.3       1 AMF        -0.3843
     10 C1        -35.9760  -17.8110   -0.1170 C.3       1 AMF         0.1759
     11 O1        -36.7490  -17.4980    1.0430 O.3       1 AMF        -0.3665
     12 N1        -34.9210  -16.7770   -0.0770 N.pl3     1 AMF        -0.2304
     13 C7        -34.1510  -16.2930    1.0180 C.2       1 AMF         0.1616
     14 N2        -34.2080  -16.7110    2.2500 N.2       1 AMF        -0.3649
     15 C8        -35.2200  -17.7910    2.4530 C.3       1 AMF        -0.0246
     16 C9        -35.1160  -18.5980    3.7350 C.3       1 AMF        -0.0500
     17 C10       -35.5690  -17.7350    4.9240 C.3       1 AMF        -0.0529
     18 C11       -34.3570  -17.1070    5.6440 C.3       1 AMF        -0.0531
     19 C12       -34.4900  -17.2600    7.1850 C.3       1 AMF        -0.0531
     20 C13       -35.8200  -16.6500    7.6880 C.3       1 AMF        -0.0533
     21 C14       -36.6410  -17.5950    8.5840 C.3       1 AMF        -0.0559
     22 C15       -37.8910  -16.8470    9.0920 C.3       1 AMF        -0.0653
     23 H         -36.5514  -14.2510   -3.2573 H         1 AMF         0.2100
     24 H         -36.5710  -15.1272   -1.1441 H         1 AMF         0.0645
     25 H         -34.0629  -16.7088   -2.0037 H         1 AMF         0.0610
     26 H         -34.4173  -13.8340   -1.1289 H         1 AMF         0.0439
     27 H         -33.0809  -14.5318   -1.9006 H         1 AMF         0.0439
     28 H         -36.0130  -17.2712   -3.1938 H         1 AMF         0.0647
     29 H         -37.7180  -15.7051   -3.6759 H         1 AMF         0.2100
     30 H         -37.9085  -17.3354   -0.8418 H         1 AMF         0.0669
     31 H         -36.3998  -19.3179   -2.2726 H         1 AMF         0.2101
     32 H         -35.4887  -18.7821   -0.2035 H         1 AMF         0.0910
     33 H         -37.4771  -18.1191    1.1181 H         1 AMF         0.2124
     34 H         -35.0659  -18.5008    1.6403 H         1 AMF         0.0300
     35 H         -36.1871  -17.2899    2.4935 H         1 AMF         0.0300
     36 H         -34.0820  -18.9085    3.8853 H         1 AMF         0.0267
     37 H         -35.7542  -19.4786    3.6620 H         1 AMF         0.0267
     38 H         -36.1068  -18.3672    5.6305 H         1 AMF         0.0265
     39 H         -36.2084  -16.9345    4.5519 H         1 AMF         0.0265
     40 H         -34.3137  -16.0458    5.3987 H         1 AMF         0.0265
     41 H         -33.4510  -17.6173    5.3171 H         1 AMF         0.0265
     42 H         -33.6617  -16.7361    7.6619 H         1 AMF         0.0265
     43 H         -34.4746  -18.3210    7.4344 H         1 AMF         0.0265
     44 H         -36.4267  -16.4274    6.8103 H         1 AMF         0.0265
     45 H         -35.5689  -15.7737    8.2857 H         1 AMF         0.0265
     46 H         -36.0353  -17.9159    9.4315 H         1 AMF         0.0263
     47 H         -36.9448  -18.4717    8.0120 H         1 AMF         0.0263
     48 H         -37.5819  -15.9729    9.6651 H         1 AMF         0.0230
     49 H         -38.4942  -16.5304    8.2411 H         1 AMF         0.0230
     50 H         -38.4770  -17.5111    9.7274 H         1 AMF         0.0230
@<TRIPOS>BOND
     1    1    2 1  
     2    2    3 1  
     3    2    6 1  
     4    3    4 1  
     5    3   12 1  
     6    4    5 1  
     7    5   13 1  
     8    6    7 1  
     9    6    8 1  
    10    8    9 1  
    11    8   10 1  
    12   10   11 1  
    13   10   12 1  
    14   12   13 1  
    15   13   14 2  
    16   14   15 1  
    17   15   16 1  
    18   16   17 1  
    19   17   18 1  
    20   18   19 1  
    21   19   20 1  
    22   20   21 1  
    23   21   22 1  
    24    1   23 1  
    25    2   24 1  
    26    3   25 1  
    27    4   26 1  
    28    4   27 1  
    29    6   28 1  
    30    7   29 1  
    31    8   30 1  
    32    9   31 1  
    33   10   32 1  
    34   11   33 1  
    35   15   34 1  
    36   15   35 1  
    37   16   36 1  
    38   16   37 1  
    39   17   38 1  
    40   17   39 1  
    41   18   40 1  
    42   18   41 1  
    43   19   42 1  
    44   19   43 1  
    45   20   44 1  
    46   20   45 1  
    47   21   46 1  
    48   21   47 1  
    49   22   48 1  
    50   22   49 1  
    51   22   50 1  
@<TRIPOS>SUBSTRUCTURE
     1 AMF         1

