### 
### Created by X-TOOL on Mon Sep 10 21:13:07 2018
### 

@<TRIPOS>MOLECULE
2xx2_ligand
   45    46     1     0     0
SMALL
GAST_HUCK


@<TRIPOS>ATOM
      1 C1         12.0590   15.1390    6.2820 C.2       1 13C         0.1873
      2 C2         11.3010   15.8100    5.1330 C.ar      1 13C         0.0715
      3 C3         11.1010   17.1880    5.1920 C.ar      1 13C         0.0957
      4 C4         10.4330   17.8550    4.1680 C.ar      1 13C        -0.0048
      5 C5          9.9590   17.1010    3.0910 C.ar      1 13C         0.0929
      6 C6         10.1630   15.7260    3.0370 C.ar      1 13C         0.0652
      7 C7         10.8330   15.0680    4.0560 C.ar      1 13C        -0.0068
      8 C8         11.0300   13.5430    3.9620 C.3       1 13C         0.0538
      9 C9          9.7690   12.6610    4.0870 C.2       1 13C         0.1170
     10 C10         9.8710   11.1480    3.8670 C.3       1 13C         0.0232
     11 C11         9.9940   10.4700    5.2490 C.3       1 13C        -0.0370
     12 C12         8.6040   10.4170    5.9120 C.3       1 13C        -0.0509
     13 C13         8.7750   10.3980    7.4420 C.3       1 13C        -0.0529
     14 C14         9.3350   11.7410    7.9450 C.3       1 13C        -0.0530
     15 C15        10.6830   11.8000    8.5260 C.3       1 13C        -0.0512
     16 C16        11.1370   13.0330    9.3340 C.3       1 13C        -0.0329
     17 C17        12.0720   13.9120    8.4790 C.3       1 13C         0.0297
     18 O2         13.2480   15.2980    6.3700 O.2       1 13C        -0.3993
     19 O3         11.6070   17.8900    6.3150 O.3       1 13C        -0.3316
     20 O4          9.2670   17.7310    2.0230 O.3       1 13C        -0.3331
     21 CL1         9.5770   14.8320    1.6510 Cl        1 13C        -0.0933
     22 N1         11.3500   14.3310    7.2690 N.am      1 13C        -0.2906
     23 O5          8.7090   13.1460    4.3860 O.2       1 13C        -0.3883
     24 H1         10.2850   18.9282    4.2053 H         1 13C         0.0425
     25 H2         11.7212   13.2482    4.7653 H         1 13C         0.0662
     26 H3         11.4891   13.3279    2.9858 H         1 13C         0.0662
     27 H4         10.7584   10.9185    3.2588 H         1 13C         0.0495
     28 H5          8.9695   10.7844    3.3522 H         1 13C         0.0495
     29 H6         10.6822   11.0485    5.8828 H         1 13C         0.0290
     30 H7         10.3815    9.4481    5.1245 H         1 13C         0.0290
     31 H8          8.0765    9.5073    5.5892 H         1 13C         0.0267
     32 H9          8.0216   11.3025    5.6176 H         1 13C         0.0267
     33 H10         9.4703    9.5913    7.7174 H         1 13C         0.0265
     34 H11         7.7974   10.2160    7.9122 H         1 13C         0.0265
     35 H12         8.6403   12.1069    8.7153 H         1 13C         0.0265
     36 H13         9.3277   12.4300    7.0875 H         1 13C         0.0265
     37 H14        11.3906   11.6935    7.6906 H         1 13C         0.0266
     38 H15        10.7746   10.9331    9.1969 H         1 13C         0.0266
     39 H16        11.6735   12.7003   10.2348 H         1 13C         0.0285
     40 H17        10.2546   13.6200    9.6286 H         1 13C         0.0285
     41 H18        12.9652   13.3358    8.1960 H         1 13C         0.0518
     42 H19        12.3750   14.7989    9.0548 H         1 13C         0.0518
     43 H20        12.2388   18.5371    6.0242 H         1 13C         0.2507
     44 H21         9.2028   18.6632    2.1949 H         1 13C         0.2501
     45 H22        10.3957   14.0686    7.1256 H         1 13C         0.1835
@<TRIPOS>BOND
     1    1    2 1  
     2    1   18 2  
     3    1   22 am 
     4    2    3 ar 
     5    2    7 ar 
     6    3    4 ar 
     7    3   19 1  
     8    4    5 ar 
     9    5    6 ar 
    10    5   20 1  
    11    6    7 ar 
    12    6   21 1  
    13    7    8 1  
    14    8    9 1  
    15    9   10 1  
    16    9   23 2  
    17   10   11 1  
    18   11   12 1  
    19   12   13 1  
    20   13   14 1  
    21   14   15 1  
    22   15   16 1  
    23   16   17 1  
    24   17   22 1  
    25    4   24 1  
    26    8   25 1  
    27    8   26 1  
    28   10   27 1  
    29   10   28 1  
    30   11   29 1  
    31   11   30 1  
    32   12   31 1  
    33   12   32 1  
    34   13   33 1  
    35   13   34 1  
    36   14   35 1  
    37   14   36 1  
    38   15   37 1  
    39   15   38 1  
    40   16   39 1  
    41   16   40 1  
    42   17   41 1  
    43   17   42 1  
    44   19   43 1  
    45   20   44 1  
    46   22   45 1  
@<TRIPOS>SUBSTRUCTURE
     1 13C         1

