### 
### Created by X-TOOL on Mon Sep 10 21:13:07 2018
### 

@<TRIPOS>MOLECULE
2xx4_ligand
   52    53     1     0     0
SMALL
GAST_HUCK


@<TRIPOS>ATOM
      1 C01       -19.8690    4.6060   -4.6370 C.ar      1 13I         0.0957
      2 C02       -19.9290    5.5670   -3.5110 C.ar      1 13I        -0.0048
      3 C03       -19.0490    5.3540   -2.3820 C.ar      1 13I         0.0929
      4 C04       -18.1010    4.1900   -2.3580 C.ar      1 13I         0.0652
      5 C05       -18.0410    3.2140   -3.4850 C.ar      1 13I        -0.0067
      6 C06       -18.8970    3.4220   -4.6050 C.ar      1 13I         0.0716
      7 C07       -18.9320    2.4760   -5.7590 C.2       1 13I         0.1875
      8 O08       -19.9260    1.7710   -5.9160 O.2       1 13I        -0.3993
      9 N09       -17.8310    2.4350   -6.6650 N.am      1 13I        -0.2889
     10 C10       -17.8690    1.6280   -7.8870 C.3       1 13I         0.0361
     11 C11       -16.5480    1.5590   -8.6220 C.3       1 13I        -0.0163
     12 C12       -15.3470    1.1440   -7.8180 C.2       1 13I        -0.0968
     13 C13       -14.3570    2.0690   -7.4380 C.2       1 13I        -0.0986
     14 C14       -13.2240    1.6740   -6.4840 C.3       1 13I        -0.0362
     15 C15       -13.4270    0.4550   -5.6310 C.3       1 13I        -0.0419
     16 C16       -14.3810    0.5620   -4.4450 C.3       1 13I        -0.0143
     17 C17       -14.3050    1.8470   -3.6850 C.3       1 13I         0.1346
     18 C18       -15.6050    2.6820   -3.6890 C.2       1 13I         0.1405
     19 C19       -16.9860    2.1230   -3.4560 C.3       1 13I         0.0565
     20 O20       -15.4790    3.8610   -3.9760 O.2       1 13I        -0.3845
     21 C21       -13.6250    1.8190   -2.3470 C.2       1 13I         0.2555
     22 O22       -13.4100    2.9070   -1.7970 O.2       1 13I        -0.3665
     23 O23       -12.8610    0.8350   -2.0140 O.3       1 13I        -0.2751
     24 C24       -12.3450    0.8460   -0.6790 C.3       1 13I         0.0741
     25 C25       -10.9580    1.3700   -0.4830 C.3       1 13I        -0.0371
     26 CL        -17.1330    3.9160   -0.9510 Cl        1 13I        -0.0933
     27 O27       -19.0420    6.2340   -1.3250 O.3       1 13I        -0.3331
     28 O28       -20.6540    4.7410   -5.7530 O.3       1 13I        -0.3316
     29 H1        -20.6137    6.4071   -3.5322 H         1 13I         0.0425
     30 H2        -17.0119    2.9711   -6.4607 H         1 13I         0.1836
     31 H3        -18.6192    2.0618   -8.5645 H         1 13I         0.0538
     32 H4        -18.1677    0.6046   -7.6162 H         1 13I         0.0538
     33 H5        -16.3437    2.5581   -9.0342 H         1 13I         0.0407
     34 H6        -16.6624    0.8389   -9.4456 H         1 13I         0.0407
     35 H7        -15.2407    0.1013   -7.5223 H         1 13I         0.0451
     36 H8        -14.3965    3.0846   -7.8290 H         1 13I         0.0450
     37 H9        -13.0519    2.5241   -5.8075 H         1 13I         0.0388
     38 H10       -12.3247    1.5028   -7.0939 H         1 13I         0.0388
     39 H11       -12.4427    0.1658   -5.2341 H         1 13I         0.0288
     40 H12       -13.8072   -0.3429   -6.2858 H         1 13I         0.0288
     41 H13       -14.1538   -0.2593   -3.7495 H         1 13I         0.0319
     42 H14       -15.4081    0.4494   -4.8224 H         1 13I         0.0319
     43 H15       -13.6157    2.4466   -4.2976 H         1 13I         0.0783
     44 H16       -17.2110    1.3875   -4.2423 H         1 13I         0.0664
     45 H17       -17.0102    1.6286   -2.4737 H         1 13I         0.0664
     46 H18       -12.3617   -0.1901   -0.3099 H         1 13I         0.0610
     47 H19       -13.0205    1.4636   -0.0689 H         1 13I         0.0610
     48 H20       -10.6944    1.3196    0.5837 H         1 13I         0.0255
     49 H21       -10.9091    2.4147   -0.8237 H         1 13I         0.0255
     50 H22       -10.2503    0.7611   -1.0647 H         1 13I         0.0255
     51 H23       -19.6881    6.9139   -1.4762 H         1 13I         0.2501
     52 H24       -21.2104    5.5050   -5.6569 H         1 13I         0.2507
@<TRIPOS>BOND
     1    1    2 ar 
     2    1    6 ar 
     3    1   28 1  
     4    2    3 ar 
     5    3    4 ar 
     6    3   27 1  
     7    4    5 ar 
     8    4   26 1  
     9    5    6 ar 
    10    5   19 1  
    11    6    7 1  
    12    7    8 2  
    13    7    9 am 
    14    9   10 1  
    15   10   11 1  
    16   11   12 1  
    17   12   13 2  
    18   13   14 1  
    19   14   15 1  
    20   15   16 1  
    21   16   17 1  
    22   17   18 1  
    23   17   21 1  
    24   18   19 1  
    25   18   20 2  
    26   21   22 2  
    27   21   23 1  
    28   23   24 1  
    29   24   25 1  
    30    2   29 1  
    31    9   30 1  
    32   10   31 1  
    33   10   32 1  
    34   11   33 1  
    35   11   34 1  
    36   12   35 1  
    37   13   36 1  
    38   14   37 1  
    39   14   38 1  
    40   15   39 1  
    41   15   40 1  
    42   16   41 1  
    43   16   42 1  
    44   17   43 1  
    45   19   44 1  
    46   19   45 1  
    47   24   46 1  
    48   24   47 1  
    49   25   48 1  
    50   25   49 1  
    51   25   50 1  
    52   27   51 1  
    53   28   52 1  
@<TRIPOS>SUBSTRUCTURE
     1 13I         1

