### 
### Created by X-TOOL on Mon Sep 10 21:13:07 2018
### 

@<TRIPOS>MOLECULE
2xx5_ligand
   60    62     1     0     0
SMALL
GAST_HUCK


@<TRIPOS>ATOM
      1 CAL        16.6050   -2.2540    0.8200 C.ar      1 13N        -0.0584
      2 CAJ        17.6050   -2.2590   -0.1120 C.ar      1 13N        -0.0685
      3 CAI        17.8120   -1.1660   -0.8690 C.ar      1 13N        -0.0687
      4 CAK        16.9960   -0.0780   -0.6970 C.ar      1 13N        -0.0685
      5 CAM        16.0070   -0.0570    0.2250 C.ar      1 13N        -0.0584
      6 CBC        15.8070   -1.1580    0.9970 C.ar      1 13N        -0.0210
      7 CAT        14.7040   -1.1930    2.0300 C.3       1 13N         0.0646
      8 NAW        15.0020   -0.2860    3.1120 N.am      1 13N        -0.2734
      9 CAZ        14.3790    0.8510    3.2770 C.2       1 13N         0.1996
     10 OAC        13.5700    1.3280    2.5090 O.2       1 13N        -0.3931
     11 CBG        14.8350    1.5750    4.4840 C.3       1 13N         0.1260
     12 CAS        13.6580    2.2200    5.1590 C.3       1 13N        -0.0105
     13 CAQ        13.0300    1.2240    6.0900 C.3       1 13N        -0.0320
     14 CAO        13.7560    1.1390    7.3880 C.2       1 13N        -0.0984
     15 CAG        15.0880    0.8370    7.2490 C.2       1 13N        -0.0986
     16 CAH        15.8760    1.0920    8.3410 C.3       1 13N        -0.0346
     17 CAP        17.2200    0.8510    8.3490 C.3       1 13N        -0.0263
     18 CAR        18.0240    2.0770    8.0500 C.3       1 13N         0.0307
     19 NAV        17.9180    2.4960    6.6810 N.am      1 13N        -0.2932
     20 CAY        19.0970    2.6000    5.8580 C.2       1 13N         0.1801
     21 OAB        20.1000    1.9960    6.1090 O.2       1 13N        -0.4087
     22 CBF        19.0540    3.5090    4.6700 C.2       1 13N         0.0941
     23 CBB        19.9340    4.5660    4.6850 C.2       1 13N         0.1267
     24 OAE        20.7070    4.7190    5.7280 O.2       1 13N        -0.4024
     25 CAN        19.9680    5.4340    3.6420 C.3       1 13N         0.0924
     26 CBA        19.1350    5.2350    2.5920 C.2       1 13N         0.1594
     27 OAD        19.1700    6.0630    1.5840 O.2       1 13N        -0.3822
     28 CBD        18.2700    4.1600    2.5740 C.3       1 13N         0.1644
     29 CL1        17.2650    3.9730    1.2310 Cl        1 13N        -0.0707
     30 CBE        18.2160    3.2790    3.6210 C.2       1 13N         0.0411
     31 CAU        17.2540    2.1120    3.6260 C.3       1 13N         0.0810
     32 CAX        15.8430    2.5820    4.0040 C.2       1 13N         0.1477
     33 OAA        15.5030    3.7240    3.8830 O.2       1 13N        -0.3825
     34 H          16.4408   -3.1400    1.4333 H         1 13N         0.0557
     35 H          18.2304   -3.1423   -0.2410 H         1 13N         0.0599
     36 H          18.6146   -1.1460   -1.6062 H         1 13N         0.0559
     37 H          17.1495    0.7998   -1.3246 H         1 13N         0.0599
     38 H          15.3812    0.8271    0.3471 H         1 13N         0.0557
     39 H          14.6201   -2.2048    2.4267 H         1 13N         0.0683
     40 H          13.7674   -0.8916    1.5608 H         1 13N         0.0683
     41 H          15.7310   -0.5436    3.7774 H         1 13N         0.1879
     42 H          15.2897    0.9168    5.2243 H         1 13N         0.0769
     43 H          12.9309    2.5368    4.4113 H         1 13N         0.0336
     44 H          13.9872    3.0944    5.7204 H         1 13N         0.0336
     45 H          13.0653    0.2437    5.6148 H         1 13N         0.0391
     46 H          12.0075    1.5433    6.2915 H         1 13N         0.0391
     47 H          13.2766    1.3007    8.3535 H         1 13N         0.0450
     48 H          15.4938    0.4202    6.3272 H         1 13N         0.0450
     49 H          15.4923    0.4044    9.0947 H         1 13N         0.0389
     50 H          15.8136    2.1748    8.4494 H         1 13N         0.0389
     51 H          17.4337    0.1122    7.5766 H         1 13N         0.0304
     52 H          17.4935    0.5044    9.3456 H         1 13N         0.0304
     53 H          19.0706    1.8443    8.2463 H         1 13N         0.0519
     54 H          17.6436    2.8847    8.6753 H         1 13N         0.0519
     55 H          17.0038    2.7213    6.2886 H         1 13N         0.1827
     56 H          20.9708    5.3338    3.2268 H         1 13N         0.0706
     57 H          19.6626    6.3913    4.0643 H         1 13N         0.0706
     58 H          18.5453    3.3071    3.1944 H         1 13N         0.0980
     59 H          17.5911    1.3777    4.3577 H         1 13N         0.0771
     60 H          17.2259    1.6714    2.6294 H         1 13N         0.0771
@<TRIPOS>BOND
     1    1    2 ar 
     2    1    6 ar 
     3    2    3 ar 
     4    3    4 ar 
     5    4    5 ar 
     6    5    6 ar 
     7    6    7 1  
     8    7    8 1  
     9    8    9 am 
    10    9   10 2  
    11    9   11 1  
    12   11   12 1  
    13   11   32 1  
    14   12   13 1  
    15   13   14 1  
    16   14   15 2  
    17   15   16 1  
    18   16   17 1  
    19   17   18 1  
    20   18   19 1  
    21   19   20 am 
    22   20   21 2  
    23   20   22 1  
    24   22   23 1  
    25   22   30 2  
    26   23   24 2  
    27   23   25 1  
    28   25   26 1  
    29   26   27 2  
    30   26   28 1  
    31   28   29 1  
    32   28   30 1  
    33   30   31 1  
    34   31   32 1  
    35   32   33 2  
    36    1   34 1  
    37    2   35 1  
    38    3   36 1  
    39    4   37 1  
    40    5   38 1  
    41    7   39 1  
    42    7   40 1  
    43    8   41 1  
    44   11   42 1  
    45   12   43 1  
    46   12   44 1  
    47   13   45 1  
    48   13   46 1  
    49   14   47 1  
    50   15   48 1  
    51   16   49 1  
    52   16   50 1  
    53   17   51 1  
    54   17   52 1  
    55   18   53 1  
    56   18   54 1  
    57   19   55 1  
    58   25   56 1  
    59   25   57 1  
    60   28   58 1  
    61   31   59 1  
    62   31   60 1  
@<TRIPOS>SUBSTRUCTURE
     1 13N         1

