### 
### Created by X-TOOL on Mon Sep 10 21:13:05 2018
### 

@<TRIPOS>MOLECULE
2xxr_ligand
   18    17     1     0     0
SMALL
GAST_HUCK


@<TRIPOS>ATOM
      1 N         -28.4680   34.6740    7.9860 N.4       1 GLU         0.2328
      2 CA        -28.3070   35.4310    6.7400 C.3       1 GLU         0.0298
      3 C         -29.4270   36.4460    6.5720 C.2       1 GLU         0.0845
      4 O         -30.1580   36.7690    7.5260 O.co2     1 GLU        -0.5643
      5 CB        -28.2140   34.4990    5.5230 C.3       1 GLU         0.0139
      6 CG        -26.8610   33.7830    5.4110 C.3       1 GLU         0.0069
      7 CD        -25.7330   34.7280    5.0260 C.2       1 GLU         0.0351
      8 OE1       -26.0360   35.7930    4.4330 O.co2     1 GLU        -0.5690
      9 OE2       -24.5430   34.3740    5.2600 O.co2     1 GLU        -0.5690
     10 OXT       -29.5940   36.9880    5.4790 O.co2     1 GLU        -0.5643
     11 H1        -27.7155   34.0092    8.0748 H         1 GLU         0.2010
     12 H2        -29.3489   34.1843    7.9702 H         1 GLU         0.2010
     13 H3        -28.4501   35.3083    8.7692 H         1 GLU         0.2010
     14 H4        -27.3597   35.9860    6.8069 H         1 GLU         0.1025
     15 H5        -28.3696   35.0964    4.6126 H         1 GLU         0.0356
     16 H6        -29.0057   33.7395    5.6031 H         1 GLU         0.0356
     17 H7        -26.9398   32.9972    4.6453 H         1 GLU         0.0433
     18 H8        -26.6222   33.3257    6.3825 H         1 GLU         0.0433
@<TRIPOS>BOND
     1    1    2 1  
     2    2    3 1  
     3    2    5 1  
     4    3    4 ar 
     5    3   10 ar 
     6    5    6 1  
     7    6    7 1  
     8    7    8 ar 
     9    7    9 ar 
    10    1   11 1  
    11    1   12 1  
    12    1   13 1  
    13    2   14 1  
    14    5   15 1  
    15    5   16 1  
    16    6   17 1  
    17    6   18 1  
@<TRIPOS>SUBSTRUCTURE
     1 GLU         1

