### 
### Created by X-TOOL on Mon Sep 10 21:13:05 2018
### 

@<TRIPOS>MOLECULE
2xxt_ligand
   31    31     1     0     0
SMALL
GAST_HUCK


@<TRIPOS>ATOM
      1 N          19.6280  -35.0590   -7.8200 N.4       1 KAI         0.2414
      2 CD         19.2870  -33.7350   -7.2440 C.3       1 KAI        -0.0283
      3 CD1        19.2390  -31.4060   -5.5370 C.3       1 KAI        -0.0622
      4 CD2        18.9970  -32.8560   -3.4640 C.3       1 KAI        -0.0622
      5 CA         20.0470  -35.9240   -6.7150 C.3       1 KAI         0.0349
      6 CB         20.1910  -35.0320   -5.4970 C.3       1 KAI         0.0334
      7 CB1        21.5610  -34.3610   -5.4130 C.3       1 KAI         0.0102
      8 CG         19.1930  -33.9410   -5.7390 C.3       1 KAI         0.0125
      9 CG1        22.6780  -35.2570   -4.9220 C.2       1 KAI         0.0354
     10 CG2        19.5660  -32.7320   -4.8780 C.3       1 KAI        -0.0384
     11 C          18.9860  -36.9550   -6.4890 C.2       1 KAI         0.0849
     12 O          18.1420  -37.1950   -7.3750 O.co2     1 KAI        -0.5642
     13 OD1        23.8450  -34.8180   -5.0600 O.co2     1 KAI        -0.5690
     14 OD2        22.4320  -36.3780   -4.4040 O.co2     1 KAI        -0.5690
     15 OXT        18.9350  -37.5610   -5.4080 O.co2     1 KAI        -0.5642
     16 H1         20.3791  -34.9620   -8.4852 H         1 KAI         0.2030
     17 H2         18.8216  -35.4529   -8.2789 H         1 KAI         0.2030
     18 H3         18.3241  -33.3821   -7.6418 H         1 KAI         0.0817
     19 H4         20.0723  -33.0020   -7.4806 H         1 KAI         0.0817
     20 H5         19.5307  -30.5826   -4.8685 H         1 KAI         0.0232
     21 H6         18.1584  -31.3518   -5.7355 H         1 KAI         0.0232
     22 H7         19.7907  -31.3217   -6.4849 H         1 KAI         0.0232
     23 H8         19.2684  -33.8358   -3.0442 H         1 KAI         0.0232
     24 H9         17.9015  -32.7633   -3.5001 H         1 KAI         0.0232
     25 H10        19.4118  -32.0581   -2.8305 H         1 KAI         0.0232
     26 H11        21.0043  -36.4145   -6.9452 H         1 KAI         0.1029
     27 H12        19.9811  -35.5908   -4.5731 H         1 KAI         0.0397
     28 H13        21.4815  -33.5056   -4.7260 H         1 KAI         0.0436
     29 H14        21.8278  -34.0009   -6.4176 H         1 KAI         0.0436
     30 H15        18.1763  -34.2634   -5.4698 H         1 KAI         0.0362
     31 H16        20.6607  -32.7550   -4.7728 H         1 KAI         0.0300
@<TRIPOS>BOND
     1    2    1 1  
     2    5    1 1  
     3    8    2 1  
     4   10    3 1  
     5   10    4 1  
     6    6    5 1  
     7    5   11 1  
     8    6    7 1  
     9    8    6 1  
    10    7    9 1  
    11    8   10 1  
    12    9   13 ar 
    13    9   14 ar 
    14   11   12 ar 
    15   11   15 ar 
    16    1   16 1  
    17    1   17 1  
    18    2   18 1  
    19    2   19 1  
    20    3   20 1  
    21    3   21 1  
    22    3   22 1  
    23    4   23 1  
    24    4   24 1  
    25    4   25 1  
    26    5   26 1  
    27    6   27 1  
    28    7   28 1  
    29    7   29 1  
    30    8   30 1  
    31   10   31 1  
@<TRIPOS>SUBSTRUCTURE
     1 KAI         1

