### 
### Created by X-TOOL on Mon Sep 10 21:13:06 2018
### 

@<TRIPOS>MOLECULE
2xxw_ligand
   18    17     1     0     0
SMALL
GAST_HUCK


@<TRIPOS>ATOM
      1 N         -21.9170   -5.4720  -22.9830 N.4       1 GLU         0.2328
      2 CA        -22.5870   -6.1030  -21.8560 C.3       1 GLU         0.0298
      3 C         -24.0640   -5.7230  -21.7950 C.2       1 GLU         0.0845
      4 O         -24.6500   -5.3150  -22.7930 O.co2     1 GLU        -0.5643
      5 CB        -21.8870   -5.7400  -20.5460 C.3       1 GLU         0.0139
      6 CG        -20.6030   -6.5140  -20.2960 C.3       1 GLU         0.0069
      7 CD        -20.8590   -7.9100  -19.7620 C.2       1 GLU         0.0351
      8 OE1       -21.9670   -8.1540  -19.2380 O.co2     1 GLU        -0.5690
      9 OE2       -19.9480   -8.7600  -19.8610 O.co2     1 GLU        -0.5690
     10 OXT       -24.7140   -5.8220  -20.7530 O.co2     1 GLU        -0.5643
     11 H1        -20.9465   -5.7442  -22.9922 H         1 GLU         0.2010
     12 H2        -21.9841   -4.4700  -22.8957 H         1 GLU         0.2010
     13 H3        -22.3562   -5.7646  -23.8418 H         1 GLU         0.2010
     14 H4        -22.5222   -7.1929  -21.9895 H         1 GLU         0.1025
     15 H5        -22.5799   -5.9422  -19.7160 H         1 GLU         0.0356
     16 H6        -21.6452   -4.6671  -20.5687 H         1 GLU         0.0356
     17 H7        -19.9959   -5.9623  -19.5632 H         1 GLU         0.0433
     18 H8        -20.0502   -6.5951  -21.2435 H         1 GLU         0.0433
@<TRIPOS>BOND
     1    1    2 1  
     2    2    3 1  
     3    2    5 1  
     4    3    4 ar 
     5    3   10 ar 
     6    5    6 1  
     7    6    7 1  
     8    7    8 ar 
     9    7    9 ar 
    10    1   11 1  
    11    1   12 1  
    12    1   13 1  
    13    2   14 1  
    14    5   15 1  
    15    5   16 1  
    16    6   17 1  
    17    6   18 1  
@<TRIPOS>SUBSTRUCTURE
     1 GLU         1

