### 
### Created by X-TOOL on Mon Sep 10 21:13:06 2018
### 

@<TRIPOS>MOLECULE
2xxx_ligand
   18    17     1     0     0
SMALL
GAST_HUCK


@<TRIPOS>ATOM
      1 N         -11.4790    0.7120  -22.9020 N.4       1 GLU         0.2328
      2 CA        -10.1610    1.1400  -23.3700 C.3       1 GLU         0.0298
      3 C          -9.7380    2.4490  -22.7130 C.2       1 GLU         0.0845
      4 O         -10.3190    2.8570  -21.7030 O.co2     1 GLU        -0.5643
      5 CB        -10.1410    1.2650  -24.8980 C.3       1 GLU         0.0139
      6 CG        -10.1100   -0.0800  -25.6210 C.3       1 GLU         0.0069
      7 CD         -8.7990   -0.8320  -25.4170 C.2       1 GLU         0.0351
      8 OE1        -7.7760   -0.1750  -25.1480 O.co2     1 GLU        -0.5690
      9 OE2        -8.7890   -2.0790  -25.5320 O.co2     1 GLU        -0.5690
     10 OXT        -8.8130    3.1200  -23.1730 O.co2     1 GLU        -0.5643
     11 H1        -11.7308   -0.1537  -23.3527 H         1 GLU         0.2010
     12 H2        -12.1614    1.4189  -23.1272 H         1 GLU         0.2010
     13 H3        -11.4532    0.5758  -21.9036 H         1 GLU         0.2010
     14 H4         -9.4328    0.3672  -23.0828 H         1 GLU         0.1025
     15 H5         -9.2473    1.8366  -25.1885 H         1 GLU         0.0356
     16 H6        -11.0432    1.8091  -25.2143 H         1 GLU         0.0356
     17 H7        -10.2496    0.0967  -26.6977 H         1 GLU         0.0433
     18 H8        -10.9342   -0.7018  -25.2415 H         1 GLU         0.0433
@<TRIPOS>BOND
     1    1    2 1  
     2    2    3 1  
     3    2    5 1  
     4    3    4 ar 
     5    3   10 ar 
     6    5    6 1  
     7    6    7 1  
     8    7    8 ar 
     9    7    9 ar 
    10    1   11 1  
    11    1   12 1  
    12    1   13 1  
    13    2   14 1  
    14    5   15 1  
    15    5   16 1  
    16    6   17 1  
    17    6   18 1  
@<TRIPOS>SUBSTRUCTURE
     1 GLU         1

