### 
### Created by X-TOOL on Mon Sep 10 21:13:07 2018
### 

@<TRIPOS>MOLECULE
2xxy_ligand
   31    31     1     0     0
SMALL
GAST_HUCK


@<TRIPOS>ATOM
      1 N         -11.3230    1.2050  -23.4320 N.4       1 KAI         0.2414
      2 CD        -12.1350    1.5120  -24.6270 C.3       1 KAI        -0.0283
      3 CD1       -13.0610    1.3640  -27.2440 C.3       1 KAI        -0.0622
      4 CD2       -11.1090    2.6620  -28.1300 C.3       1 KAI        -0.0622
      5 CA         -9.9250    1.4380  -23.7630 C.3       1 KAI         0.0349
      6 CB         -9.8270    1.4410  -25.2760 C.3       1 KAI         0.0334
      7 CB1        -9.7360    0.0490  -25.8810 C.3       1 KAI         0.0102
      8 CG        -11.1600    2.0150  -25.6880 C.3       1 KAI         0.0125
      9 CG1        -8.3770   -0.6010  -25.7820 C.2       1 KAI         0.0354
     10 CG2       -11.5610    1.6200  -27.1120 C.3       1 KAI        -0.0384
     11 C          -9.5530    2.7700  -23.1780 C.2       1 KAI         0.0849
     12 O         -10.1160    3.2090  -22.1730 O.co2     1 KAI        -0.5642
     13 OD1        -8.3770   -1.8530  -25.7920 O.co2     1 KAI        -0.5690
     14 OD2        -7.3250    0.0930  -25.7260 O.co2     1 KAI        -0.5690
     15 OXT        -8.6720    3.4560  -23.6920 O.co2     1 KAI        -0.5642
     16 H         -11.4610    0.2336  -23.1533 H         1 KAI         0.2030
     17 H         -11.6040    1.8011  -22.6535 H         1 KAI         0.2030
     18 H         -12.8937    2.2621  -24.4039 H         1 KAI         0.0817
     19 H         -12.6718    0.6292  -24.9742 H         1 KAI         0.0817
     20 H         -13.3502    0.5536  -26.5749 H         1 KAI         0.0232
     21 H         -13.6075    2.2689  -26.9782 H         1 KAI         0.0232
     22 H         -13.2919    1.0875  -28.2727 H         1 KAI         0.0232
     23 H         -11.5698    3.6214  -27.8950 H         1 KAI         0.0232
     24 H         -10.0240    2.7593  -28.0911 H         1 KAI         0.0232
     25 H         -11.4113    2.3473  -29.1288 H         1 KAI         0.0232
     26 H          -9.2503    0.6792  -23.3665 H         1 KAI         0.1029
     27 H          -8.9373    1.9788  -25.6034 H         1 KAI         0.0397
     28 H          -9.9595    0.1518  -26.9429 H         1 KAI         0.0436
     29 H         -10.4285   -0.5824  -25.3243 H         1 KAI         0.0436
     30 H         -11.1407    3.1040  -25.7311 H         1 KAI         0.0362
     31 H         -11.0474    0.6826  -27.3254 H         1 KAI         0.0300
@<TRIPOS>BOND
     1    2    1 1  
     2    5    1 1  
     3    8    2 1  
     4   10    3 1  
     5   10    4 1  
     6    6    5 1  
     7    5   11 1  
     8    6    7 1  
     9    8    6 1  
    10    7    9 1  
    11    8   10 1  
    12    9   13 ar 
    13    9   14 ar 
    14   11   12 ar 
    15   11   15 ar 
    16    1   16 1  
    17    1   17 1  
    18    2   18 1  
    19    2   19 1  
    20    3   20 1  
    21    3   21 1  
    22    3   22 1  
    23    4   23 1  
    24    4   24 1  
    25    4   25 1  
    26    5   26 1  
    27    6   27 1  
    28    7   28 1  
    29    7   29 1  
    30    8   30 1  
    31   10   31 1  
@<TRIPOS>SUBSTRUCTURE
     1 KAI         1

