### 
### Created by X-TOOL on Mon Sep 10 21:13:07 2018
### 

@<TRIPOS>MOLECULE
2xye_ligand
  107   109     1     0     0
SMALL
GAST_HUCK


@<TRIPOS>ATOM
      1 CAA        13.1970   23.5400    5.0280 C.3       1 CXG        -0.0102
      2 CBK        10.6860   24.2160    5.6020 C.2       1 CXG         0.2319
      3 OAI        10.3950   23.2330    6.2920 O.2       1 CXG        -0.3414
      4 N           9.9920   25.3750    5.6420 N.am      1 CXG        -0.2620
      5 CA          8.7460   25.7570    6.4860 C.3       1 CXG         0.1358
      6 CB          8.9740   26.3380    8.0220 C.3       1 CXG         0.0027
      7 CG1         9.7680   27.6550    8.0530 C.3       1 CXG        -0.0558
      8 CAE         7.6150   26.6570    8.7410 C.3       1 CXG        -0.0558
      9 CG2         9.7570   25.3520    8.8960 C.3       1 CXG        -0.0558
     10 C           7.9630   26.7340    5.6300 C.2       1 CXG         0.2021
     11 O           8.3490   27.8220    5.1970 O.2       1 CXG        -0.3945
     12 NBG         6.7300   26.1980    5.4040 N.am      1 CXG        -0.2881
     13 CBA        11.3300   23.4990    3.2570 C.3       1 CXG         0.0171
     14 CBO         9.9750   24.0630    2.7090 C.ar      1 CXG        -0.0413
     15 CAT         8.7500   23.2810    2.9220 C.ar      1 CXG        -0.0604
     16 CAP         7.4770   23.7770    2.4380 C.ar      1 CXG        -0.0686
     17 CAN         7.4090   25.0520    1.7400 C.ar      1 CXG        -0.0687
     18 CAQ         8.6170   25.8280    1.5250 C.ar      1 CXG        -0.0686
     19 CAU         9.8920   25.3340    2.0090 C.ar      1 CXG        -0.0604
     20 OAM        12.2780   25.5200    4.2370 O.3       1 CXG        -0.3818
     21 CBC        15.2250   23.7030    6.5960 C.3       1 CXG        -0.0058
     22 NBW        15.3430   22.3930    7.1420 N.4       1 CXG         0.3800
     23 NBH        15.9450   21.4810    6.0940 N.am      1 CXG        -0.2494
     24 CBN        15.2770   20.4460    5.5630 C.2       1 CXG         0.2392
     25 OAL        14.1020   20.1620    5.8940 O.2       1 CXG        -0.3898
     26 CBV        16.0370   19.6210    4.5190 C.3       1 CXG         0.1419
     27 CBY        15.3450   18.7360    3.4170 C.3       1 CXG         0.0027
     28 CAF        16.4320   18.0770    2.5610 C.3       1 CXG        -0.0558
     29 CAG        14.5100   19.5470    2.4460 C.3       1 CXG        -0.0558
     30 CAH        14.5230   17.5970    4.0130 C.3       1 CXG        -0.0558
     31 NBF        16.8460   18.8330    5.4870 N.am      1 CXG        -0.2405
     32 CBL        18.1720   18.9470    5.6570 C.2       1 CXG         0.3216
     33 OAJ        18.9430   19.7040    5.0620 O.2       1 CXG        -0.3774
     34 OBJ        18.5870   18.0410    6.6580 O.3       1 CXG        -0.2672
     35 CAB        19.3220   16.8740    6.2620 C.3       1 CXG         0.0663
     36 CBB        16.2060   22.3900    8.3090 C.3       1 CXG         0.0271
     37 CBP        16.4120   21.0240    8.9890 C.ar      1 CXG         0.0032
     38 CAW        15.2500   20.2360    9.3820 C.ar      1 CXG        -0.0539
     39 CAY        15.4270   18.9500   10.0210 C.ar      1 CXG        -0.0599
     40 CAX        17.7580   20.5230    9.2320 C.ar      1 CXG        -0.0539
     41 CAZ        17.9410   19.2230    9.8800 C.ar      1 CXG        -0.0599
     42 CBQ        16.7700   18.4440   10.2720 C.ar      1 CXG        -0.0242
     43 CBR        16.8600   17.0770   10.9610 C.ar      1 CXG        -0.0221
     44 CAV        16.7560   15.8200   10.2360 C.ar      1 CXG        -0.0557
     45 C1         11.8670   24.1950    4.5810 C.3       1 CXG         0.1547
     46 CAR        16.8430   14.5410   10.9370 C.ar      1 CXG        -0.0622
     47 C9          5.6440   26.8010    4.6200 C.3       1 CXG         0.0196
     48 CAO        17.0330   14.5120   12.3770 C.ar      1 CXG        -0.0627
     49 C24        13.7550   24.0280    6.3920 C.3       1 CXG        -0.0098
     50 CAS        17.1400   15.7500   13.1160 C.ar      1 CXG        -0.0622
     51 C53        17.0550   17.0290   12.4130 C.ar      1 CXG        -0.0557
     52 H1         13.9538   23.7490    4.2576 H         1 CXG         0.0283
     53 H2         13.0341   22.4543    5.0970 H         1 CXG         0.0283
     54 H3         10.3322   26.0949    5.0370 H         1 CXG         0.1890
     55 H4          8.1465   24.8419    6.6007 H         1 CXG         0.0807
     56 H5          9.8856   27.9878    9.0948 H         1 CXG         0.0237
     57 H6          9.2264   28.4232    7.4816 H         1 CXG         0.0237
     58 H7         10.7599   27.4958    7.6048 H         1 CXG         0.0237
     59 H8          6.9880   25.7534    8.7574 H         1 CXG         0.0237
     60 H9          7.0912   27.4568    8.1970 H         1 CXG         0.0237
     61 H10         7.8137   26.9842    9.7722 H         1 CXG         0.0237
     62 H11        10.7151   25.1133    8.4113 H         1 CXG         0.0237
     63 H12         9.1710   24.4299    9.0238 H         1 CXG         0.0237
     64 H13         9.9469   25.8052    9.8802 H         1 CXG         0.0237
     65 H14         6.5464   25.3042    5.8132 H         1 CXG         0.1848
     66 H15        12.0922   23.6240    2.4738 H         1 CXG         0.0441
     67 H16        11.1926   22.4281    3.4674 H         1 CXG         0.0441
     68 H17         8.7981   22.3312    3.4421 H         1 CXG         0.0557
     69 H18         6.5746   23.1975    2.5962 H         1 CXG         0.0599
     70 H19         6.4559   25.4226    1.3804 H         1 CXG         0.0559
     71 H20         8.5661   26.7766    1.0028 H         1 CXG         0.0599
     72 H21        10.7908   25.9179    1.8472 H         1 CXG         0.0557
     73 H22        12.9958   25.4766    3.6162 H         1 CXG         0.2082
     74 H23        15.7492   23.7477    5.6300 H         1 CXG         0.0822
     75 H24        15.6703   24.4320    7.2890 H         1 CXG         0.0822
     76 H25        14.4290   22.0571    7.4023 H         1 CXG         0.2321
     77 H26        16.8795   21.6576    5.7848 H         1 CXG         0.2384
     78 H27        16.6859   20.3086    3.9568 H         1 CXG         0.0806
     79 H28        15.9611   17.4547    1.7858 H         1 CXG         0.0237
     80 H29        17.0698   17.4476    3.1990 H         1 CXG         0.0237
     81 H30        17.0452   18.8556    2.0838 H         1 CXG         0.0237
     82 H31        13.7013   20.0542    2.9926 H         1 CXG         0.0237
     83 H32        14.0767   18.8783    1.6876 H         1 CXG         0.0237
     84 H33        15.1460   20.2971    1.9532 H         1 CXG         0.0237
     85 H34        15.1467   17.0222    4.7134 H         1 CXG         0.0237
     86 H35        14.1733   16.9360    3.2063 H         1 CXG         0.0237
     87 H36        13.6565   18.0116    4.5490 H         1 CXG         0.0237
     88 H37        16.3640   18.1662    6.0554 H         1 CXG         0.1899
     89 H38        19.5684   16.2764    7.1520 H         1 CXG         0.0575
     90 H39        20.2502   17.1792    5.7568 H         1 CXG         0.0575
     91 H40        18.7108   16.2718    5.5737 H         1 CXG         0.0575
     92 H41        15.7705   23.0742    9.0521 H         1 CXG         0.0992
     93 H42        17.1928   22.7647    7.9995 H         1 CXG         0.0992
     94 H43        14.2515   20.6143    9.1951 H         1 CXG         0.0562
     95 H44        14.5625   18.3644   10.3123 H         1 CXG         0.0609
     96 H45        18.6197   21.1096    8.9346 H         1 CXG         0.0562
     97 H46        18.9383   18.8417   10.0673 H         1 CXG         0.0609
     98 H47        16.6121   15.8325    9.1617 H         1 CXG         0.0615
     99 H48        16.7657   13.6130   10.3821 H         1 CXG         0.0615
    100 H49         4.7739   26.1281    4.6208 H         1 CXG         0.0484
    101 H50         5.9831   26.9605    3.5858 H         1 CXG         0.0484
    102 H51         5.3616   27.7659    5.0662 H         1 CXG         0.0484
    103 H52        17.0945   13.5628   12.8970 H         1 CXG         0.0610
    104 H53        13.1775   23.5486    7.1962 H         1 CXG         0.0316
    105 H54        13.6283   25.1191    6.4499 H         1 CXG         0.0316
    106 H55        17.2831   15.7299   14.1903 H         1 CXG         0.0615
    107 H56        17.1372   17.9537   12.9727 H         1 CXG         0.0615
@<TRIPOS>BOND
     1    1   45 1  
     2   49    1 1  
     3    2    3 2  
     4    2    4 am 
     5   45    2 1  
     6    4    5 1  
     7    5    6 1  
     8    5   10 1  
     9    6    7 1  
    10    6    8 1  
    11    6    9 1  
    12   10   11 2  
    13   10   12 am 
    14   12   47 1  
    15   13   14 1  
    16   45   13 1  
    17   14   15 ar 
    18   14   19 ar 
    19   15   16 ar 
    20   16   17 ar 
    21   18   17 ar 
    22   19   18 ar 
    23   45   20 1  
    24   21   22 1  
    25   21   49 1  
    26   22   23 1  
    27   22   36 1  
    28   23   24 am 
    29   24   25 2  
    30   24   26 1  
    31   26   27 1  
    32   26   31 1  
    33   27   28 1  
    34   27   29 1  
    35   27   30 1  
    36   31   32 am 
    37   32   33 2  
    38   32   34 1  
    39   34   35 1  
    40   36   37 1  
    41   37   38 ar 
    42   37   40 ar 
    43   38   39 ar 
    44   39   42 ar 
    45   40   41 ar 
    46   41   42 ar 
    47   42   43 1  
    48   43   44 ar 
    49   43   51 ar 
    50   44   46 ar 
    51   46   48 ar 
    52   48   50 ar 
    53   50   51 ar 
    54    1   52 1  
    55    1   53 1  
    56    4   54 1  
    57    5   55 1  
    58    7   56 1  
    59    7   57 1  
    60    7   58 1  
    61    8   59 1  
    62    8   60 1  
    63    8   61 1  
    64    9   62 1  
    65    9   63 1  
    66    9   64 1  
    67   12   65 1  
    68   13   66 1  
    69   13   67 1  
    70   15   68 1  
    71   16   69 1  
    72   17   70 1  
    73   18   71 1  
    74   19   72 1  
    75   20   73 1  
    76   21   74 1  
    77   21   75 1  
    78   22   76 1  
    79   23   77 1  
    80   26   78 1  
    81   28   79 1  
    82   28   80 1  
    83   28   81 1  
    84   29   82 1  
    85   29   83 1  
    86   29   84 1  
    87   30   85 1  
    88   30   86 1  
    89   30   87 1  
    90   31   88 1  
    91   35   89 1  
    92   35   90 1  
    93   35   91 1  
    94   36   92 1  
    95   36   93 1  
    96   38   94 1  
    97   39   95 1  
    98   40   96 1  
    99   41   97 1  
   100   44   98 1  
   101   46   99 1  
   102   47  100 1  
   103   47  101 1  
   104   47  102 1  
   105   48  103 1  
   106   49  104 1  
   107   49  105 1  
   108   50  106 1  
   109   51  107 1  
@<TRIPOS>SUBSTRUCTURE
     1 CXG         1

