### 
### Created by X-TOOL on Mon Sep 10 21:13:07 2018
### 

@<TRIPOS>MOLECULE
2xyf_ligand
  104   106     1     0     0
SMALL
GAST_HUCK


@<TRIPOS>ATOM
      1 C1         11.9580   24.2700    4.5810 C.3       1 G40         0.1547
      2 C2         10.7740   24.2380    5.6010 C.2       1 G40         0.2319
      3 O3         10.4900   23.2320    6.2550 O.2       1 G40        -0.3414
      4 N4         10.0730   25.3900    5.6720 N.am      1 G40        -0.2620
      5 C5          8.8200   25.7530    6.5120 C.3       1 G40         0.1358
      6 C6          9.0310   26.3130    8.0550 C.3       1 G40         0.0027
      7 C7          7.6680   26.6270    8.7670 C.3       1 G40        -0.0558
      8 C8          9.8380   27.6180    8.1010 C.3       1 G40        -0.0558
      9 C9          5.7060   26.8640    4.7110 C.3       1 G40         0.0196
     10 N10         6.7880   26.2390    5.4790 N.am      1 G40        -0.2881
     11 C11         8.0450   26.7370    5.6610 C.2       1 G40         0.2021
     12 O12         8.4530   27.8020    5.1940 O.2       1 G40        -0.3945
     13 C13         9.8020   25.3110    8.9220 C.3       1 G40        -0.0558
     14 C15        11.4280   23.6030    3.2360 C.3       1 G40         0.0171
     15 C16        10.0480   24.1430    2.7250 C.ar      1 G40        -0.0413
     16 C17         8.8700   23.2740    2.8490 C.ar      1 G40        -0.0604
     17 C18         7.5720   23.7370    2.4020 C.ar      1 G40        -0.0686
     18 C19         7.4300   25.0670    1.8270 C.ar      1 G40        -0.0687
     19 C20         8.5880   25.9330    1.6990 C.ar      1 G40        -0.0686
     20 C21         9.8900   25.4700    2.1470 C.ar      1 G40        -0.0604
     21 O22        12.3340   25.6130    4.2700 O.3       1 G40        -0.3818
     22 C23        13.3130   23.6360    4.9970 C.3       1 G40        -0.0102
     23 C24        13.8590   24.0420    6.3940 C.3       1 G40        -0.0098
     24 C25        15.3250   23.6920    6.5870 C.3       1 G40        -0.0059
     25 N26        15.4570   22.3730    7.1160 N.4       1 G40         0.3797
     26 C27        16.3850   22.3780    8.2360 C.3       1 G40         0.0257
     27 C28        16.5950   21.0420    8.9500 C.ar      1 G40         0.0002
     28 C29        15.4270   20.2830    9.3630 C.ar      1 G40        -0.0573
     29 C30        15.5930   19.0250   10.0330 C.ar      1 G40        -0.0651
     30 C31        16.9300   18.5070   10.3020 C.ar      1 G40        -0.0389
     31 C32        18.1110   19.2650    9.8870 C.ar      1 G40        -0.0651
     32 C33        17.9370   20.5460    9.2020 C.ar      1 G40        -0.0573
     33 C35        15.3210   18.9100    3.4060 C.3       1 G40         0.0027
     34 C36        19.9120   17.6810    6.7600 C.3       1 G40         0.0663
     35 O37        18.5230   18.0050    6.6080 O.3       1 G40        -0.2672
     36 C38        18.1380   18.9590    5.6360 C.2       1 G40         0.3216
     37 O39        18.9230   19.7070    5.0590 O.2       1 G40        -0.3774
     38 N40        16.8170   18.8940    5.4740 N.am      1 G40        -0.2405
     39 C41        16.0370   19.7400    4.5370 C.3       1 G40         0.1419
     40 C42        15.2970   20.5440    5.6090 C.2       1 G40         0.2392
     41 N43        15.9710   21.5770    6.1550 N.am      1 G40        -0.2495
     42 O44        14.1340   20.2400    5.9480 O.2       1 G40        -0.3898
     43 C45        16.3920   18.2540    2.5250 C.3       1 G40        -0.0558
     44 C46        14.5100   19.7770    2.4660 C.3       1 G40        -0.0558
     45 C47        14.4770   17.7720    3.9700 C.3       1 G40        -0.0558
     46 S54        16.3440   14.8340   12.0850 S.3       1 G40        -0.0434
     47 C55        15.9230   16.3060   11.1870 C.2       1 G40         0.0016
     48 C56        17.0290   17.2120   11.0100 C.2       1 G40        -0.0357
     49 C57        18.2330   16.6900   11.6210 C.2       1 G40        -0.0703
     50 C58        18.0200   15.4290   12.2320 C.2       1 G40        -0.0068
     51 H1         10.4164   26.1271    5.0900 H         1 G40         0.1890
     52 H2          8.2231   24.8341    6.6087 H         1 G40         0.0807
     53 H3          7.8625   26.9945    9.7854 H         1 G40         0.0237
     54 H4          7.0611   25.7110    8.8175 H         1 G40         0.0237
     55 H5          7.1252   27.3956    8.1973 H         1 G40         0.0237
     56 H6         10.8123   27.4639    7.6141 H         1 G40         0.0237
     57 H7          9.9945   27.9156    9.1483 H         1 G40         0.0237
     58 H8          9.2856   28.4095    7.5735 H         1 G40         0.0237
     59 H9          4.8126   26.2233    4.7480 H         1 G40         0.0484
     60 H10         6.0238   26.9899    3.6655 H         1 G40         0.0484
     61 H11         5.4700   27.8475    5.1435 H         1 G40         0.0484
     62 H12         6.5842   25.3610    5.9121 H         1 G40         0.1848
     63 H13         9.2706   24.3479    8.9297 H         1 G40         0.0237
     64 H14         9.8769   25.6966    9.9494 H         1 G40         0.0237
     65 H15        10.8116   25.1694    8.5089 H         1 G40         0.0237
     66 H16        11.3279   22.5212    3.4085 H         1 G40         0.0441
     67 H17        12.1760   23.7812    2.4494 H         1 G40         0.0441
     68 H18         8.9723   22.2831    3.2764 H         1 G40         0.0557
     69 H19         6.7055   23.0924    2.4958 H         1 G40         0.0599
     70 H20         6.4576   25.4113    1.4938 H         1 G40         0.0559
     71 H21         8.4814   26.9228    1.2701 H         1 G40         0.0599
     72 H22        10.7527   26.1191    2.0500 H         1 G40         0.0557
     73 H23        13.0171   25.6046    3.6098 H         1 G40         0.2082
     74 H24        14.0634   23.9247    4.2463 H         1 G40         0.0283
     75 H25        13.1887   22.5431    4.9897 H         1 G40         0.0283
     76 H26        13.2708   23.5217    7.1643 H         1 G40         0.0316
     77 H27        13.7402   25.1290    6.5137 H         1 G40         0.0316
     78 H28        15.7799   24.4097    7.2856 H         1 G40         0.0822
     79 H29        15.8413   23.7467    5.6172 H         1 G40         0.0822
     80 H30        14.5573   22.0292    7.4131 H         1 G40         0.2320
     81 H31        16.0107   23.0988    8.9778 H         1 G40         0.0985
     82 H32        17.3625   22.7136    7.8594 H         1 G40         0.0985
     83 H33        14.4324   20.6662    9.1654 H         1 G40         0.0554
     84 H34        14.7220   18.4576   10.3403 H         1 G40         0.0579
     85 H35        19.1052   18.8810   10.0852 H         1 G40         0.0579
     86 H36        18.8009   21.1193    8.8856 H         1 G40         0.0554
     87 H37        20.0282   16.9282    7.5536 H         1 G40         0.0575
     88 H38        20.4727   18.5880    7.0301 H         1 G40         0.0575
     89 H39        20.3004   17.2783    5.8129 H         1 G40         0.0575
     90 H40        16.3147   18.2266    6.0238 H         1 G40         0.1899
     91 H41        16.7055   20.4293    4.0003 H         1 G40         0.0806
     92 H42        16.8988   21.7624    5.8312 H         1 G40         0.2384
     93 H43        15.9054   17.6703    1.7297 H         1 G40         0.0237
     94 H44        17.0150   17.5878    3.1399 H         1 G40         0.0237
     95 H45        17.0234   19.0335    2.0737 H         1 G40         0.0237
     96 H46        13.7143   20.2851    3.0305 H         1 G40         0.0237
     97 H47        14.0602   19.1483    1.6835 H         1 G40         0.0237
     98 H48        15.1663   20.5275    2.0012 H         1 G40         0.0237
     99 H49        15.0914   17.1609    4.6476 H         1 G40         0.0237
    100 H50        14.1076   17.1456    3.1447 H         1 G40         0.0237
    101 H51        13.6233   18.1886    4.5246 H         1 G40         0.0237
    102 H52        14.9226   16.5055   10.8057 H         1 G40         0.0737
    103 H53        19.1917   17.2065   11.6122 H         1 G40         0.0408
    104 H54        18.8057   14.8749   12.7434 H         1 G40         0.0721
@<TRIPOS>BOND
     1    1    2 1  
     2    1   14 1  
     3    1   21 1  
     4   22    1 1  
     5    2    3 2  
     6    2    4 am 
     7    4    5 1  
     8    5    6 1  
     9    5   11 1  
    10    6    7 1  
    11    6    8 1  
    12    6   13 1  
    13   10    9 1  
    14   11   10 am 
    15   11   12 2  
    16   14   15 1  
    17   15   16 ar 
    18   15   20 ar 
    19   16   17 ar 
    20   17   18 ar 
    21   19   18 ar 
    22   20   19 ar 
    23   23   22 1  
    24   24   23 1  
    25   25   24 1  
    26   26   25 1  
    27   25   41 1  
    28   27   26 1  
    29   28   27 ar 
    30   32   27 ar 
    31   29   28 ar 
    32   30   29 ar 
    33   30   31 ar 
    34   48   30 1  
    35   31   32 ar 
    36   39   33 1  
    37   33   43 1  
    38   33   44 1  
    39   33   45 1  
    40   35   34 1  
    41   36   35 1  
    42   36   37 2  
    43   38   36 am 
    44   39   38 1  
    45   40   39 1  
    46   41   40 am 
    47   40   42 2  
    48   47   46 1  
    49   46   50 1  
    50   47   48 2  
    51   48   49 1  
    52   49   50 2  
    53    4   51 1  
    54    5   52 1  
    55    7   53 1  
    56    7   54 1  
    57    7   55 1  
    58    8   56 1  
    59    8   57 1  
    60    8   58 1  
    61    9   59 1  
    62    9   60 1  
    63    9   61 1  
    64   10   62 1  
    65   13   63 1  
    66   13   64 1  
    67   13   65 1  
    68   14   66 1  
    69   14   67 1  
    70   16   68 1  
    71   17   69 1  
    72   18   70 1  
    73   19   71 1  
    74   20   72 1  
    75   21   73 1  
    76   22   74 1  
    77   22   75 1  
    78   23   76 1  
    79   23   77 1  
    80   24   78 1  
    81   24   79 1  
    82   25   80 1  
    83   26   81 1  
    84   26   82 1  
    85   28   83 1  
    86   29   84 1  
    87   31   85 1  
    88   32   86 1  
    89   34   87 1  
    90   34   88 1  
    91   34   89 1  
    92   38   90 1  
    93   39   91 1  
    94   41   92 1  
    95   43   93 1  
    96   43   94 1  
    97   43   95 1  
    98   44   96 1  
    99   44   97 1  
   100   44   98 1  
   101   45   99 1  
   102   45  100 1  
   103   45  101 1  
   104   47  102 1  
   105   49  103 1  
   106   50  104 1  
@<TRIPOS>SUBSTRUCTURE
     1 G40         1

