### 
### Created by X-TOOL on Mon Sep 10 21:13:04 2018
### 

@<TRIPOS>MOLECULE
2xyn_ligand
   62    66     1     0     0
SMALL
GAST_HUCK


@<TRIPOS>ATOM
      1 N1        -51.2240   42.1360   -4.8280 N.4       1 VX6         0.2360
      2 C2        -51.7580   42.2110   -6.1940 C.3       1 VX6        -0.0111
      3 C3        -51.6330   43.5970   -6.8230 C.3       1 VX6         0.0716
      4 N4        -51.9760   44.6770   -5.8840 N.pl3     1 VX6        -0.2821
      5 C5        -51.6150   44.5170   -4.4570 C.3       1 VX6         0.0716
      6 C6        -51.9470   43.1060   -3.9830 C.3       1 VX6        -0.0111
      7 C7        -51.4290   40.7620   -4.2950 C.3       1 VX6        -0.0429
      8 C8        -52.4560   45.9270   -6.3590 C.ar      1 VX6         0.1089
      9 C9        -52.2030   47.0700   -5.5970 C.ar      1 VX6         0.0188
     10 C10       -52.6510   48.3060   -6.0360 C.ar      1 VX6         0.1287
     11 N11       -53.3170   48.3800   -7.1790 N.ar      1 VX6        -0.2553
     12 C12       -53.5520   47.2930   -7.9260 C.ar      1 VX6         0.1450
     13 N13       -53.1220   46.0640   -7.5300 N.ar      1 VX6        -0.2585
     14 N14       -52.4080   49.3950   -5.3280 N.pl3     1 VX6        -0.2323
     15 C15       -52.7520   50.6360   -5.6910 C.2       1 VX6         0.1723
     16 C17       -53.4740   51.0730   -6.7330 C.2       1 VX6        -0.0277
     17 C18       -53.4960   52.3960   -6.5730 C.2       1 VX6        -0.0155
     18 N19       -52.8220   52.7000   -5.4710 N.2       1 VX6        -0.2528
     19 N20       -52.3810   51.6710   -4.9480 N.pl3     1 VX6        -0.2110
     20 C21       -54.1680   53.4520   -7.4550 C.3       1 VX6        -0.0327
     21 S23       -54.4410   47.4720   -9.4250 S.3       1 VX6        -0.0158
     22 C24       -54.8990   49.1220   -9.7610 C.ar      1 VX6         0.0217
     23 C25       -54.0210   49.9980  -10.3630 C.ar      1 VX6        -0.0596
     24 C26       -54.3830   51.3100  -10.6610 C.ar      1 VX6        -0.0458
     25 C27       -55.6530   51.7860  -10.3680 C.ar      1 VX6         0.0602
     26 C28       -56.5320   50.8670   -9.7920 C.ar      1 VX6        -0.0458
     27 C29       -56.1700   49.5560   -9.5000 C.ar      1 VX6        -0.0596
     28 N30       -56.0640   53.0670  -10.6490 N.am      1 VX6        -0.2372
     29 C31       -55.2220   54.0660  -10.9320 C.2       1 VX6         0.2051
     30 O32       -54.0190   53.9320  -11.0030 O.2       1 VX6        -0.3854
     31 C33       -55.8010   55.4020  -11.3480 C.3       1 VX6         0.0545
     32 C34       -56.8270   56.0930  -10.4400 C.3       1 VX6        -0.0304
     33 C35       -55.3700   56.5740  -10.4880 C.3       1 VX6        -0.0304
     34 H1        -50.2400   42.3547   -4.8329 H         1 VX6         0.2032
     35 H2        -52.8227   41.9360   -6.1670 H         1 VX6         0.0835
     36 H3        -51.2097   41.4933   -6.8219 H         1 VX6         0.0835
     37 H4        -52.3102   43.6539   -7.6880 H         1 VX6         0.0577
     38 H5        -50.5954   43.7390   -7.1596 H         1 VX6         0.0577
     39 H6        -52.1802   45.2443   -3.8558 H         1 VX6         0.0577
     40 H7        -50.5370   44.6974   -4.3328 H         1 VX6         0.0577
     41 H8        -51.6366   42.9860   -2.9346 H         1 VX6         0.0835
     42 H9        -53.0302   42.9336   -4.0668 H         1 VX6         0.0835
     43 H10       -50.8897   40.0399   -4.9256 H         1 VX6         0.0778
     44 H11       -52.5027   40.5231   -4.3002 H         1 VX6         0.0778
     45 H12       -51.0461   40.7072   -3.2653 H         1 VX6         0.0778
     46 H13       -51.6572   46.9905   -4.6638 H         1 VX6         0.0510
     47 H14       -51.9172   49.2799   -4.4298 H         1 VX6         0.2211
     48 H15       -53.9348   50.4844   -7.5250 H         1 VX6         0.0176
     49 H16       -51.8218   51.6246   -4.0842 H         1 VX6         0.2465
     50 H17       -53.9886   54.4513   -7.0317 H         1 VX6         0.0373
     51 H18       -55.2504   53.2603   -7.4965 H         1 VX6         0.0373
     52 H19       -53.7478   53.4031   -8.4704 H         1 VX6         0.0373
     53 H20       -53.0224   49.6569  -10.6111 H         1 VX6         0.0535
     54 H21       -53.6611   51.9693  -11.1292 H         1 VX6         0.0489
     55 H22       -57.5411   51.1893   -9.5622 H         1 VX6         0.0489
     56 H23       -56.8954   48.8778   -9.0654 H         1 VX6         0.0535
     57 H24       -57.0448   53.2621  -10.6414 H         1 VX6         0.2236
     58 H25       -55.8807   55.4780  -12.4425 H         1 VX6         0.0543
     59 H26       -57.2092   55.5777   -9.5465 H         1 VX6         0.0294
     60 H27       -57.6264   56.7084  -10.8784 H         1 VX6         0.0294
     61 H28       -55.1255   57.5385  -10.9571 H         1 VX6         0.0294
     62 H29       -54.7083   56.4077   -9.6251 H         1 VX6         0.0294
@<TRIPOS>BOND
     1    1    2 1  
     2    1    6 1  
     3    1    7 1  
     4    2    3 1  
     5    3    4 1  
     6    4    5 1  
     7    4    8 1  
     8    5    6 1  
     9    8    9 ar 
    10    8   13 ar 
    11    9   10 ar 
    12   10   11 ar 
    13   10   14 1  
    14   11   12 ar 
    15   12   13 ar 
    16   12   21 1  
    17   14   15 1  
    18   15   16 2  
    19   15   19 1  
    20   16   17 1  
    21   17   18 2  
    22   17   20 1  
    23   18   19 1  
    24   21   22 1  
    25   22   23 ar 
    26   22   27 ar 
    27   23   24 ar 
    28   24   25 ar 
    29   25   26 ar 
    30   25   28 1  
    31   26   27 ar 
    32   28   29 am 
    33   29   30 2  
    34   29   31 1  
    35   31   32 1  
    36   31   33 1  
    37   32   33 1  
    38    1   34 1  
    39    2   35 1  
    40    2   36 1  
    41    3   37 1  
    42    3   38 1  
    43    5   39 1  
    44    5   40 1  
    45    6   41 1  
    46    6   42 1  
    47    7   43 1  
    48    7   44 1  
    49    7   45 1  
    50    9   46 1  
    51   14   47 1  
    52   16   48 1  
    53   19   49 1  
    54   20   50 1  
    55   20   51 1  
    56   20   52 1  
    57   23   53 1  
    58   24   54 1  
    59   26   55 1  
    60   27   56 1  
    61   28   57 1  
    62   31   58 1  
    63   32   59 1  
    64   32   60 1  
    65   33   61 1  
    66   33   62 1  
@<TRIPOS>SUBSTRUCTURE
     1 VX6         1

