### 
### Created by X-TOOL on Mon Sep 10 21:13:07 2018
### 

@<TRIPOS>MOLECULE
2xyr_ligand
   51    53     1     0     0
SMALL
GAST_HUCK


@<TRIPOS>ATOM
      1 N          40.7110   61.3490   -4.3110 N.4       1 SFG         0.2327
      2 CA         41.1200   60.0970   -3.6060 C.3       1 SFG         0.0285
      3 C          39.9600   59.1410   -3.6520 C.2       1 SFG         0.0844
      4 O          39.1880   59.1470   -4.6060 O.co2     1 SFG        -0.5643
      5 OXT        39.7500   58.3140   -2.7670 O.co2     1 SFG        -0.5643
      6 CB         41.5570   60.3950   -2.1710 C.3       1 SFG         0.0075
      7 CG         42.6310   61.4820   -2.1190 C.3       1 SFG        -0.0030
      8 CD         43.4550   61.4620   -0.8310 C.3       1 SFG        -0.0216
      9 NE         42.5750   61.5870    0.3250 N.4       1 SFG         0.2208
     10 C5'        44.4560   62.6150   -0.8400 C.3       1 SFG         0.0191
     11 C4'        45.6380   62.3420   -1.7650 C.3       1 SFG         0.0957
     12 O4'        46.3810   63.5440   -2.0120 O.3       1 SFG        -0.3389
     13 C3'        46.6370   61.3350   -1.2050 C.3       1 SFG         0.1126
     14 O3'        46.6020   60.1750   -2.0270 O.3       1 SFG        -0.3865
     15 C2'        47.9820   62.0130   -1.3270 C.3       1 SFG         0.1384
     16 O2'        48.9750   61.1290   -1.8450 O.3       1 SFG        -0.3836
     17 C1'        47.7180   63.1440   -2.3090 C.3       1 SFG         0.2009
     18 N9         48.7340   64.2290   -2.2040 N.pl3     1 SFG        -0.1919
     19 C8         49.0130   64.9800   -1.1320 C.2       1 SFG         0.1123
     20 N7         50.0160   65.8400   -1.4350 N.2       1 SFG        -0.2958
     21 C5         50.3620   65.6240   -2.7160 C.ar      1 SFG         0.1045
     22 C6         51.3120   66.1980   -3.5640 C.ar      1 SFG         0.1298
     23 N6         52.1180   67.2000   -3.1270 N.pl3     1 SFG        -0.3152
     24 N1         51.4260   65.7430   -4.8370 N.ar      1 SFG        -0.2698
     25 C2         50.6250   64.7460   -5.2640 C.ar      1 SFG         0.0533
     26 N3         49.6970   64.1800   -4.4650 N.ar      1 SFG        -0.2714
     27 C4         49.5510   64.6040   -3.1900 C.ar      1 SFG         0.1613
     28 H          40.4248   61.1233   -5.2636 H         1 SFG         0.2010
     29 H          39.9313   61.7789   -3.8132 H         1 SFG         0.2010
     30 H          41.4986   61.9966   -4.3358 H         1 SFG         0.2010
     31 H          41.9809   59.6467   -4.1001 H         1 SFG         0.1024
     32 H          41.9718   59.4826   -1.7426 H         1 SFG         0.0340
     33 H          40.6880   60.7449   -1.6138 H         1 SFG         0.0340
     34 H          42.1249   62.4461   -2.1699 H         1 SFG         0.0323
     35 H          43.3154   61.3071   -2.9492 H         1 SFG         0.0323
     36 H          43.9940   60.5166   -0.7696 H         1 SFG         0.0851
     37 H          43.1330   61.5727    1.1787 H         1 SFG         0.1997
     38 H          42.0625   62.4670    0.2671 H         1 SFG         0.1997
     39 H          41.9161   60.8084    0.3350 H         1 SFG         0.1997
     40 H          44.8389   62.7406    0.1728 H         1 SFG         0.0346
     41 H          43.9431   63.5076   -1.1983 H         1 SFG         0.0346
     42 H          45.1874   61.9386   -2.6718 H         1 SFG         0.0626
     43 H          46.4262   61.0410   -0.1768 H         1 SFG         0.0647
     44 H          46.8404   60.4137   -2.9258 H         1 SFG         0.2100
     45 H          48.3638   62.3501   -0.3633 H         1 SFG         0.0676
     46 H          48.7091   60.8262   -2.7162 H         1 SFG         0.2101
     47 H          47.8102   62.8448   -3.3531 H         1 SFG         0.0996
     48 H          48.5121   64.9109   -0.1664 H         1 SFG         0.1349
     49 H          52.0335   67.5417   -2.1697 H         1 SFG         0.1820
     50 H          52.8078   67.6108   -3.7561 H         1 SFG         0.1820
     51 H          50.7306   64.3859   -6.2873 H         1 SFG         0.0996
@<TRIPOS>BOND
     1    1    2 1  
     2    2    3 1  
     3    2    6 1  
     4    3    4 ar 
     5    3    5 ar 
     6    6    7 1  
     7    7    8 1  
     8    8    9 1  
     9    8   10 1  
    10   10   11 1  
    11   11   12 1  
    12   11   13 1  
    13   12   17 1  
    14   13   14 1  
    15   13   15 1  
    16   15   16 1  
    17   15   17 1  
    18   17   18 1  
    19   18   19 1  
    20   18   27 1  
    21   19   20 2  
    22   20   21 1  
    23   21   22 ar 
    24   21   27 ar 
    25   22   23 1  
    26   22   24 ar 
    27   24   25 ar 
    28   25   26 ar 
    29   26   27 ar 
    30    1   28 1  
    31    1   29 1  
    32    1   30 1  
    33    2   31 1  
    34    6   32 1  
    35    6   33 1  
    36    7   34 1  
    37    7   35 1  
    38    8   36 1  
    39    9   37 1  
    40    9   38 1  
    41    9   39 1  
    42   10   40 1  
    43   10   41 1  
    44   11   42 1  
    45   13   43 1  
    46   14   44 1  
    47   15   45 1  
    48   16   46 1  
    49   17   47 1  
    50   19   48 1  
    51   23   49 1  
    52   23   50 1  
    53   25   51 1  
@<TRIPOS>SUBSTRUCTURE
     1 SFG         1

