### 
### Created by X-TOOL on Mon Sep 10 21:13:05 2018
### 

@<TRIPOS>MOLECULE
2xys_ligand
   50    56     1     0     0
SMALL
GAST_HUCK


@<TRIPOS>ATOM
      1 CAV       -42.9440    7.4570  -16.9290 C.3       1 SY9        -0.0392
      2 CAU       -41.9900    7.1990  -18.1010 C.3       1 SY9        -0.0074
      3 CAT       -40.7140    6.5440  -17.5940 C.3       1 SY9        -0.0009
      4 CAN       -41.0620    5.1650  -17.0300 C.3       1 SY9         0.0127
      5 CAK       -42.0570    5.2400  -15.8770 C.3       1 SY9         0.0377
      6 NAH       -42.7000    3.9170  -15.8410 N.pl3     1 SY9        -0.2664
      7 CAA       -44.0650    3.9930  -16.1040 C.ar      1 SY9         0.0752
      8 CAF       -44.9770    2.9560  -16.3080 C.ar      1 SY9        -0.0107
      9 CAE       -46.2920    3.2310  -16.6460 C.ar      1 SY9        -0.0448
     10 CAD       -46.6780    4.5540  -16.8200 C.ar      1 SY9        -0.0454
     11 CAC       -45.7620    5.5900  -16.6500 C.ar      1 SY9        -0.0502
     12 CAB       -44.4390    5.3160  -16.3360 C.ar      1 SY9        -0.0229
     13 CAG       -43.2320    6.2250  -16.0280 C.3       1 SY9         0.0241
     14 CAW       -43.5470    6.8790  -14.6840 C.3       1 SY9        -0.0311
     15 CAX       -42.4180    7.8980  -14.6160 C.3       1 SY9        -0.0400
     16 NAY       -42.3470    8.4640  -15.9910 N.4       1 SY9         0.2407
     17 CAS       -40.9240    8.7590  -16.2420 C.3       1 SY9        -0.0074
     18 CAR       -40.1910    7.4520  -16.5210 C.2       1 SY9        -0.0310
     19 CAQ       -39.0950    7.2170  -15.7090 C.2       1 SY9        -0.0782
     20 CAP       -38.3450    6.0510  -15.8310 C.3       1 SY9         0.0552
     21 OAO       -38.9960    4.7820  -15.5800 O.3       1 SY9        -0.3712
     22 CAM       -39.8690    4.2820  -16.5900 C.3       1 SY9         0.0708
     23 CAL       -40.3490    2.9870  -15.8440 C.3       1 SY9         0.0233
     24 CAI       -41.8680    2.8070  -15.9080 C.3       1 SY9         0.1466
     25 OAJ       -42.4320    1.5680  -15.9210 O.3       1 SY9        -0.3686
     26 H1        -43.8924    7.8345  -17.3388 H         1 SY9         0.0728
     27 H2        -41.7417    8.1543  -18.5866 H         1 SY9         0.0333
     28 H3        -42.4775    6.5336  -18.8287 H         1 SY9         0.0333
     29 H4        -39.9762    6.4411  -18.4034 H         1 SY9         0.0453
     30 H5        -41.5584    4.6272  -17.8512 H         1 SY9         0.0364
     31 H6        -41.5152    5.4582  -14.9449 H         1 SY9         0.0464
     32 H7        -44.6535    1.9269  -16.2010 H         1 SY9         0.0603
     33 H8        -47.0080    2.4270  -16.7726 H         1 SY9         0.0812
     34 H9        -47.7024    4.7827  -17.0908 H         1 SY9         0.0608
     35 H10       -46.0858    6.6182  -16.7640 H         1 SY9         0.0786
     36 H11       -43.4954    6.1565  -13.8562 H         1 SY9         0.0203
     37 H12       -44.5346    7.3634  -14.6870 H         1 SY9         0.0203
     38 H13       -41.4695    7.4107  -14.3462 H         1 SY9         0.0805
     39 H14       -42.6475    8.6850  -13.8825 H         1 SY9         0.0805
     40 H15       -42.8776    9.3191  -16.0493 H         1 SY9         0.2039
     41 H16       -40.4864    9.2464  -15.3583 H         1 SY9         0.0964
     42 H17       -40.8330    9.4264  -17.1117 H         1 SY9         0.0964
     43 H18       -38.8146    7.9576  -14.9614 H         1 SY9         0.0266
     44 H19       -37.5046    6.1300  -15.1257 H         1 SY9         0.0635
     45 H20       -37.9583    6.0197  -16.8603 H         1 SY9         0.0635
     46 H21       -39.2934    4.0334  -17.4938 H         1 SY9         0.0604
     47 H22       -40.0452    3.0537  -14.7889 H         1 SY9         0.0338
     48 H23       -39.8697    2.1130  -16.3091 H         1 SY9         0.0338
     49 H24       -41.8508    2.8430  -17.0073 H         1 SY9         0.0886
     50 H25       -41.7480    0.9104  -15.9686 H         1 SY9         0.2123
@<TRIPOS>BOND
     1    1    2 1  
     2    1   13 1  
     3    1   16 1  
     4    2    3 1  
     5    3    4 1  
     6    3   18 1  
     7    4    5 1  
     8    4   22 1  
     9    5    6 1  
    10    5   13 1  
    11    6    7 1  
    12    6   24 1  
    13    7    8 ar 
    14    7   12 ar 
    15    8    9 ar 
    16    9   10 ar 
    17   10   11 ar 
    18   11   12 ar 
    19   12   13 1  
    20   13   14 1  
    21   14   15 1  
    22   15   16 1  
    23   16   17 1  
    24   17   18 1  
    25   18   19 2  
    26   19   20 1  
    27   20   21 1  
    28   21   22 1  
    29   22   23 1  
    30   23   24 1  
    31   24   25 1  
    32    1   26 1  
    33    2   27 1  
    34    2   28 1  
    35    3   29 1  
    36    4   30 1  
    37    5   31 1  
    38    8   32 1  
    39    9   33 1  
    40   10   34 1  
    41   11   35 1  
    42   14   36 1  
    43   14   37 1  
    44   15   38 1  
    45   15   39 1  
    46   16   40 1  
    47   17   41 1  
    48   17   42 1  
    49   19   43 1  
    50   20   44 1  
    51   20   45 1  
    52   22   46 1  
    53   23   47 1  
    54   23   48 1  
    55   24   49 1  
    56   25   50 1  
@<TRIPOS>SUBSTRUCTURE
     1 SY9         1

