### 
### Created by X-TOOL on Mon Sep 10 21:13:06 2018
### 

@<TRIPOS>MOLECULE
2xyt_ligand
   87    93     1     0     0
SMALL
GAST_HUCK


@<TRIPOS>ATOM
      1 N1         37.1400  117.7530   52.1260 N.4       1 TC9         0.2471
      2 C2         36.8440  118.3230   50.8540 C.3       1 TC9        -0.0236
      3 C3         37.9710  118.1530   49.8780 C.3       1 TC9         0.0119
      4 C4         38.8200  116.9350   50.1080 C.ar      1 TC9        -0.0492
      5 C5         38.5420  116.0150   51.1590 C.ar      1 TC9        -0.0100
      6 C6         37.3610  116.2610   52.0100 C.3       1 TC9         0.0115
      7 C7         39.9180  116.6730   49.2490 C.ar      1 TC9        -0.0447
      8 C8         40.7210  115.5200   49.4640 C.ar      1 TC9         0.1105
      9 C9         40.4180  114.6170   50.5280 C.ar      1 TC9         0.1291
     10 C10        39.3190  114.8520   51.3870 C.ar      1 TC9        -0.0363
     11 O11        41.2160  113.4540   50.6380 O.3       1 TC9        -0.2725
     12 C12        41.1230  112.7220   51.8480 C.ar      1 TC9         0.1339
     13 C13        42.2150  112.8570   52.7160 C.ar      1 TC9         0.1131
     14 C14        42.2790  112.1030   53.8660 C.ar      1 TC9        -0.0474
     15 C15        41.2460  111.1790   54.1500 C.ar      1 TC9        -0.0794
     16 C16        40.1700  111.0120   53.2770 C.ar      1 TC9        -0.0553
     17 C17        40.0990  111.7890   52.1170 C.ar      1 TC9        -0.0357
     18 C18        39.0430  110.0090   53.6880 C.3       1 TC9         0.0225
     19 C19        38.8970  108.6740   52.8710 C.3       1 TC9         0.0118
     20 N20        39.6970  107.5350   53.3030 N.4       1 TC9         0.2515
     21 C21        39.1200  106.4860   54.1120 C.3       1 TC9        -0.0224
     22 C22        37.8260  106.7800   54.7930 C.3       1 TC9         0.0097
     23 C23        36.8790  107.4720   53.8900 C.ar      1 TC9        -0.0565
     24 C24        37.3660  108.3910   52.9160 C.ar      1 TC9         0.0232
     25 C25        35.5020  107.2100   54.0320 C.ar      1 TC9        -0.0556
     26 C26        34.6140  107.8630   53.2070 C.ar      1 TC9         0.0989
     27 C27        35.0870  108.7990   52.2200 C.ar      1 TC9         0.1358
     28 C28        36.4760  109.0740   52.0890 C.ar      1 TC9         0.1360
     29 O29        36.9550  109.9360   51.0690 O.3       1 TC9        -0.2740
     30 C30        36.7370  111.3110   51.2260 C.ar      1 TC9         0.1039
     31 C31        36.8750  112.1320   50.0800 C.ar      1 TC9        -0.0358
     32 C32        36.6670  113.5090   50.1600 C.ar      1 TC9        -0.0678
     33 C33        36.3320  114.0900   51.3630 C.ar      1 TC9        -0.0464
     34 C34        36.2000  113.2720   52.5300 C.ar      1 TC9        -0.0678
     35 C35        36.3970  111.8960   52.4590 C.ar      1 TC9        -0.0358
     36 C36        36.1050  115.5870   51.4220 C.3       1 TC9         0.0265
     37 O37        41.8020  115.2530   48.5980 O.3       1 TC9        -0.3302
     38 C38        42.5670  116.3090   48.0430 C.3       1 TC9         0.0555
     39 O39        43.1970  113.7730   52.3910 O.3       1 TC9        -0.3407
     40 O40        33.2670  107.6020   53.3540 O.3       1 TC9        -0.3337
     41 C41        32.8740  106.3610   53.7670 C.3       1 TC9         0.0549
     42 O42        34.1830  109.4830   51.4410 O.3       1 TC9        -0.3471
     43 C43        36.4320  118.5700   53.1010 C.3       1 TC9        -0.0414
     44 C44        40.9110  108.0110   53.9990 C.3       1 TC9        -0.0400
     45 C45        40.1210  106.8000   52.0970 C.3       1 TC9        -0.0400
     46 H1         38.0879  118.0398   52.3140 H         1 TC9         0.2048
     47 H2         36.6483  119.3975   50.9847 H         1 TC9         0.0834
     48 H3         35.9468  117.8336   50.4471 H         1 TC9         0.0834
     49 H4         38.6185  119.0398   49.9439 H         1 TC9         0.0443
     50 H5         37.5423  118.0863   48.8672 H         1 TC9         0.0443
     51 H6         37.5494  115.8452   53.0108 H         1 TC9         0.1000
     52 H7         40.1437  117.3491   48.4323 H         1 TC9         0.0436
     53 H8         39.0795  114.1663   52.1917 H         1 TC9         0.0445
     54 H9         43.1138  112.2163   54.5481 H         1 TC9         0.0493
     55 H10        41.2909  110.5915   55.0599 H         1 TC9         0.0439
     56 H11        39.2666  111.6761   51.4318 H         1 TC9         0.0457
     57 H12        38.0857  110.5450   53.6091 H         1 TC9         0.0475
     58 H13        39.2219  109.7305   54.7370 H         1 TC9         0.0475
     59 H14        39.1912  108.8783   51.8310 H         1 TC9         0.0978
     60 H15        39.8525  106.2292   54.8914 H         1 TC9         0.0835
     61 H16        38.9592  105.6157   53.4588 H         1 TC9         0.0835
     62 H17        38.0196  107.4208   55.6658 H         1 TC9         0.0440
     63 H18        37.3748  105.8336   55.1258 H         1 TC9         0.0440
     64 H19        35.1481  106.5070   54.7774 H         1 TC9         0.0354
     65 H20        37.1453  111.6852   49.1301 H         1 TC9         0.0532
     66 H21        36.7693  114.1235   49.2729 H         1 TC9         0.0531
     67 H22        35.9439  113.7289   53.4791 H         1 TC9         0.0531
     68 H23        36.2894  111.2812   53.3453 H         1 TC9         0.0532
     69 H24        35.9196  115.9723   50.4085 H         1 TC9         0.0480
     70 H25        35.2364  115.8036   52.0612 H         1 TC9         0.0480
     71 H26        43.3562  115.8916   47.4004 H         1 TC9         0.0571
     72 H27        43.0256  116.8948   48.8533 H         1 TC9         0.0571
     73 H28        41.9131  116.9602   47.4444 H         1 TC9         0.0571
     74 H29        42.9778  114.1916   51.5668 H         1 TC9         0.2423
     75 H30        31.7764  106.3262   53.8303 H         1 TC9         0.0570
     76 H31        33.3052  106.1503   54.7568 H         1 TC9         0.0570
     77 H32        33.2238  105.6069   53.0466 H         1 TC9         0.0570
     78 H33        33.3034  109.1877   51.6453 H         1 TC9         0.2381
     79 H34        36.5107  119.6299   52.8174 H         1 TC9         0.0778
     80 H35        36.8777  118.4226   54.0958 H         1 TC9         0.0778
     81 H36        35.3726  118.2750   53.1265 H         1 TC9         0.0778
     82 H37        41.3800  108.8135   53.4108 H         1 TC9         0.0778
     83 H38        41.6196  107.1773   54.1120 H         1 TC9         0.0778
     84 H39        40.6370  108.3965   54.9921 H         1 TC9         0.0778
     85 H40        39.2336  106.4343   51.5596 H         1 TC9         0.0778
     86 H41        40.7499  105.9464   52.3900 H         1 TC9         0.0778
     87 H42        40.6957  107.4710   51.4417 H         1 TC9         0.0778
@<TRIPOS>BOND
     1    1    2 1  
     2    1    6 1  
     3    1   43 1  
     4    2    3 1  
     5    3    4 1  
     6    4    5 ar 
     7    4    7 ar 
     8    5    6 1  
     9    5   10 ar 
    10    6   36 1  
    11    7    8 ar 
    12    8    9 ar 
    13    8   37 1  
    14    9   10 ar 
    15    9   11 1  
    16   11   12 1  
    17   12   13 ar 
    18   12   17 ar 
    19   13   14 ar 
    20   13   39 1  
    21   14   15 ar 
    22   15   16 ar 
    23   16   17 ar 
    24   16   18 1  
    25   18   19 1  
    26   19   20 1  
    27   19   24 1  
    28   20   21 1  
    29   20   44 1  
    30   20   45 1  
    31   21   22 1  
    32   22   23 1  
    33   23   24 ar 
    34   23   25 ar 
    35   24   28 ar 
    36   25   26 ar 
    37   26   27 ar 
    38   26   40 1  
    39   27   28 ar 
    40   27   42 1  
    41   28   29 1  
    42   29   30 1  
    43   30   31 ar 
    44   30   35 ar 
    45   31   32 ar 
    46   32   33 ar 
    47   33   34 ar 
    48   33   36 1  
    49   34   35 ar 
    50   37   38 1  
    51   40   41 1  
    52    1   46 1  
    53    2   47 1  
    54    2   48 1  
    55    3   49 1  
    56    3   50 1  
    57    6   51 1  
    58    7   52 1  
    59   10   53 1  
    60   14   54 1  
    61   15   55 1  
    62   17   56 1  
    63   18   57 1  
    64   18   58 1  
    65   19   59 1  
    66   21   60 1  
    67   21   61 1  
    68   22   62 1  
    69   22   63 1  
    70   25   64 1  
    71   31   65 1  
    72   32   66 1  
    73   34   67 1  
    74   35   68 1  
    75   36   69 1  
    76   36   70 1  
    77   38   71 1  
    78   38   72 1  
    79   38   73 1  
    80   39   74 1  
    81   41   75 1  
    82   41   76 1  
    83   41   77 1  
    84   42   78 1  
    85   43   79 1  
    86   43   80 1  
    87   43   81 1  
    88   44   82 1  
    89   44   83 1  
    90   44   84 1  
    91   45   85 1  
    92   45   86 1  
    93   45   87 1  
@<TRIPOS>SUBSTRUCTURE
     1 TC9         1

