### 
### Created by X-TOOL on Mon Sep 10 21:13:06 2018
### 

@<TRIPOS>MOLECULE
2xyu_ligand
   35    38     1     0     0
SMALL
GAST_HUCK


@<TRIPOS>ATOM
      1 N01         3.0790   12.6700   19.5130 N.ar      1 Q9G        -0.3017
      2 C02         4.0690   13.5860   19.8440 C.ar      1 Q9G         0.0154
      3 C03         5.4280   13.3500   20.0960 C.ar      1 Q9G         0.1031
      4 C04         5.8600   11.9580   19.9890 C.ar      1 Q9G         0.0186
      5 C05         4.9570   11.0010   19.6720 C.ar      1 Q9G         0.0150
      6 C06         3.5370   11.3820   19.4220 C.ar      1 Q9G         0.0548
      7 C07         2.5610   10.3110   19.0770 C.ar      1 Q9G         0.0037
      8 C08         7.2960   11.5930   20.2440 C.ar      1 Q9G        -0.0458
      9 C09         7.4430   10.1790   20.6780 C.ar      1 Q9G        -0.0562
     10 C10         6.8230    9.2920   19.6680 C.ar      1 Q9G        -0.0560
     11 C11         5.3610    9.5570   19.5550 C.ar      1 Q9G        -0.0457
     12 N12         3.8730   14.9490   20.0050 N.2       1 Q9G        -0.4289
     13 N13         4.9730   15.6220   20.3220 N.pl3     1 Q9G        -0.2535
     14 C14         5.9390   14.6600   20.3890 C.2       1 Q9G         0.2445
     15 N15         7.2900   14.9930   20.7220 N.pl3     1 Q9G        -0.2603
     16 C16         1.9070    9.6300   20.1040 C.ar      1 Q9G        -0.0218
     17 C17         0.9960    8.6390   19.8280 C.ar      1 Q9G         0.1285
     18 F18         0.4120    8.0040   20.8550 F         1 Q9G        -0.1884
     19 C19         0.6930    8.3030   18.5220 C.ar      1 Q9G        -0.0317
     20 C20         1.3180    8.9750   17.4820 C.ar      1 Q9G        -0.0576
     21 C21         2.2600    9.9850   17.7440 C.ar      1 Q9G        -0.0354
     22 C22         2.9400   10.7130   16.6300 C.3       1 Q9G        -0.0298
     23 H           8.1307   12.2837   20.1247 H         1 Q9G         0.0641
     24 H           7.9303    9.8476   21.5950 H         1 Q9G         0.0651
     25 H           7.3631    8.5456   19.0855 H         1 Q9G         0.0639
     26 H           4.6346    8.7595   19.3984 H         1 Q9G         0.0655
     27 H           5.0729   16.6249   20.4790 H         1 Q9G         0.2539
     28 H           7.9989   14.2611   20.7688 H         1 Q9G         0.2097
     29 H           7.5442   15.9623   20.9126 H         1 Q9G         0.2097
     30 H           2.1219    9.8879   21.1410 H         1 Q9G         0.0614
     31 H          -0.0313    7.5162   18.3110 H         1 Q9G         0.0613
     32 H           1.0762    8.7173   16.4509 H         1 Q9G         0.0555
     33 H           3.4946   10.0017   16.0180 H         1 Q9G         0.0397
     34 H           2.1924   11.2164   16.0169 H         1 Q9G         0.0397
     35 H           3.6272   11.4500   17.0454 H         1 Q9G         0.0397
@<TRIPOS>BOND
     1    1    2 ar 
     2    1    6 ar 
     3    2    3 ar 
     4    2   12 2  
     5    3    4 ar 
     6    3   14 2  
     7    4    5 ar 
     8    4    8 ar 
     9    5    6 ar 
    10    5   11 ar 
    11    6    7 1  
    12    7   16 ar 
    13    7   21 ar 
    14    8    9 ar 
    15    9   10 ar 
    16   10   11 ar 
    17   12   13 1  
    18   13   14 1  
    19   14   15 1  
    20   16   17 ar 
    21   17   18 1  
    22   17   19 ar 
    23   19   20 ar 
    24   20   21 ar 
    25   21   22 1  
    26    8   23 1  
    27    9   24 1  
    28   10   25 1  
    29   11   26 1  
    30   13   27 1  
    31   15   28 1  
    32   15   29 1  
    33   16   30 1  
    34   19   31 1  
    35   20   32 1  
    36   22   33 1  
    37   22   34 1  
    38   22   35 1  
@<TRIPOS>SUBSTRUCTURE
     1 Q9G         1

