### 
### Created by X-TOOL on Mon Sep 10 21:13:02 2018
### 

@<TRIPOS>MOLECULE
2xz5_ligand
   26    25     1     0     0
SMALL
GAST_HUCK


@<TRIPOS>ATOM
      1 N1        -14.1190  -11.2150   36.2710 N.4       1 ACH         0.2387
      2 C2        -12.7310  -11.9430   35.9630 C.3       1 ACH        -0.0023
      3 C3        -11.7370  -11.7130   37.1520 C.3       1 ACH         0.1165
      4 O4        -12.1060  -10.9070   38.5660 O.3       1 ACH        -0.2717
      5 C5        -11.5480  -10.5960   39.8190 C.2       1 ACH         0.2308
      6 O7        -10.4250  -10.0790   39.6430 O.2       1 ACH        -0.3707
      7 C6        -12.3040  -10.8380   41.1740 C.3       1 ACH         0.0372
      8 C8        -14.9400  -11.3870   37.5970 C.3       1 ACH        -0.0417
      9 C9        -13.8990   -9.8940   35.9380 C.3       1 ACH        -0.0417
     10 C10       -15.3520  -11.4060   35.5500 C.3       1 ACH        -0.0417
     11 H         -12.3023  -11.5308   35.0495 H         1 ACH         0.0841
     12 H         -12.9040  -13.0120   35.8391 H         1 ACH         0.0841
     13 H         -10.9849  -11.0637   36.7039 H         1 ACH         0.0667
     14 H         -11.5565  -12.7288   37.5038 H         1 ACH         0.0667
     15 H         -11.7047  -11.4875   41.8120 H         1 ACH         0.0483
     16 H         -12.4649   -9.8831   41.6744 H         1 ACH         0.0483
     17 H         -13.2653  -11.3107   40.9728 H         1 ACH         0.0483
     18 H         -14.3976  -10.9239   38.4213 H         1 ACH         0.0778
     19 H         -15.9125  -10.9076   37.4855 H         1 ACH         0.0778
     20 H         -15.0782  -12.4486   37.8021 H         1 ACH         0.0778
     21 H         -14.8562   -9.3906   35.8021 H         1 ACH         0.0778
     22 H         -13.3413   -9.4070   36.7379 H         1 ACH         0.0778
     23 H         -13.3263   -9.8446   35.0119 H         1 ACH         0.0778
     24 H         -15.7649  -12.3853   35.7920 H         1 ACH         0.0778
     25 H         -16.0623  -10.6301   35.8355 H         1 ACH         0.0778
     26 H         -15.1581  -11.3466   34.4790 H         1 ACH         0.0778
@<TRIPOS>BOND
     1    1    2 1  
     2    1    8 1  
     3    1    9 1  
     4    1   10 1  
     5    2    3 1  
     6    3    4 1  
     7    4    5 1  
     8    5    6 2  
     9    5    7 1  
    10    2   11 1  
    11    2   12 1  
    12    3   13 1  
    13    3   14 1  
    14    7   15 1  
    15    7   16 1  
    16    7   17 1  
    17    8   18 1  
    18    8   19 1  
    19    8   20 1  
    20    9   21 1  
    21    9   22 1  
    22    9   23 1  
    23   10   24 1  
    24   10   25 1  
    25   10   26 1  
@<TRIPOS>SUBSTRUCTURE
     1 ACH         1

