### 
### Created by X-TOOL on Mon Sep 10 21:13:05 2018
### 

@<TRIPOS>MOLECULE
2xzg_ligand
   40    43     1     0     0
SMALL
GAST_HUCK


@<TRIPOS>ATOM
      1 CAJ        46.0830   -7.5620   26.2510 C.ar      1 VH1        -0.0694
      2 CAH        46.1750   -6.2670   26.7830 C.ar      1 VH1        -0.0509
      3 CAQ        46.5190   -5.1940   25.9590 C.ar      1 VH1         0.0284
      4 NAA        46.5910   -3.9400   26.4740 N.pl3     1 VH1        -0.3406
      5 CAI        46.7920   -5.4120   24.6050 C.ar      1 VH1        -0.0509
      6 CAK        46.7260   -6.7070   24.0820 C.ar      1 VH1        -0.0694
      7 CAR        46.3680   -7.7760   24.9120 C.ar      1 VH1        -0.0289
      8 CAP        46.2630   -9.1560   24.2810 C.3       1 VH1         0.0853
      9 NAZ        47.4900   -9.9620   24.3130 N.am      1 VH1        -0.1759
     10 CAU        48.4100   -9.8270   23.2980 C.2       1 VH1         0.2352
     11 OAC        48.1570   -9.0130   22.4290 O.2       1 VH1        -0.3766
     12 CAX        49.5740  -10.5970   23.2920 C.ar      1 VH1         0.0653
     13 CAY        49.7590  -11.5290   24.3490 C.ar      1 VH1         0.0179
     14 CAO        50.5050  -10.4670   22.2750 C.ar      1 VH1        -0.0171
     15 CAS        51.6400  -11.2560   22.3080 C.ar      1 VH1         0.0605
     16 SBA        52.8450  -11.1720   21.0200 S.o2      1 VH1        -0.1613
     17 OAF        52.6130  -12.2710   20.1830 O.co2     1 VH1        -0.4797
     18 OAE        54.1560  -11.4150   21.6630 O.co2     1 VH1        -0.4797
     19 OAD        52.8090   -9.8950   20.2520 O.co2     1 VH1        -0.4797
     20 CAN        51.8430  -12.1770   23.3420 C.ar      1 VH1        -0.0244
     21 CAV        50.9090  -12.3400   24.3740 C.ar      1 VH1        -0.0048
     22 CAL        51.1200  -13.2500   25.4260 C.ar      1 VH1        -0.0462
     23 CAG        50.1860  -13.3960   26.4600 C.ar      1 VH1        -0.0523
     24 CAM        49.0230  -12.5950   26.4200 C.ar      1 VH1        -0.0390
     25 CAW        48.8090  -11.6690   25.3680 C.ar      1 VH1         0.0636
     26 CAT        47.6530  -10.8870   25.3300 C.2       1 VH1         0.2351
     27 OAB        46.7960  -10.9340   26.1950 O.2       1 VH1        -0.3766
     28 H1         45.7903   -8.3914   26.8846 H         1 VH1         0.0525
     29 H2         45.9786   -6.0994   27.8358 H         1 VH1         0.0499
     30 H3         46.8447   -3.1477   25.8668 H         1 VH1         0.1698
     31 H4         46.3919   -3.7809   27.4720 H         1 VH1         0.1698
     32 H5         47.0541   -4.5792   23.9625 H         1 VH1         0.0499
     33 H6         46.9515   -6.8828   23.0364 H         1 VH1         0.0525
     34 H7         45.9707   -9.0258   23.2286 H         1 VH1         0.0715
     35 H8         45.4780   -9.7130   24.8134 H         1 VH1         0.0715
     36 H9         50.3469   -9.7602   21.4685 H         1 VH1         0.0718
     37 H10        52.7446  -12.7789   23.3447 H         1 VH1         0.0704
     38 H11        52.0228  -13.8499   25.4367 H         1 VH1         0.0686
     39 H12        50.3507  -14.1019   27.2660 H         1 VH1         0.0635
     40 H13        48.2826  -12.6899   27.2060 H         1 VH1         0.0700
@<TRIPOS>BOND
     1    1    2 ar 
     2    1    7 ar 
     3    2    3 ar 
     4    3    4 1  
     5    3    5 ar 
     6    5    6 ar 
     7    6    7 ar 
     8    7    8 1  
     9    8    9 1  
    10    9   10 am 
    11    9   26 am 
    12   10   11 2  
    13   10   12 1  
    14   12   13 ar 
    15   12   14 ar 
    16   13   21 ar 
    17   13   25 ar 
    18   14   15 ar 
    19   15   16 1  
    20   15   20 ar 
    21   16   17 ar 
    22   16   18 ar 
    23   16   19 ar 
    24   20   21 ar 
    25   21   22 ar 
    26   22   23 ar 
    27   23   24 ar 
    28   24   25 ar 
    29   25   26 1  
    30   26   27 2  
    31    1   28 1  
    32    2   29 1  
    33    4   30 1  
    34    4   31 1  
    35    5   32 1  
    36    6   33 1  
    37    8   34 1  
    38    8   35 1  
    39   14   36 1  
    40   20   37 1  
    41   22   38 1  
    42   23   39 1  
    43   24   40 1  
@<TRIPOS>SUBSTRUCTURE
     1 VH1         1

