### 
### Created by X-TOOL on Mon Sep 10 21:13:02 2018
### 

@<TRIPOS>MOLECULE
2xzw_ligand
   14    13     1     0     0
SMALL
GAST_HUCK


@<TRIPOS>ATOM
      1 C1         -8.8550  -21.4970  -24.2420 C.2       1 AKG         0.1249
      2 O1         -8.8550  -21.4200  -25.4570 O.co2     1 AKG        -0.5464
      3 O2         -7.8850  -21.0460  -23.6090 O.co2     1 AKG        -0.5464
      4 C2        -10.0180  -22.0400  -23.5010 C.2       1 AKG         0.1731
      5 O5        -10.0310  -21.8930  -22.2740 O.2       1 AKG        -0.3576
      6 C3        -11.2110  -22.7220  -24.1550 C.3       1 AKG         0.0423
      7 C4        -12.3560  -22.7760  -23.1010 C.3       1 AKG         0.0164
      8 C5        -13.1340  -21.4380  -23.0890 C.2       1 AKG         0.0371
      9 O3        -14.3690  -21.4370  -22.8490 O.co2     1 AKG        -0.5688
     10 O4        -12.5700  -20.3260  -23.3190 O.co2     1 AKG        -0.5688
     11 H         -10.9441  -23.7278  -24.4794 H         1 AKG         0.0516
     12 H         -11.5309  -22.1669  -25.0368 H         1 AKG         0.0516
     13 H         -11.9254  -22.9475  -22.1145 H         1 AKG         0.0456
     14 H         -13.0402  -23.5846  -23.3582 H         1 AKG         0.0456
@<TRIPOS>BOND
     1    1    2 ar 
     2    1    3 ar 
     3    1    4 1  
     4    4    5 2  
     5    4    6 1  
     6    6    7 1  
     7    7    8 1  
     8    8    9 ar 
     9    8   10 ar 
    10    6   11 1  
    11    6   12 1  
    12    7   13 1  
    13    7   14 1  
@<TRIPOS>SUBSTRUCTURE
     1 AKG         1

