### 
### Created by X-TOOL on Mon Sep 10 21:13:08 2018
### 

@<TRIPOS>MOLECULE
2y07_ligand
  100   105     1     0     0
SMALL
GAST_HUCK


@<TRIPOS>ATOM
      1 N          -8.3740    4.2270   53.2950 N.4       1 PRO         0.2461
      2 CA         -7.7710    5.2070   54.2510 C.3       1 PRO         0.0671
      3 C          -6.2840    5.4850   53.9210 C.2       1 PRO         0.2293
      4 O          -5.3880    4.7260   54.3160 O.2       1 PRO        -0.3905
      5 CB         -7.9630    4.6250   55.6370 C.3       1 PRO         0.0127
      6 CG         -9.3110    3.9000   55.4240 C.3       1 PRO        -0.0053
      7 CD         -9.2660    3.2920   54.0090 C.3       1 PRO        -0.0313
      8 N          -6.0160    6.6270   53.2400 N.am      1 PRO        -0.2471
      9 CA         -4.7870    7.2400   52.7250 C.3       1 PRO         0.1339
     10 C          -3.6990    6.4790   51.9470 C.2       1 PRO         0.2042
     11 O          -3.9250    5.3620   51.4180 O.2       1 PRO        -0.3944
     12 CB         -4.2690    7.9810   53.9500 C.3       1 PRO        -0.0104
     13 CG         -5.6090    8.6490   54.4660 C.3       1 PRO        -0.0281
     14 CD         -6.7670    7.7130   53.9010 C.3       1 PRO         0.0371
     15 N          -2.5270    7.1200   51.8280 N.am      1 TYR        -0.2621
     16 CA         -1.4090    6.5570   51.0680 C.3       1 TYR         0.1392
     17 C          -0.2040    7.4760   50.7780 C.2       1 TYR         0.2082
     18 O           0.8840    6.9870   50.4470 O.2       1 TYR        -0.3940
     19 CB         -1.9290    6.0370   49.7080 C.3       1 TYR         0.0164
     20 CG         -2.6690    7.0700   48.8430 C.ar      1 TYR        -0.0493
     21 CD1        -3.6790    7.8820   49.3870 C.ar      1 TYR        -0.0685
     22 CD2        -2.4060    7.1880   47.4680 C.ar      1 TYR        -0.0685
     23 CE1        -4.4140    8.7790   48.5910 C.ar      1 TYR        -0.0398
     24 CE2        -3.1500    8.0850   46.6570 C.ar      1 TYR        -0.0398
     25 CZ         -4.1560    8.8750   47.2310 C.ar      1 TYR         0.0805
     26 OH         -4.9450    9.7100   46.4570 O.3       1 TYR        -0.3376
     27 N          -0.3720    8.8100   50.8830 N.am      1 PRO        -0.2497
     28 CA          0.8330    9.5870   50.5660 C.3       1 PRO         0.1338
     29 C           1.2990   10.7340   51.4900 C.2       1 PRO         0.2041
     30 O           1.9080   10.5080   52.5340 O.2       1 PRO        -0.3944
     31 CB          0.5080   10.1000   49.1650 C.3       1 PRO        -0.0104
     32 CG         -1.0420   10.3670   49.2550 C.3       1 PRO        -0.0281
     33 CD         -1.5530    9.6040   50.5170 C.3       1 PRO         0.0369
     34 N           1.0290   11.9680   51.0560 N.am      1 ALA        -0.2640
     35 CA          1.4350   13.1820   51.7790 C.3       1 ALA         0.1282
     36 C           0.3370   14.2450   51.9320 C.2       1 ALA         0.2031
     37 O           0.5810   15.3270   52.4890 O.2       1 ALA        -0.3944
     38 CB          2.6630   13.8120   51.0810 C.3       1 ALA        -0.0244
     39 N          -0.8570   13.9550   51.4280 N.am      1 TRP        -0.2684
     40 CA         -1.9500   14.9100   51.5510 C.3       1 TRP         0.0986
     41 C          -2.2580   15.2250   53.0310 C.2       1 TRP         0.0613
     42 O          -3.1380   14.5260   53.6430 O.co2     1 TRP        -0.5665
     43 CB         -3.2050   14.3830   50.8390 C.3       1 TRP        -0.0013
     44 CG         -3.6640   13.0070   51.2560 C.2       1 TRP        -0.0424
     45 CD1        -2.9980   12.1210   52.0650 C.2       1 TRP         0.0166
     46 CD2        -4.8970   12.3640   50.8880 C.ar      1 TRP        -0.0214
     47 NE1        -3.7460   10.9690   52.2240 N.pl3     1 TRP        -0.2891
     48 CE2        -4.9110   11.0920   51.5140 C.ar      1 TRP         0.0603
     49 CE3        -5.9880   12.7410   50.0930 C.ar      1 TRP        -0.0747
     50 CZ2        -5.9820   10.1890   51.3660 C.ar      1 TRP        -0.0443
     51 CZ3        -7.0620   11.8380   49.9440 C.ar      1 TRP        -0.0792
     52 CH2        -7.0440   10.5780   50.5810 C.ar      1 TRP        -0.0768
     53 H          -7.6263    3.6964   52.8481 H         1 PRO         0.2035
     54 H          -8.9166    4.7354   52.5968 H         1 PRO         0.2035
     55 H          -8.2582    6.1795   54.1804 H         1 PRO         0.1099
     56 H          -7.9631    5.3589   56.4429 H         1 PRO         0.0347
     57 H          -7.1502    3.9839   55.9782 H         1 PRO         0.0347
     58 H         -10.1458    4.5939   55.5229 H         1 PRO         0.0320
     59 H          -9.4589    3.1249   56.1759 H         1 PRO         0.0320
     60 H          -8.9087    2.2623   53.9951 H         1 PRO         0.0814
     61 H         -10.2500    3.2013   53.5490 H         1 PRO         0.0814
     62 H          -5.0705    7.8166   51.8445 H         1 PRO         0.0802
     63 H          -3.4686    8.6900   53.7384 H         1 PRO         0.0313
     64 H          -3.7763    7.3427   54.6835 H         1 PRO         0.0313
     65 H          -5.7111    9.6778   54.1206 H         1 PRO         0.0287
     66 H          -5.6366    8.7206   55.5533 H         1 PRO         0.0287
     67 H          -7.4386    7.3516   54.6798 H         1 PRO         0.0524
     68 H          -7.4424    8.2354   53.2235 H         1 PRO         0.0524
     69 H          -2.4109    8.0268   52.2804 H         1 TYR         0.1885
     70 H          -1.0245    5.7807   51.7296 H         1 TYR         0.0821
     71 H          -2.6472    5.2482   49.9316 H         1 TYR         0.0453
     72 H          -1.0526    5.7267   49.1389 H         1 TYR         0.0453
     73 H          -3.8982    7.8149   50.4526 H         1 TYR         0.0530
     74 H          -1.6197    6.5824   47.0174 H         1 TYR         0.0530
     75 H          -5.1875    9.3997   49.0432 H         1 TYR         0.0525
     76 H          -2.9394    8.1593   45.5901 H         1 TYR         0.0525
     77 H          -5.5734   10.1674   47.0204 H         1 TYR         0.2458
     78 H           1.6992    8.9368   50.6885 H         1 PRO         0.0802
     79 H           0.7763    9.3954   48.3778 H         1 PRO         0.0313
     80 H           1.0801   10.9861   48.8898 H         1 PRO         0.0313
     81 H          -1.5502   10.0175   48.3563 H         1 PRO         0.0287
     82 H          -1.2494   11.4341   49.3346 H         1 PRO         0.0287
     83 H          -1.8975   10.2633   51.3137 H         1 PRO         0.0524
     84 H          -2.4415    9.0008   50.3302 H         1 PRO         0.0524
     85 H           0.5163   12.0732   50.1805 H         1 ALA         0.1883
     86 H           1.6715   12.8536   52.7911 H         1 ALA         0.0797
     87 H           3.4855   13.0968   51.0803 H         1 ALA         0.0277
     88 H           2.4032   14.0698   50.0543 H         1 ALA         0.0277
     89 H           2.9627   14.7118   51.6182 H         1 ALA         0.0277
     90 H          -1.0086   13.0641   50.9551 H         1 TRP         0.1876
     91 H          -1.6392   15.8382   51.0715 H         1 TRP         0.0741
     92 O1         -1.6524   16.1556   53.6266 O.co2     1 TRP        -0.5665
     93 H          -2.9549   14.3175   49.7801 H         1 TRP         0.0390
     94 H          -4.0141   15.0683   51.0915 H         1 TRP         0.0390
     95 H          -2.0220   12.2993   52.5163 H         1 TRP         0.0795
     96 H          -3.4742   10.1584   52.7802 H         1 TRP         0.2216
     97 H          -6.0065   13.7127   49.5995 H         1 TRP         0.0540
     98 H          -5.9703    9.2155   51.8562 H         1 TRP         0.0541
     99 H          -7.9173   12.1170   49.3287 H         1 TRP         0.0510
    100 H          -7.8873    9.9002   50.4487 H         1 TRP         0.0530
@<TRIPOS>BOND
     1    1    2 1  
     2    1    7 1  
     3    2    3 1  
     4    2    5 1  
     5    3    4 2  
     6    3    8 am 
     7    5    6 1  
     8    6    7 1  
     9    8    9 1  
    10    8   14 1  
    11    9   10 1  
    12    9   12 1  
    13   10   11 2  
    14   10   15 am 
    15   12   13 1  
    16   13   14 1  
    17   15   16 1  
    18   16   17 1  
    19   16   19 1  
    20   17   18 2  
    21   17   27 am 
    22   19   20 1  
    23   20   21 ar 
    24   20   22 ar 
    25   21   23 ar 
    26   22   24 ar 
    27   23   25 ar 
    28   24   25 ar 
    29   25   26 1  
    30   27   28 1  
    31   27   33 1  
    32   28   29 1  
    33   28   31 1  
    34   29   30 2  
    35   29   34 am 
    36   31   32 1  
    37   32   33 1  
    38   34   35 1  
    39   35   36 1  
    40   35   38 1  
    41   36   37 2  
    42   36   39 am 
    43   39   40 1  
    44   40   41 1  
    45   40   43 1  
    46   41   42 ar 
    47   43   44 1  
    48   44   45 2  
    49   44   46 1  
    50   45   47 1  
    51   46   48 ar 
    52   46   49 ar 
    53   47   48 1  
    54   48   50 ar 
    55   49   51 ar 
    56   50   52 ar 
    57   51   52 ar 
    58    1   53 1  
    59    1   54 1  
    60    2   55 1  
    61    5   56 1  
    62    5   57 1  
    63    6   58 1  
    64    6   59 1  
    65    7   60 1  
    66    7   61 1  
    67    9   62 1  
    68   12   63 1  
    69   12   64 1  
    70   13   65 1  
    71   13   66 1  
    72   14   67 1  
    73   14   68 1  
    74   15   69 1  
    75   16   70 1  
    76   19   71 1  
    77   19   72 1  
    78   21   73 1  
    79   22   74 1  
    80   23   75 1  
    81   24   76 1  
    82   26   77 1  
    83   28   78 1  
    84   31   79 1  
    85   31   80 1  
    86   32   81 1  
    87   32   82 1  
    88   33   83 1  
    89   33   84 1  
    90   34   85 1  
    91   35   86 1  
    92   38   87 1  
    93   38   88 1  
    94   38   89 1  
    95   39   90 1  
    96   40   91 1  
    97   41   92 ar 
    98   43   93 1  
    99   43   94 1  
   100   45   95 1  
   101   47   96 1  
   102   49   97 1  
   103   50   98 1  
   104   51   99 1  
   105   52  100 1  
@<TRIPOS>SUBSTRUCTURE
     1 PRO         1

