### 
### Created by X-TOOL on Mon Sep 10 21:13:07 2018
### 

@<TRIPOS>MOLECULE
2y0j_ligand
   39    43     1     0     0
SMALL
GAST_HUCK


@<TRIPOS>ATOM
      1 CAN       -21.9750  -16.2750   32.3800 C.3       1 AXC        -0.0124
      2 CAL       -21.5410  -15.2620   33.4310 C.2       1 AXC         0.0673
      3 NAM       -21.0790  -14.0440   33.1750 N.2       1 AXC        -0.2878
      4 NAK       -21.5850  -15.4960   34.7370 N.2       1 AXC        -0.1810
      5 NAI       -21.1700  -14.4960   35.3210 N.pl3     1 AXC        -0.0929
      6 CAJ       -20.8280  -13.5290   34.3700 C.2       1 AXC         0.1855
      7 CAE       -20.3330  -12.3050   34.8080 C.ar      1 AXC         0.0502
      8 CAF       -19.9830  -11.3210   33.8850 C.ar      1 AXC        -0.0486
      9 CAA       -19.4890  -10.0970   34.3260 C.ar      1 AXC        -0.0625
     10 CAB       -19.3480   -9.8610   35.6940 C.ar      1 AXC        -0.0631
     11 CAC       -19.7000  -10.8500   36.6170 C.ar      1 AXC        -0.0475
     12 CAD       -20.1900  -12.0770   36.1810 C.ar      1 AXC         0.0317
     13 NAG       -20.5250  -13.0220   37.0820 N.2       1 AXC        -0.2639
     14 CAH       -21.0060  -14.2160   36.6860 C.2       1 AXC         0.2559
     15 SAO       -21.4470  -15.4700   37.8060 S.3       1 AXC         0.0096
     16 CAP       -21.0740  -14.7520   39.4560 C.3       1 AXC         0.1018
     17 CAQ       -22.2280  -13.8940   39.9870 C.2       1 AXC         0.1344
     18 NAU       -22.2390  -12.5580   40.0320 N.2       1 AXC        -0.3172
     19 CAT       -23.4000  -12.1670   40.5410 C.ar      1 AXC         0.0207
     20 CAY       -23.9270  -10.9070   40.8050 C.ar      1 AXC        -0.0656
     21 CAX       -25.2020  -10.8060   41.3520 C.ar      1 AXC        -0.0786
     22 CAW       -25.9360  -11.9610   41.6330 C.ar      1 AXC        -0.0766
     23 CAV       -25.4020  -13.2190   41.3670 C.ar      1 AXC        -0.0422
     24 CAS       -24.1310  -13.3120   40.8200 C.ar      1 AXC         0.0783
     25 NAR       -23.3800  -14.3540   40.4750 N.pl3     1 AXC        -0.2456
     26 H1        -21.8425  -15.8426   31.3773 H         1 AXC         0.0415
     27 H2        -23.0341  -16.5303   32.5321 H         1 AXC         0.0415
     28 H3        -21.3619  -17.1837   32.4714 H         1 AXC         0.0415
     29 H4        -20.0956  -11.5092   32.8234 H         1 AXC         0.0642
     30 H5        -19.2150   -9.3305   33.6101 H         1 AXC         0.0582
     31 H6        -18.9646   -8.9086   36.0418 H         1 AXC         0.0632
     32 H7        -19.5906  -10.6599   37.6786 H         1 AXC         0.0584
     33 H8        -20.1742  -14.1245   39.3744 H         1 AXC         0.0686
     34 H9        -20.8864  -15.5717   40.1651 H         1 AXC         0.0686
     35 H10       -23.3512  -10.0148   40.5871 H         1 AXC         0.0535
     36 H11       -25.6263   -9.8305   41.5604 H         1 AXC         0.0516
     37 H12       -26.9283  -11.8772   42.0612 H         1 AXC         0.0528
     38 H13       -25.9726  -14.1146   41.5847 H         1 AXC         0.0541
     39 H14       -23.6431  -15.3454   40.5687 H         1 AXC         0.2322
@<TRIPOS>BOND
     1    1    2 1  
     2    2    3 1  
     3    2    4 2  
     4    3    6 2  
     5    4    5 1  
     6    5    6 1  
     7    5   14 1  
     8    6    7 1  
     9    7    8 ar 
    10    7   12 ar 
    11    8    9 ar 
    12    9   10 ar 
    13   10   11 ar 
    14   11   12 ar 
    15   12   13 1  
    16   13   14 2  
    17   14   15 1  
    18   15   16 1  
    19   16   17 1  
    20   17   18 2  
    21   17   25 1  
    22   18   19 1  
    23   19   20 ar 
    24   19   24 ar 
    25   20   21 ar 
    26   21   22 ar 
    27   22   23 ar 
    28   23   24 ar 
    29   24   25 1  
    30    1   26 1  
    31    1   27 1  
    32    1   28 1  
    33    8   29 1  
    34    9   30 1  
    35   10   31 1  
    36   11   32 1  
    37   16   33 1  
    38   16   34 1  
    39   20   35 1  
    40   21   36 1  
    41   22   37 1  
    42   23   38 1  
    43   25   39 1  
@<TRIPOS>SUBSTRUCTURE
     1 AXC         1

