### 
### Created by X-TOOL on Mon Sep 10 21:13:07 2018
### 

@<TRIPOS>MOLECULE
2y1o_ligand
   53    55     1     0     0
SMALL
GAST_HUCK


@<TRIPOS>ATOM
      1 OE2        -5.3310   32.1810   54.1340 O.co2     1 T26        -0.5690
      2 CD         -5.2680   31.2740   54.9930 C.2       1 T26         0.0350
      3 OE1        -4.4270   31.3180   55.9330 O.co2     1 T26        -0.5690
      4 CG         -6.2500   30.1090   54.9630 C.3       1 T26         0.0038
      5 CB         -6.1340   29.2490   53.6880 C.3       1 T26        -0.0064
      6 C          -7.1500   27.4470   52.2920 C.2       1 T26         0.0602
      7 OXT        -7.1980   27.9700   51.1270 O.co2     1 T26        -0.5666
      8 O          -6.9180   26.2310   52.4900 O.co2     1 T26        -0.5666
      9 N          -8.5350   29.1540   53.3570 N.am      1 T26        -0.2707
     10 CAU        -9.7600   28.7780   53.7440 C.2       1 T26         0.2036
     11 OBC        -9.9110   27.8100   54.4760 O.2       1 T26        -0.3846
     12 CAT       -10.9480   29.4860   53.2280 C.ar      1 T26         0.0382
     13 CAS       -10.8840   30.7730   52.8390 C.ar      1 T26        -0.0247
     14 CAQ       -12.2500   28.7930   53.1040 C.ar      1 T26        -0.0553
     15 CAR       -11.9620   31.4140   52.2410 C.ar      1 T26         0.0451
     16 CAO       -13.3230   29.4360   52.4790 C.ar      1 T26        -0.0680
     17 CAP       -13.2010   30.7770   52.1250 C.ar      1 T26        -0.0400
     18 CAA       -13.7750   33.9140   52.7120 C.ar      1 T26        -0.0211
     19 CAN       -12.9130   33.7270   51.5330 C.3       1 T26         0.0579
     20 NAY       -11.7730   32.7670   51.7230 N.pl3     1 T26        -0.3107
     21 CAC       -13.2060   34.1790   53.9490 C.ar      1 T26        -0.0576
     22 CAE       -14.0160   34.3200   55.0630 C.ar      1 T26        -0.0616
     23 CAB       -15.1530   33.8200   52.5860 C.ar      1 T26        -0.0576
     24 CAG       -15.9710   33.9720   53.7110 C.ar      1 T26        -0.0616
     25 CAF       -15.4140   34.2360   54.9560 C.ar      1 T26        -0.0324
     26 CAH       -16.2160   34.3910   56.1910 C.2       1 T26        -0.0320
     27 CAI       -17.5530   34.4750   56.3210 C.2       1 T26         0.1201
     28 SBG       -18.7890   34.3340   55.0900 S.3       1 T26         0.0251
     29 CAL       -19.9650   34.6570   56.3300 C.2       1 T26         0.1604
     30 SBH       -21.6740   34.6740   55.8690 S.2       1 T26        -0.2518
     31 NAX       -19.5430   34.8220   57.6150 N.am      1 T26        -0.1997
     32 CAK       -18.1870   34.7410   57.6220 C.2       1 T26         0.2527
     33 CA         -7.3450   28.3040   53.5210 C.3       1 T26         0.0954
     34 OBE       -17.5010   34.8700   58.6990 O.2       1 T26        -0.3705
     35 H1         -7.2720   30.5117   55.0212 H         1 T26         0.0432
     36 H2         -6.0583   29.4676   55.8358 H         1 T26         0.0432
     37 H3         -5.2167   28.6449   53.7482 H         1 T26         0.0323
     38 H4         -6.0783   29.9142   52.8137 H         1 T26         0.0323
     39 H5         -8.4233   30.0545   52.9368 H         1 T26         0.1869
     40 H6         -9.9648   31.3254   52.9968 H         1 T26         0.0565
     41 H7        -12.3714   27.7899   53.4966 H         1 T26         0.0557
     42 H8        -14.2400   28.8961   52.2723 H         1 T26         0.0594
     43 H9        -14.0628   31.3246   51.7611 H         1 T26         0.0550
     44 H10       -12.4922   34.7059   51.2598 H         1 T26         0.0678
     45 H11       -13.5389   33.3540   50.7089 H         1 T26         0.0678
     46 H12       -10.8209   33.0748   51.4785 H         1 T26         0.1782
     47 H13       -12.1304   34.2754   54.0432 H         1 T26         0.0561
     48 H14       -13.5645   34.4979   56.0323 H         1 T26         0.0601
     49 H15       -15.5965   33.6287   51.6155 H         1 T26         0.0561
     50 H16       -17.0467   33.8832   53.6104 H         1 T26         0.0601
     51 H17       -15.6479   34.4442   57.1185 H         1 T26         0.0589
     52 H18       -20.1277   34.9755   58.4116 H         1 T26         0.2377
     53 H19        -7.4547   27.6626   54.4079 H         1 T26         0.0727
@<TRIPOS>BOND
     1    2    1 ar 
     2    2    3 ar 
     3    4    2 1  
     4    5    4 1  
     5   33    5 1  
     6    6    7 ar 
     7    6    8 ar 
     8   33    6 1  
     9   10    9 am 
    10    9   33 1  
    11   10   11 2  
    12   12   10 1  
    13   13   12 ar 
    14   12   14 ar 
    15   15   13 ar 
    16   16   14 ar 
    17   15   17 ar 
    18   20   15 1  
    19   17   16 ar 
    20   19   18 1  
    21   18   21 ar 
    22   18   23 ar 
    23   19   20 1  
    24   21   22 ar 
    25   22   25 ar 
    26   23   24 ar 
    27   24   25 ar 
    28   25   26 1  
    29   26   27 2  
    30   27   28 1  
    31   27   32 1  
    32   28   29 1  
    33   29   30 2  
    34   29   31 am 
    35   31   32 am 
    36   32   34 2  
    37    4   35 1  
    38    4   36 1  
    39    5   37 1  
    40    5   38 1  
    41    9   39 1  
    42   13   40 1  
    43   14   41 1  
    44   16   42 1  
    45   17   43 1  
    46   19   44 1  
    47   19   45 1  
    48   20   46 1  
    49   21   47 1  
    50   22   48 1  
    51   23   49 1  
    52   24   50 1  
    53   26   51 1  
    54   31   52 1  
    55   33   53 1  
@<TRIPOS>SUBSTRUCTURE
     1 T26         1

