### 
### Created by X-TOOL on Mon Sep 10 21:13:07 2018
### 

@<TRIPOS>MOLECULE
2y1x_ligand
   57    61     1     0     0
SMALL
GAST_HUCK


@<TRIPOS>ATOM
      1 N1         30.4290  -16.9200  -22.6990 N.pl3     1 845        -0.1130
      2 C2         31.6090  -17.3840  -23.3430 C.2       1 845         0.1905
      3 C3         32.1740  -16.2990  -24.0080 C.2       1 845        -0.0016
      4 C4         31.3470  -15.1910  -23.7690 C.2       1 845         0.1272
      5 N5         30.2880  -15.6020  -22.9650 N.2       1 845        -0.1301
      6 C6         29.6180  -17.6160  -21.9680 C.ar      1 845         0.1244
      7 C7         29.8720  -17.7230  -20.5730 C.ar      1 845        -0.0259
      8 C8         29.0110  -18.4740  -19.7490 C.ar      1 845        -0.0685
      9 C9         27.8910  -19.1310  -20.2980 C.ar      1 845        -0.0618
     10 C10        27.6050  -19.0480  -21.6870 C.ar      1 845        -0.0214
     11 C11        28.4820  -18.2810  -22.5220 C.ar      1 845        -0.0162
     12 C12        32.1670  -18.6830  -23.3790 C.2       1 845         0.2544
     13 C13        26.3640  -19.7840  -22.2850 C.3       1 845         0.0639
     14 N14        25.2870  -20.1760  -21.3400 N.am      1 845        -0.2711
     15 C15        31.5510  -13.7580  -24.3030 C.3       1 845         0.3862
     16 F16        32.8620  -13.5010  -24.5740 F         1 845        -0.2196
     17 F17        31.1100  -12.8460  -23.3870 F         1 845        -0.2196
     18 F18        30.8490  -13.5860  -25.4420 F         1 845        -0.2196
     19 C19        24.5490  -19.2670  -20.6290 C.2       1 845         0.2260
     20 C20        23.8440  -19.7700  -19.3540 C.3       1 845         0.0621
     21 O21        24.4680  -18.0720  -20.9530 O.2       1 845        -0.3907
     22 N22        22.5710  -19.0340  -19.1560 N.4       1 845         0.2377
     23 C23        23.5480  -21.2880  -19.4210 C.3       1 845        -0.0040
     24 N24        33.4890  -19.0560  -23.3010 N.2       1 845        -0.2302
     25 N25        33.5390  -20.4000  -23.3940 N.2       1 845        -0.2342
     26 C26        32.2470  -20.8870  -23.5330 C.2       1 845         0.2131
     27 O27        31.4230  -19.7980  -23.5150 O.3       1 845        -0.1930
     28 C28        31.8030  -22.2160  -23.6810 C.ar      1 845         0.0312
     29 C29        32.5440  -23.1060  -24.5320 C.ar      1 845        -0.0606
     30 C30        32.1410  -24.4670  -24.7480 C.ar      1 845        -0.0705
     31 C31        30.9860  -24.9940  -24.1330 C.ar      1 845        -0.0389
     32 C32        30.2180  -24.1470  -23.2750 C.ar      1 845         0.0682
     33 C33        30.6010  -22.7780  -23.0420 C.ar      1 845        -0.0111
     34 C34        29.6550  -22.2430  -22.1720 C.2       1 845        -0.0604
     35 C35        28.7450  -23.2600  -21.9030 C.2       1 845         0.0238
     36 N36        29.0680  -24.4520  -22.5770 N.pl3     1 845        -0.2779
     37 H          33.0874  -16.3086  -24.6027 H         1 845         0.0543
     38 H          30.7371  -17.2215  -20.1392 H         1 845         0.0561
     39 H          29.2120  -18.5476  -18.6802 H         1 845         0.0592
     40 H          27.2356  -19.7105  -19.6479 H         1 845         0.0528
     41 H          28.2799  -18.2045  -23.5904 H         1 845         0.0553
     42 H          26.7453  -20.7160  -22.7024 H         1 845         0.0683
     43 H          25.9069  -19.0781  -22.9784 H         1 845         0.0683
     44 H          25.0877  -21.1685  -21.2147 H         1 845         0.1879
     45 H          24.5171  -19.5901  -18.5157 H         1 845         0.1095
     46 H          22.1116  -19.3730  -18.3108 H         1 845         0.2015
     47 H          22.7670  -18.0375  -19.0615 H         1 845         0.2015
     48 H          21.9624  -19.1873  -19.9600 H         1 845         0.2015
     49 H          22.9012  -21.4934  -20.2739 H         1 845         0.0310
     50 H          24.4842  -21.8348  -19.5333 H         1 845         0.0310
     51 H          23.0509  -21.6008  -18.5028 H         1 845         0.0310
     52 H          33.4406  -22.7360  -25.0293 H         1 845         0.0566
     53 H          32.7386  -25.1049  -25.3993 H         1 845         0.0544
     54 H          30.6851  -26.0268  -24.3086 H         1 845         0.0582
     55 H          29.6319  -21.2267  -21.7788 H         1 845         0.0297
     56 H          27.8822  -23.1467  -21.2466 H         1 845         0.0952
     57 H          28.5660  -25.3397  -22.5546 H         1 845         0.2278
@<TRIPOS>BOND
     1    1    2 1  
     2    1    5 1  
     3    1    6 1  
     4    2    3 2  
     5    2   12 1  
     6    3    4 1  
     7    4    5 2  
     8    4   15 1  
     9    6    7 ar 
    10    6   11 ar 
    11    7    8 ar 
    12    8    9 ar 
    13    9   10 ar 
    14   10   11 ar 
    15   10   13 1  
    16   12   24 2  
    17   12   27 1  
    18   13   14 1  
    19   14   19 am 
    20   15   16 1  
    21   15   17 1  
    22   15   18 1  
    23   19   20 1  
    24   19   21 2  
    25   20   22 1  
    26   20   23 1  
    27   24   25 1  
    28   25   26 2  
    29   26   27 1  
    30   26   28 1  
    31   28   29 ar 
    32   28   33 ar 
    33   29   30 ar 
    34   30   31 ar 
    35   31   32 ar 
    36   32   33 ar 
    37   32   36 1  
    38   33   34 1  
    39   34   35 2  
    40   35   36 1  
    41    3   37 1  
    42    7   38 1  
    43    8   39 1  
    44    9   40 1  
    45   11   41 1  
    46   13   42 1  
    47   13   43 1  
    48   14   44 1  
    49   20   45 1  
    50   22   46 1  
    51   22   47 1  
    52   22   48 1  
    53   23   49 1  
    54   23   50 1  
    55   23   51 1  
    56   29   52 1  
    57   30   53 1  
    58   31   54 1  
    59   34   55 1  
    60   35   56 1  
    61   36   57 1  
@<TRIPOS>SUBSTRUCTURE
     1 845         1

