### 
### Created by X-TOOL on Mon Sep 10 21:13:04 2018
### 

@<TRIPOS>MOLECULE
2y34_ligand
   27    28     1     0     0
SMALL
GAST_HUCK


@<TRIPOS>ATOM
      1 O18        36.3880  -16.7700    2.8300 O.co2     1 UN9        -0.5669
      2 C16        35.7900  -17.3170    1.8810 C.2       1 UN9         0.0569
      3 O17        34.6200  -17.0780    1.5110 O.co2     1 UN9        -0.5669
      4 C15        36.5440  -18.3850    1.0890 C.3       1 UN9         0.0825
      5 N14        37.9180  -18.5160    1.5930 N.am      1 UN9        -0.2751
      6 C12        38.7190  -19.4490    1.0920 C.2       1 UN9         0.2102
      7 O13        38.3740  -20.2330    0.2060 O.2       1 UN9        -0.3909
      8 C9         40.1290  -19.5310    1.6740 C.ar      1 UN9         0.1403
      9 N8         40.8050  -20.6740    1.4890 N.ar      1 UN9        -0.2813
     10 C7         42.0280  -20.8830    1.9960 C.ar      1 UN9         0.1160
     11 CL1        42.7230  -22.4560    1.7570 Cl        1 UN9        -0.0455
     12 C2         42.6510  -19.8780    2.7360 C.ar      1 UN9         0.0220
     13 C10        40.6960  -18.4990    2.4140 C.ar      1 UN9         0.1430
     14 O19        40.0200  -17.3440    2.6630 O.3       1 UN9        -0.3160
     15 C3         41.9710  -18.6780    2.9400 C.ar      1 UN9         0.0383
     16 C4         42.5530  -17.6500    3.6730 C.ar      1 UN9        -0.0441
     17 C5         43.8250  -17.8110    4.2140 C.ar      1 UN9        -0.0567
     18 C6         44.5060  -19.0070    4.0100 C.ar      1 UN9        -0.0571
     19 C1         43.9240  -20.0390    3.2760 C.ar      1 UN9        -0.0475
     20 H1         36.5724  -18.0977    0.0276 H         1 UN9         0.0688
     21 H2         36.0251  -19.3492    1.1942 H         1 UN9         0.0688
     22 H3         38.2490  -17.9041    2.3114 H         1 UN9         0.1860
     23 H4         39.7995  -16.9238    1.8401 H         1 UN9         0.2571
     24 H5         42.0149  -16.7211    3.8234 H         1 UN9         0.0661
     25 H6         44.2806  -17.0127    4.7885 H         1 UN9         0.0632
     26 H7         45.4985  -19.1374    4.4258 H         1 UN9         0.0646
     27 H8         44.4628  -20.9675    3.1255 H         1 UN9         0.0641
@<TRIPOS>BOND
     1    1    2 ar 
     2    2    3 ar 
     3    2    4 1  
     4    4    5 1  
     5    5    6 am 
     6    6    7 2  
     7    6    8 1  
     8    8    9 ar 
     9    8   13 ar 
    10    9   10 ar 
    11   10   11 1  
    12   10   12 ar 
    13   12   15 ar 
    14   12   19 ar 
    15   13   14 1  
    16   13   15 ar 
    17   15   16 ar 
    18   16   17 ar 
    19   17   18 ar 
    20   18   19 ar 
    21    4   20 1  
    22    4   21 1  
    23    5   22 1  
    24   14   23 1  
    25   16   24 1  
    26   17   25 1  
    27   18   26 1  
    28   19   27 1  
@<TRIPOS>SUBSTRUCTURE
     1 UN9         1

