### 
### Created by X-TOOL on Mon Sep 10 21:13:03 2018
### 

@<TRIPOS>MOLECULE
2y3p_ligand
  108   115     1     0     0
SMALL
GAST_HUCK


@<TRIPOS>ATOM
      1 N4        -15.7270   45.1370   32.6520 N.am      1 SM8        -0.2409
      2 CL4       -21.7880   45.4590   34.9500 Cl        1 SM8        -0.0869
      3 C1A        -1.8770   52.3210   27.2830 C.ar      1 SM8         0.0138
      4 O1A        -2.5840   52.6090   29.5510 O.3       1 SM8        -0.3396
      5 C1B        -2.0240   53.1050   28.4120 C.ar      1 SM8         0.1019
      6 O1B        -2.7000   54.6480   30.5580 O.3       1 SM8        -0.3773
      7 C1C        -1.5960   54.4160   28.3910 C.ar      1 SM8         0.0304
      8 O1C        -1.3860   59.0120   26.0880 O.2       1 SM8        -0.3594
      9 C1D        -1.7740   55.2040   29.6230 C.3       1 SM8         0.1222
     10 O1D         0.6890   59.0060   30.2630 O.3       1 SM8        -0.3839
     11 C1E        -1.7500   56.7200   29.4990 C.3       1 SM8         0.1644
     12 C1F        -1.7740   57.5550   30.7700 C.3       1 SM8         0.0926
     13 O1F         0.8780   58.6880   27.8970 O.3       1 SM8        -0.3821
     14 C1G        -1.7320   59.0460   30.4610 C.3       1 SM8         0.0094
     15 O1G         0.2210   56.7460   26.3590 O.2       1 SM8        -0.3295
     16 C1H        -0.5180   59.4290   29.6200 C.3       1 SM8         0.1180
     17 O1H        -2.4730   57.2490   28.3890 O.3       1 SM8        -0.3499
     18 C1I        -1.5800   61.4540   28.6140 C.2       1 SM8        -0.0403
     19 C1J        -0.4530   60.9460   29.4840 C.3       1 SM8         0.0244
     20 C1K        -2.3070   62.7170   28.9710 C.3       1 SM8        -0.0177
     21 C1L        -1.9310   60.7750   27.5140 C.2       1 SM8        -0.0244
     22 C1M        -1.2840   59.4860   27.2080 C.2       1 SM8         0.1403
     23 C1N        -0.5080   58.7370   28.2620 C.3       1 SM8         0.1881
     24 C1O        -1.0480   57.3080   28.2820 C.3       1 SM8         0.2021
     25 C1P        -0.5550   56.3630   27.2210 C.2       1 SM8         0.1770
     26 C1Q        -1.0240   54.9420   27.2440 C.ar      1 SM8         0.0257
     27 C1R        -0.8770   54.1560   26.1060 C.ar      1 SM8        -0.0664
     28 C1S        -1.3080   52.8360   26.1240 C.ar      1 SM8        -0.0663
     29 C2A        -2.3400   50.9220   27.3200 C.3       1 SM8         0.0948
     30 O2A        -1.7330   50.1640   26.2760 O.3       1 SM8        -0.3593
     31 C2B        -3.8440   50.9550   27.1190 C.3       1 SM8         0.0159
     32 O2B        -3.9560   47.2680   26.4230 O.3       1 SM8        -0.2681
     33 C2C        -4.3810   49.5340   27.1190 C.3       1 SM8         0.1226
     34 O2C        -4.0480   45.4780   24.9980 O.2       1 SM8        -0.3707
     35 C2D        -3.5830   48.6240   26.1910 C.3       1 SM8         0.1438
     36 O2D        -5.7280   49.6140   26.6710 O.3       1 SM8        -0.2741
     37 C2E        -2.0770   48.7840   26.3710 C.3       1 SM8         0.0919
     38 C2F        -1.3220   48.0110   25.2980 C.3       1 SM8        -0.0356
     39 C2G        -4.4010   46.6290   25.1950 C.2       1 SM8         0.2310
     40 C2H        -5.2610   47.3860   24.2230 C.3       1 SM8         0.0372
     41 C3A        -6.5980   49.0400   27.6750 C.2       1 SM8         0.2495
     42 O3A        -6.1070   48.7250   28.7460 O.2       1 SM8        -0.3638
     43 C3B        -7.8980   48.8690   27.4040 C.2       1 SM8         0.0218
     44 O3B       -16.4630   45.7790   30.6310 O.2       1 SM8        -0.3839
     45 C3C        -8.6860   48.3380   28.3310 C.2       1 SM8        -0.0435
     46 C3D        -9.9790   48.1550   28.0970 C.2       1 SM8        -0.0485
     47 C3E       -10.6940   47.6190   29.0770 C.2       1 SM8        -0.0492
     48 C3F       -11.9950   47.3900   28.9550 C.2       1 SM8        -0.0491
     49 C3G       -12.5890   46.8500   30.0130 C.2       1 SM8        -0.0486
     50 C3H       -13.8840   46.5590   30.0530 C.2       1 SM8        -0.0438
     51 C3I       -14.2980   46.0260   31.1940 C.2       1 SM8         0.0159
     52 C3J       -15.5590   45.6560   31.4430 C.2       1 SM8         0.2140
     53 C4A       -17.0090   44.7350   33.0170 C.2       1 SM8         0.1696
     54 O4A       -16.7610   42.3740   32.3080 O.3       1 SM8        -0.3455
     55 C4B       -17.5330   43.3580   32.8460 C.2       1 SM8         0.1140
     56 O4B       -22.8520   42.6770   34.6030 O.3       1 SM8        -0.3358
     57 C4C       -18.9340   43.1250   33.2970 C.ar      1 SM8         0.0296
     58 O4C       -19.1510   45.4560   33.9860 O.3       1 SM8        -0.2165
     59 C4D       -19.5450   41.8790   33.1930 C.ar      1 SM8        -0.0691
     60 O4D       -17.4570   46.9400   33.7570 O.2       1 SM8        -0.3784
     61 C4E       -20.8600   41.7200   33.6310 C.ar      1 SM8        -0.0437
     62 O4E        -0.6310   57.1770   31.5450 O.3       1 SM8        -0.3887
     63 C4F       -21.5670   42.7950   34.1690 C.ar      1 SM8         0.0933
     64 C4G       -20.9540   44.0250   34.2690 C.ar      1 SM8         0.0990
     65 C4H       -19.6520   44.1900   33.8380 C.ar      1 SM8         0.1393
     66 C4I       -17.8820   45.7750   33.6070 C.2       1 SM8         0.2849
     67 H         -14.9567   45.0375   33.2819 H         1 SM8         0.2202
     68 H          -2.6011   53.2876   30.2156 H         1 SM8         0.2430
     69 H          -2.4015   53.7860   30.8232 H         1 SM8         0.2130
     70 H          -0.8162   55.0235   30.1329 H         1 SM8         0.0776
     71 H           0.6739   58.0626   30.3733 H         1 SM8         0.2104
     72 H          -2.6926   57.3358   31.3340 H         1 SM8         0.0625
     73 H           0.9668   58.2650   27.0509 H         1 SM8         0.2079
     74 H          -1.6955   59.6029   31.4089 H         1 SM8         0.0320
     75 H          -2.6442   59.3190   29.9102 H         1 SM8         0.0320
     76 H           0.5085   61.2268   29.0295 H         1 SM8         0.0539
     77 H          -0.5339   61.4017   30.4819 H         1 SM8         0.0539
     78 H          -3.0861   62.9163   28.2204 H         1 SM8         0.0476
     79 H          -1.5958   63.5559   28.9928 H         1 SM8         0.0476
     80 H          -2.7722   62.6049   29.9614 H         1 SM8         0.0476
     81 H          -2.6932   61.1745   26.8466 H         1 SM8         0.0293
     82 H          -0.4288   54.5712   25.2106 H         1 SM8         0.0544
     83 H          -1.2018   52.2134   25.2430 H         1 SM8         0.0490
     84 H          -2.0954   50.4690   28.2921 H         1 SM8         0.0747
     85 H          -4.0759   51.4355   26.1571 H         1 SM8         0.0340
     86 H          -4.3116   51.5246   27.9356 H         1 SM8         0.0340
     87 H          -4.3456   49.1249   28.1395 H         1 SM8         0.0679
     88 H          -3.8334   48.8869   25.1527 H         1 SM8         0.0705
     89 H          -1.7899   48.4020   27.3618 H         1 SM8         0.0626
     90 H          -1.5815   46.9441   25.3637 H         1 SM8         0.0256
     91 H          -0.2396   48.1351   25.4498 H         1 SM8         0.0256
     92 H          -1.5996   48.3953   24.3054 H         1 SM8         0.0256
     93 H          -5.4945   46.7426   23.3619 H         1 SM8         0.0483
     94 H          -4.7229   48.2808   23.8769 H         1 SM8         0.0483
     95 H          -6.1952   47.6887   24.7185 H         1 SM8         0.0483
     96 H          -8.3033   49.1615   26.4365 H         1 SM8         0.0680
     97 H          -8.2666   48.0496   29.2937 H         1 SM8         0.0728
     98 H         -10.4315   48.4316   27.1459 H         1 SM8         0.0667
     99 H         -10.1977   47.3588   30.0108 H         1 SM8         0.0695
    100 H         -12.5417   47.6298   28.0442 H         1 SM8         0.0690
    101 H         -11.9834   46.6350   30.8922 H         1 SM8         0.0673
    102 H         -14.5535   46.7437   29.2142 H         1 SM8         0.0721
    103 H         -13.5612   45.8794   31.9823 H         1 SM8         0.0685
    104 H         -17.2579   41.5650   32.2761 H         1 SM8         0.2420
    105 H         -23.1523   43.5161   34.9319 H         1 SM8         0.2481
    106 H         -19.0033   41.0383   32.7748 H         1 SM8         0.0542
    107 H         -21.3375   40.7500   33.5523 H         1 SM8         0.0467
    108 H           0.1600   57.3712   31.0561 H         1 SM8         0.2099
@<TRIPOS>BOND
     1    1   52 am 
     2   53    1 1  
     3   64    2 1  
     4    3    5 ar 
     5    3   28 ar 
     6   29    3 1  
     7    5    4 1  
     8    5    7 ar 
     9    9    6 1  
    10    7    9 1  
    11    7   26 ar 
    12   22    8 2  
    13    9   11 1  
    14   16   10 1  
    15   11   12 1  
    16   11   17 1  
    17   11   24 1  
    18   12   14 1  
    19   12   62 1  
    20   23   13 1  
    21   14   16 1  
    22   25   15 2  
    23   16   19 1  
    24   23   16 1  
    25   24   17 1  
    26   19   18 1  
    27   18   20 1  
    28   21   18 2  
    29   22   21 1  
    30   23   22 1  
    31   24   23 1  
    32   25   24 1  
    33   26   25 1  
    34   27   26 ar 
    35   28   27 ar 
    36   29   30 1  
    37   31   29 1  
    38   37   30 1  
    39   33   31 1  
    40   35   32 1  
    41   32   39 1  
    42   33   35 1  
    43   36   33 1  
    44   39   34 2  
    45   35   37 1  
    46   41   36 1  
    47   37   38 1  
    48   39   40 1  
    49   41   42 2  
    50   43   41 1  
    51   45   43 2  
    52   52   44 2  
    53   46   45 1  
    54   47   46 2  
    55   48   47 1  
    56   49   48 2  
    57   50   49 1  
    58   51   50 2  
    59   52   51 1  
    60   55   53 2  
    61   53   66 1  
    62   55   54 1  
    63   57   55 1  
    64   63   56 1  
    65   59   57 ar 
    66   57   65 ar 
    67   65   58 1  
    68   58   66 1  
    69   61   59 ar 
    70   66   60 2  
    71   63   61 ar 
    72   63   64 ar 
    73   64   65 ar 
    74    1   67 1  
    75    4   68 1  
    76    6   69 1  
    77    9   70 1  
    78   10   71 1  
    79   12   72 1  
    80   13   73 1  
    81   14   74 1  
    82   14   75 1  
    83   19   76 1  
    84   19   77 1  
    85   20   78 1  
    86   20   79 1  
    87   20   80 1  
    88   21   81 1  
    89   27   82 1  
    90   28   83 1  
    91   29   84 1  
    92   31   85 1  
    93   31   86 1  
    94   33   87 1  
    95   35   88 1  
    96   37   89 1  
    97   38   90 1  
    98   38   91 1  
    99   38   92 1  
   100   40   93 1  
   101   40   94 1  
   102   40   95 1  
   103   43   96 1  
   104   45   97 1  
   105   46   98 1  
   106   47   99 1  
   107   48  100 1  
   108   49  101 1  
   109   50  102 1  
   110   51  103 1  
   111   54  104 1  
   112   56  105 1  
   113   59  106 1  
   114   61  107 1  
   115   62  108 1  
@<TRIPOS>SUBSTRUCTURE
     1 SM8         1

