### 
### Created by X-TOOL on Mon Sep 10 21:13:06 2018
### 

@<TRIPOS>MOLECULE
2y54_ligand
   35    37     1     0     0
SMALL
GAST_HUCK


@<TRIPOS>ATOM
      1 C3         87.7860   34.2380  -30.2470 C.ar      1 V63        -0.0406
      2 C11        87.1410   35.4140  -27.8040 C.ar      1 V63        -0.0559
      3 C1         87.6940   34.1330  -27.8350 C.ar      1 V63        -0.0406
      4 C13        91.3100   31.6960  -32.1800 C.3       1 V63        -0.0045
      5 C5         88.6030   32.1520  -29.1080 C.2       1 V63         0.2635
      6 C10        89.0250   29.5290  -31.7330 C.3       1 V63         0.0211
      7 C7         86.9080   36.1050  -28.9920 C.ar      1 V63        -0.0573
      8 C8         90.8870   30.3100  -30.1480 C.3       1 V63         0.0211
      9 C6         91.7370   30.4480  -31.4130 C.3       1 V63        -0.0195
     10 C2         87.2250   35.5150  -30.2160 C.ar      1 V63        -0.0559
     11 C12        90.2120   31.2290  -33.1240 C.3       1 V63        -0.0045
     12 C4         90.0610   29.7390  -32.8380 C.3       1 V63        -0.0195
     13 C14        88.0190   33.5390  -29.0570 C.ar      1 V63         0.0620
     14 C80        89.3790   30.2220  -30.4130 C.3       1 V63         0.0967
     15 O15        88.8860   31.5540  -28.0810 O.2       1 V63        -0.3568
     16 N          91.3650   29.3290  -32.2910 N.4       1 V63         0.2315
     17 O17        88.8130   31.5310  -30.4130 O.3       1 V63        -0.2738
     18 H          88.0442   33.7823  -31.2029 H         1 V63         0.0672
     19 H          86.8907   35.8752  -26.8486 H         1 V63         0.0630
     20 H          87.8727   33.5950  -26.9040 H         1 V63         0.0672
     21 H          92.1449   32.1393  -32.7228 H         1 V63         0.0322
     22 H          90.9567   32.4788  -31.5088 H         1 V63         0.0322
     23 H          88.9742   28.4584  -31.5345 H         1 V63         0.0348
     24 H          88.0855   29.9569  -32.0829 H         1 V63         0.0348
     25 H          86.4781   37.1063  -28.9647 H         1 V63         0.0654
     26 H          91.0570   31.2029  -29.5464 H         1 V63         0.0348
     27 H          91.1833   29.3814  -29.6602 H         1 V63         0.0348
     28 H          92.7937   30.4804  -31.1477 H         1 V63         0.0851
     29 H          87.0347   36.0507  -31.1460 H         1 V63         0.0630
     30 H          90.4655   31.4186  -34.1670 H         1 V63         0.0322
     31 H          89.2798   31.7701  -32.9617 H         1 V63         0.0322
     32 H          89.7592   29.1875  -33.7285 H         1 V63         0.0851
     33 H          88.9647   29.6123  -29.6101 H         1 V63         0.0651
     34 H          91.3176   28.4404  -31.7925 H         1 V63         0.2019
     35 H          92.0577   29.1572  -33.0197 H         1 V63         0.2019
@<TRIPOS>BOND
     1    1   10 ar 
     2   13    1 ar 
     3    3    2 ar 
     4    2    7 ar 
     5   13    3 ar 
     6    9    4 1  
     7    4   11 1  
     8    5   13 1  
     9    5   15 2  
    10   17    5 1  
    11    6   12 1  
    12   14    6 1  
    13   10    7 ar 
    14    8    9 1  
    15   14    8 1  
    16    9   16 1  
    17   12   11 1  
    18   12   16 1  
    19   14   17 1  
    20    1   18 1  
    21    2   19 1  
    22    3   20 1  
    23    4   21 1  
    24    4   22 1  
    25    6   23 1  
    26    6   24 1  
    27    7   25 1  
    28    8   26 1  
    29    8   27 1  
    30    9   28 1  
    31   10   29 1  
    32   11   30 1  
    33   11   31 1  
    34   12   32 1  
    35   14   33 1  
    36   16   34 1  
    37   16   35 1  
@<TRIPOS>SUBSTRUCTURE
     1 V63         1

