### 
### Created by X-TOOL on Mon Sep 10 21:13:05 2018
### 

@<TRIPOS>MOLECULE
2y58_ligand
   55    58     1     0     0
SMALL
GAST_HUCK


@<TRIPOS>ATOM
      1 O2        -87.8420  -32.2350  -30.3220 O.2       1 V38        -0.3568
      2 C1        -88.0800  -31.0650  -30.0430 C.2       1 V38         0.2635
      3 C2        -88.1400  -30.5890  -28.6160 C.ar      1 V38         0.0620
      4 C7        -88.6040  -29.2870  -28.3480 C.ar      1 V38        -0.0406
      5 C6        -88.6640  -28.8050  -27.0320 C.ar      1 V38        -0.0559
      6 C5        -88.2490  -29.6210  -25.9750 C.ar      1 V38        -0.0573
      7 C4        -87.7620  -30.9050  -26.2400 C.ar      1 V38        -0.0559
      8 C3        -87.7020  -31.3940  -27.5560 C.ar      1 V38        -0.0406
      9 O1        -88.3070  -30.0460  -31.0630 O.3       1 V38        -0.2738
     10 C8        -88.4690  -30.4690  -32.4150 C.3       1 V38         0.0967
     11 C12       -89.6860  -31.3830  -32.6150 C.3       1 V38         0.0212
     12 C11       -90.9470  -30.6500  -33.0680 C.3       1 V38        -0.0159
     13 C13       -91.2870  -29.6670  -31.9540 C.3       1 V38        -0.0044
     14 C14       -90.6110  -28.3540  -32.3410 C.3       1 V38        -0.0044
     15 C10       -89.8900  -28.6780  -33.6470 C.3       1 V38        -0.0159
     16 C9        -88.5000  -29.1980  -33.2730 C.3       1 V38         0.0212
     17 N         -90.6590  -29.7850  -34.2340 N.4       1 V38         0.2488
     18 C23       -91.9130  -29.2750  -34.8110 C.3       1 V38        -0.0405
     19 C15       -89.9130  -30.4350  -35.3160 C.3       1 V38         0.0067
     20 C16       -90.7140  -31.6360  -35.7790 C.3       1 V38         0.1287
     21 O3        -90.1380  -32.8140  -35.2270 O.3       1 V38        -0.3739
     22 C17       -90.6620  -31.7110  -37.2430 C.ar      1 V38        -0.0097
     23 C22       -91.8600  -31.6230  -37.9710 C.ar      1 V38        -0.0577
     24 C21       -91.8440  -31.6660  -39.3700 C.ar      1 V38        -0.0685
     25 C20       -90.6070  -31.8120  -40.0120 C.ar      1 V38        -0.0687
     26 C19       -89.4040  -31.9080  -39.2760 C.ar      1 V38        -0.0685
     27 C18       -89.4240  -31.8600  -37.8830 C.ar      1 V38        -0.0577
     28 H         -88.9199  -28.6468  -29.1717 H         1 V38         0.0672
     29 H         -89.0326  -27.7985  -26.8342 H         1 V38         0.0630
     30 H         -88.3048  -29.2579  -24.9488 H         1 V38         0.0654
     31 H         -87.4250  -31.5338  -25.4159 H         1 V38         0.0630
     32 H         -87.3166  -32.3947  -27.7513 H         1 V38         0.0672
     33 H         -87.6356  -31.1004  -32.7230 H         1 V38         0.0651
     34 H         -89.9075  -31.8413  -31.6512 H         1 V38         0.0348
     35 H         -89.4287  -32.0968  -33.3975 H         1 V38         0.0348
     36 H         -91.7227  -31.3793  -33.3013 H         1 V38         0.0853
     37 H         -90.9350  -30.0253  -30.9866 H         1 V38         0.0322
     38 H         -92.3648  -29.5432  -31.8484 H         1 V38         0.0322
     39 H         -89.9274  -27.9992  -31.5697 H         1 V38         0.0322
     40 H         -91.3267  -27.5400  -32.4561 H         1 V38         0.0322
     41 H         -89.8058  -27.8276  -34.3236 H         1 V38         0.0853
     42 H         -88.0033  -29.4482  -34.2104 H         1 V38         0.0348
     43 H         -88.0288  -28.4149  -32.6789 H         1 V38         0.0348
     44 H         -92.5311  -30.1134  -35.1322 H         1 V38         0.0778
     45 H         -92.4478  -28.6947  -34.0591 H         1 V38         0.0778
     46 H         -91.6857  -28.6405  -35.6676 H         1 V38         0.0778
     47 H         -88.9316  -30.7500  -34.9614 H         1 V38         0.0865
     48 H         -89.7639  -29.7397  -36.1421 H         1 V38         0.0865
     49 H         -91.7500  -31.5430  -35.4531 H         1 V38         0.0812
     50 H         -90.6399  -33.5798  -35.5157 H         1 V38         0.2132
     51 H         -92.8082  -31.5206  -37.4432 H         1 V38         0.0557
     52 H         -92.7675  -31.5881  -39.9437 H         1 V38         0.0599
     53 H         -90.5717  -31.8523  -41.1007 H         1 V38         0.0559
     54 H         -88.4552  -32.0202  -39.8007 H         1 V38         0.0599
     55 H         -88.5018  -31.9363  -37.3070 H         1 V38         0.0557
@<TRIPOS>BOND
     1    1    2 2  
     2    2    3 1  
     3    2    9 1  
     4    3    4 ar 
     5    3    8 ar 
     6    4    5 ar 
     7    5    6 ar 
     8    6    7 ar 
     9    7    8 ar 
    10    9   10 1  
    11   10   11 1  
    12   10   16 1  
    13   11   12 1  
    14   12   13 1  
    15   12   17 1  
    16   13   14 1  
    17   14   15 1  
    18   15   16 1  
    19   15   17 1  
    20   17   18 1  
    21   17   19 1  
    22   19   20 1  
    23   20   21 1  
    24   20   22 1  
    25   22   23 ar 
    26   22   27 ar 
    27   23   24 ar 
    28   24   25 ar 
    29   25   26 ar 
    30   26   27 ar 
    31    4   28 1  
    32    5   29 1  
    33    6   30 1  
    34    7   31 1  
    35    8   32 1  
    36   10   33 1  
    37   11   34 1  
    38   11   35 1  
    39   12   36 1  
    40   13   37 1  
    41   13   38 1  
    42   14   39 1  
    43   14   40 1  
    44   15   41 1  
    45   16   42 1  
    46   16   43 1  
    47   18   44 1  
    48   18   45 1  
    49   18   46 1  
    50   19   47 1  
    51   19   48 1  
    52   20   49 1  
    53   21   50 1  
    54   23   51 1  
    55   24   52 1  
    56   25   53 1  
    57   26   54 1  
    58   27   55 1  
@<TRIPOS>SUBSTRUCTURE
     1 V38         1

