### 
### Created by X-TOOL on Mon Sep 10 21:13:05 2018
### 

@<TRIPOS>MOLECULE
2y5f_ligand
   68    73     1     0     0
SMALL
GAST_HUCK


@<TRIPOS>ATOM
      1 CL1        -0.5040    5.7010   27.9950 Cl        1 XWG        -0.0551
      2 C25        -1.2770    7.2730   27.5840 C.2       1 XWG         0.0959
      3 C24        -2.3770    7.8220   28.1910 C.2       1 XWG        -0.0591
      4 C22        -2.6990    9.0320   27.5800 C.2       1 XWG        -0.0635
      5 S1         -0.5440    8.1750   26.3360 S.3       1 XWG        -0.0237
      6 C20        -1.7920    9.3340   26.5820 C.2       1 XWG         0.0719
      7 C17        -1.8180   10.4320   25.7310 C.2       1 XWG         0.1598
      8 C16        -2.9060   11.1400   25.3110 C.2       1 XWG        -0.0177
      9 O10        -0.7090   10.8190   25.0880 O.3       1 XWG        -0.1785
     10 N9         -1.0440   11.8910   24.2560 N.2       1 XWG        -0.1536
     11 C4         -2.3470   12.0750   24.3730 C.2       1 XWG         0.0761
     12 C1         -3.1590   13.1180   23.6470 C.3       1 XWG         0.0415
     13 N3         -4.5040   13.4520   24.1660 N.4       1 XWG         0.2543
     14 C7         -5.1350   14.2220   23.0740 C.3       1 XWG         0.0041
     15 C14        -4.7350   15.6770   23.3140 C.3       1 XWG        -0.0022
     16 C15        -4.4180   15.7660   24.8030 C.3       1 XWG        -0.0072
     17 C8         -4.4420   14.3340   25.3410 C.3       1 XWG        -0.0296
     18 C5         -4.6220   13.6230   21.7710 C.3       1 XWG         0.1234
     19 C2         -3.4340   12.7590   22.1770 C.3       1 XWG         0.1308
     20 C6         -3.9270   11.3500   21.9650 C.2       1 XWG         0.2201
     21 O13        -3.2810   10.3010   22.1250 O.2       1 XWG        -0.3852
     22 C11        -5.5970   12.6270   21.2260 C.2       1 XWG         0.2184
     23 O18        -6.5930   12.8870   20.5530 O.2       1 XWG        -0.3853
     24 N12        -5.2690   11.3580   21.6520 N.am      1 XWG        -0.1843
     25 C19        -5.9380   10.1520   21.1060 C.3       1 XWG         0.0635
     26 C21        -5.5230    9.6770   19.7290 C.3       1 XWG         0.0124
     27 C23        -6.4250    8.4940   19.3970 C.3       1 XWG        -0.0278
     28 N29        -6.2420    7.9000   18.0570 N.4       1 XWG         0.2450
     29 C34        -6.3460    8.8810   16.9370 C.3       1 XWG        -0.0064
     30 C35        -7.5910    9.7700   16.9810 C.3       1 XWG         0.0841
     31 O36        -8.7440    8.9660   16.7620 O.3       1 XWG        -0.3898
     32 C31        -7.2340    6.8110   17.8900 C.3       1 XWG        -0.0298
     33 C33        -6.5820    5.5360   18.4020 C.3       1 XWG        -0.0076
     34 C32        -5.1140    5.7350   18.1010 C.3       1 XWG        -0.0076
     35 C30        -4.9220    7.2350   18.0090 C.3       1 XWG        -0.0298
     36 H1         -2.9180    7.3787   29.0257 H         1 XWG         0.0439
     37 H2         -3.5497    9.6551   27.8519 H         1 XWG         0.0451
     38 H3         -3.9459   11.0248   25.6131 H         1 XWG         0.0374
     39 H4         -2.5549   14.0368   23.6768 H         1 XWG         0.1033
     40 H5         -5.0224   12.6155   24.3841 H         1 XWG         0.2056
     41 H6         -6.2309   14.1334   23.1073 H         1 XWG         0.0882
     42 H7         -5.5639   16.3523   23.0554 H         1 XWG         0.0323
     43 H8         -3.8497   15.9371   22.7153 H         1 XWG         0.0323
     44 H9         -5.1749   16.3771   25.3164 H         1 XWG         0.0319
     45 H10        -3.4235   16.2114   24.9535 H         1 XWG         0.0319
     46 H11        -3.5306   14.1304   25.9223 H         1 XWG         0.0815
     47 H12        -5.3253   14.1816   25.9786 H         1 XWG         0.0815
     48 H13        -4.3666   14.4001   21.0356 H         1 XWG         0.0632
     49 H14        -2.5424   12.9536   21.5628 H         1 XWG         0.0651
     50 H15        -7.0168   10.3637   21.0687 H         1 XWG         0.0578
     51 H16        -5.7504    9.3264   21.8082 H         1 XWG         0.0578
     52 H17        -4.4689    9.3626   19.7358 H         1 XWG         0.0340
     53 H18        -5.6612   10.4807   18.9908 H         1 XWG         0.0340
     54 H19        -7.4685    8.8331   19.4758 H         1 XWG         0.0816
     55 H20        -6.2377    7.7075   20.1428 H         1 XWG         0.0816
     56 H21        -6.3580    8.3208   15.9904 H         1 XWG         0.0838
     57 H22        -5.4592    9.5311   16.9671 H         1 XWG         0.0838
     58 H23        -7.5232   10.5383   16.1967 H         1 XWG         0.0610
     59 H24        -7.6622   10.2560   17.9652 H         1 XWG         0.0610
     60 H25        -8.6795    8.5468   15.9119 H         1 XWG         0.2096
     61 H26        -7.4987    6.7002   16.8281 H         1 XWG         0.0815
     62 H27        -8.1403    7.0325   18.4727 H         1 XWG         0.0815
     63 H28        -6.9746    4.6553   17.8726 H         1 XWG         0.0319
     64 H29        -6.7477    5.4180   19.4830 H         1 XWG         0.0319
     65 H30        -4.8478    5.2538   17.1483 H         1 XWG         0.0319
     66 H31        -4.4953    5.3167   18.9086 H         1 XWG         0.0319
     67 H32        -4.3062    7.5791   18.8530 H         1 XWG         0.0815
     68 H33        -4.4193    7.4838   17.0628 H         1 XWG         0.0815
@<TRIPOS>BOND
     1    1    2 1  
     2    2    3 2  
     3    2    5 1  
     4    3    4 1  
     5    4    6 2  
     6    5    6 1  
     7    6    7 1  
     8    7    8 2  
     9    7    9 1  
    10    8   11 1  
    11    9   10 1  
    12   10   11 2  
    13   11   12 1  
    14   12   13 1  
    15   12   19 1  
    16   13   14 1  
    17   13   17 1  
    18   14   15 1  
    19   14   18 1  
    20   15   16 1  
    21   16   17 1  
    22   18   19 1  
    23   18   22 1  
    24   19   20 1  
    25   20   21 2  
    26   20   24 am 
    27   22   23 2  
    28   22   24 am 
    29   24   25 1  
    30   25   26 1  
    31   26   27 1  
    32   27   28 1  
    33   28   29 1  
    34   28   32 1  
    35   28   35 1  
    36   29   30 1  
    37   30   31 1  
    38   32   33 1  
    39   33   34 1  
    40   34   35 1  
    41    3   36 1  
    42    4   37 1  
    43    8   38 1  
    44   12   39 1  
    45   13   40 1  
    46   14   41 1  
    47   15   42 1  
    48   15   43 1  
    49   16   44 1  
    50   16   45 1  
    51   17   46 1  
    52   17   47 1  
    53   18   48 1  
    54   19   49 1  
    55   25   50 1  
    56   25   51 1  
    57   26   52 1  
    58   26   53 1  
    59   27   54 1  
    60   27   55 1  
    61   29   56 1  
    62   29   57 1  
    63   30   58 1  
    64   30   59 1  
    65   31   60 1  
    66   32   61 1  
    67   32   62 1  
    68   33   63 1  
    69   33   64 1  
    70   34   65 1  
    71   34   66 1  
    72   35   67 1  
    73   35   68 1  
@<TRIPOS>SUBSTRUCTURE
     1 XWG         1

