### 
### Created by X-TOOL on Mon Sep 10 21:13:05 2018
### 

@<TRIPOS>MOLECULE
2y5g_ligand
   60    64     1     0     0
SMALL
GAST_HUCK


@<TRIPOS>ATOM
      1 CL1        -0.4510    5.6420   27.6220 Cl        1 FJD        -0.0618
      2 C25        -1.2230    7.2390   27.3000 C.2       1 FJD         0.0885
      3 C24        -2.2330    7.8110   28.0290 C.2       1 FJD        -0.0670
      4 C22        -2.6050    9.0380   27.4390 C.2       1 FJD        -0.0717
      5 S1         -0.7000    8.1000   25.9230 S.3       1 FJD        -0.0313
      6 C20        -1.8540    9.3260   26.2850 C.2       1 FJD         0.0593
      7 C17        -2.0420   10.4240   25.4060 C.2       1 FJD         0.1428
      8 O16        -1.3070   10.5260   24.2520 O.3       1 FJD        -0.2198
      9 C10        -3.0100   11.3560   25.4360 C.2       1 FJD        -0.0037
     10 N9         -2.8130   12.1590   24.3020 N.2       1 FJD        -0.3065
     11 C4         -1.8160   11.6500   23.6460 C.2       1 FJD         0.2312
     12 C1         -1.2060   12.0260   22.3440 C.3       1 FJD         0.0921
     13 N3         -1.8090   13.2360   21.7630 N.4       1 FJD         0.2625
     14 C7         -1.6000   13.1700   20.3040 C.3       1 FJD         0.0050
     15 C14        -0.3550   13.9830   19.9730 C.3       1 FJD        -0.0022
     16 C15        -0.1830   14.9330   21.1510 C.3       1 FJD        -0.0072
     17 C8         -1.1790   14.4890   22.2220 C.3       1 FJD        -0.0287
     18 C5         -1.4780   11.7020   19.9530 C.3       1 FJD         0.1244
     19 C2         -1.4440   10.9530   21.2830 C.3       1 FJD         0.1397
     20 C6         -2.7820   10.2440   21.2700 C.2       1 FJD         0.2212
     21 O13        -3.3370    9.7070   22.2140 O.2       1 FJD        -0.3851
     22 C11        -2.7270   11.2620   19.2540 C.2       1 FJD         0.2185
     23 O18        -3.2000   11.7490   18.2270 O.2       1 FJD        -0.3853
     24 N12        -3.3260   10.2090   19.9540 N.am      1 FJD        -0.1843
     25 C19        -4.7540    9.9570   19.7680 C.3       1 FJD         0.0635
     26 C21        -4.7070    8.6830   18.9160 C.3       1 FJD         0.0123
     27 C23        -6.0590    7.9940   18.8240 C.3       1 FJD        -0.0286
     28 N29        -6.1600    6.9530   17.7870 N.4       1 FJD         0.2369
     29 C32        -5.8360    7.5000   16.4520 C.3       1 FJD        -0.0418
     30 C31        -7.5650    6.5400   17.7640 C.3       1 FJD        -0.0418
     31 C30        -5.3390    5.7690   18.1070 C.3       1 FJD        -0.0418
     32 H1         -2.6798    7.3842   28.9258 H         1 FJD         0.0420
     33 H2         -3.3850    9.6881   27.8326 H         1 FJD         0.0386
     34 H3         -3.7897   11.4658   26.1883 H         1 FJD         0.0518
     35 H4         -0.1272   12.1788   22.4952 H         1 FJD         0.1156
     36 H5         -2.7927   13.2559   21.9819 H         1 FJD         0.2065
     37 H6         -2.4613   13.6004   19.7721 H         1 FJD         0.0882
     38 H7         -0.4976   14.5464   19.0391 H         1 FJD         0.0323
     39 H8          0.5216   13.3258   19.8746 H         1 FJD         0.0323
     40 H9         -0.3968   15.9660   20.8394 H         1 FJD         0.0319
     41 H10         0.8441   14.8725   21.5401 H         1 FJD         0.0319
     42 H11        -0.6534   14.3168   23.1728 H         1 FJD         0.0815
     43 H12        -1.9469   15.2639   22.3626 H         1 FJD         0.0815
     44 H13        -0.5839   11.5048   19.3434 H         1 FJD         0.0632
     45 H14        -0.6310   10.2135   21.3297 H         1 FJD         0.0663
     46 H15        -5.2458   10.7838   19.2346 H         1 FJD         0.0578
     47 H16        -5.2639    9.7848   20.7273 H         1 FJD         0.0578
     48 H17        -3.9852    7.9848   19.3649 H         1 FJD         0.0340
     49 H18        -4.3771    8.9493   17.9010 H         1 FJD         0.0340
     50 H19        -6.8187    8.7608   18.6122 H         1 FJD         0.0816
     51 H20        -6.2706    7.5272   19.7973 H         1 FJD         0.0816
     52 H21        -5.9193    6.7025   15.6989 H         1 FJD         0.0778
     53 H22        -4.8090    7.8941   16.4566 H         1 FJD         0.0778
     54 H23        -6.5386    8.3102   16.2073 H         1 FJD         0.0778
     55 H24        -7.8417    6.1265   18.7450 H         1 FJD         0.0778
     56 H25        -7.7091    5.7729   16.9889 H         1 FJD         0.0778
     57 H26        -8.1995    7.4104   17.5409 H         1 FJD         0.0778
     58 H27        -4.2770    6.0546   18.1301 H         1 FJD         0.0778
     59 H28        -5.4943    4.9967   17.3393 H         1 FJD         0.0778
     60 H29        -5.6337    5.3733   19.0901 H         1 FJD         0.0778
@<TRIPOS>BOND
     1    1    2 1  
     2    2    3 2  
     3    2    5 1  
     4    3    4 1  
     5    4    6 2  
     6    5    6 1  
     7    6    7 1  
     8    7    8 1  
     9    7    9 2  
    10    8   11 1  
    11    9   10 1  
    12   10   11 2  
    13   11   12 1  
    14   12   13 1  
    15   12   19 1  
    16   13   14 1  
    17   13   17 1  
    18   14   15 1  
    19   14   18 1  
    20   15   16 1  
    21   16   17 1  
    22   18   19 1  
    23   18   22 1  
    24   19   20 1  
    25   20   21 2  
    26   20   24 am 
    27   22   23 2  
    28   22   24 am 
    29   24   25 1  
    30   25   26 1  
    31   26   27 1  
    32   27   28 1  
    33   28   29 1  
    34   28   30 1  
    35   28   31 1  
    36    3   32 1  
    37    4   33 1  
    38    9   34 1  
    39   12   35 1  
    40   13   36 1  
    41   14   37 1  
    42   15   38 1  
    43   15   39 1  
    44   16   40 1  
    45   16   41 1  
    46   17   42 1  
    47   17   43 1  
    48   18   44 1  
    49   19   45 1  
    50   25   46 1  
    51   25   47 1  
    52   26   48 1  
    53   26   49 1  
    54   27   50 1  
    55   27   51 1  
    56   29   52 1  
    57   29   53 1  
    58   29   54 1  
    59   30   55 1  
    60   30   56 1  
    61   30   57 1  
    62   31   58 1  
    63   31   59 1  
    64   31   60 1  
@<TRIPOS>SUBSTRUCTURE
     1 FJD         1

