### 
### Created by X-TOOL on Mon Sep 10 21:13:05 2018
### 

@<TRIPOS>MOLECULE
2y5h_ligand
   60    64     1     0     0
SMALL
GAST_HUCK


@<TRIPOS>ATOM
      1 CL1        -0.6030    6.0040   27.7140 Cl        1 Y5H        -0.0522
      2 C25        -1.4130    7.5200   27.3830 C.2       1 Y5H         0.0990
      3 C24        -2.4440    8.0890   28.0850 C.2       1 Y5H        -0.0555
      4 C22        -2.8590    9.2980   27.4800 C.2       1 Y5H        -0.0588
      5 S1         -0.8570    8.4830   26.0440 S.3       1 Y5H        -0.0195
      6 C20        -2.0920    9.6550   26.3770 C.2       1 Y5H         0.0881
      7 C17        -2.3260   10.7580   25.4570 C.2       1 Y5H         0.1971
      8 N16        -1.7370   10.9830   24.3000 N.2       1 Y5H        -0.3009
      9 O10        -3.4170   11.5320   25.6860 O.3       1 Y5H        -0.2447
     10 C9         -3.4240   12.3800   24.5900 C.2       1 Y5H         0.0987
     11 C4         -2.4210   12.0540   23.7710 C.2       1 Y5H         0.0610
     12 C1         -2.0780   12.6960   22.4510 C.3       1 Y5H         0.0342
     13 N3         -3.0750   13.7060   22.0080 N.4       1 Y5H         0.2526
     14 C7         -2.7850   13.8590   20.5720 C.3       1 Y5H         0.0038
     15 C14        -1.5690   14.8000   20.5060 C.3       1 Y5H        -0.0022
     16 C15        -1.7360   15.6830   21.7540 C.3       1 Y5H        -0.0072
     17 C8         -2.8550   15.0490   22.6020 C.3       1 Y5H        -0.0298
     18 C5         -2.5240   12.4580   20.0290 C.3       1 Y5H         0.1231
     19 C2         -2.1300   11.6450   21.2910 C.3       1 Y5H         0.1287
     20 C6         -3.2340   10.6000   21.3730 C.2       1 Y5H         0.2198
     21 O13        -3.3550    9.6930   22.1790 O.2       1 Y5H        -0.3852
     22 C11        -3.7950   11.8350   19.5110 C.2       1 Y5H         0.2184
     23 O18        -4.4580   12.1260   18.5150 O.2       1 Y5H        -0.3853
     24 N12        -4.1980   10.7940   20.3700 N.am      1 Y5H        -0.1843
     25 C19        -5.3870    9.9430   20.2030 C.3       1 Y5H         0.0635
     26 C21        -5.1230    8.8510   19.1570 C.3       1 Y5H         0.0123
     27 C23        -6.3750    7.9540   19.2090 C.3       1 Y5H        -0.0286
     28 N29        -6.3660    6.8300   18.1920 N.4       1 Y5H         0.2369
     29 C32        -6.3170    7.3980   16.8020 C.3       1 Y5H        -0.0418
     30 C31        -7.6960    6.1270   18.3350 C.3       1 Y5H        -0.0418
     31 C30        -5.2350    5.8770   18.3810 C.3       1 Y5H        -0.0418
     32 H1         -2.8842    7.6668   28.9872 H         1 Y5H         0.0446
     33 H2         -3.6972    9.8911   27.8426 H         1 Y5H         0.0483
     34 H3         -4.1364   13.1865   24.4227 H         1 Y5H         0.0892
     35 H4         -1.0790   13.1500   22.5268 H         1 Y5H         0.1004
     36 H5         -4.0155   13.3890   22.1841 H         1 Y5H         0.2053
     37 H6         -3.6341   14.3087   20.0365 H         1 Y5H         0.0882
     38 H7         -1.5896   15.4066   19.5886 H         1 Y5H         0.0323
     39 H8         -0.6282   14.2316   20.5487 H         1 Y5H         0.0323
     40 H9         -2.0169   16.7050   21.4598 H         1 Y5H         0.0319
     41 H10        -0.7971   15.7111   22.3263 H         1 Y5H         0.0319
     42 H11        -2.5406   14.9602   23.6523 H         1 Y5H         0.0815
     43 H12        -3.7729   15.6524   22.5437 H         1 Y5H         0.0815
     44 H13        -1.7376   12.4586   19.2599 H         1 Y5H         0.0632
     45 H14        -1.1504   11.1551   21.1892 H         1 Y5H         0.0648
     46 H15        -6.2331   10.5636   19.8729 H         1 Y5H         0.0578
     47 H16        -5.6323    9.4706   21.1656 H         1 Y5H         0.0578
     48 H17        -4.2218    8.2755   19.4150 H         1 Y5H         0.0340
     49 H18        -5.0024    9.2922   18.1566 H         1 Y5H         0.0340
     50 H19        -7.2591    8.5817   19.0240 H         1 Y5H         0.0816
     51 H20        -6.4431    7.5117   20.2138 H         1 Y5H         0.0816
     52 H21        -6.3107    6.5767   16.0703 H         1 Y5H         0.0778
     53 H22        -5.4045    8.0009   16.6842 H         1 Y5H         0.0778
     54 H23        -7.1998    8.0322   16.6337 H         1 Y5H         0.0778
     55 H24        -7.7752    5.6938   19.3430 H         1 Y5H         0.0778
     56 H25        -7.7698    5.3259   17.5849 H         1 Y5H         0.0778
     57 H26        -8.5111    6.8495   18.1813 H         1 Y5H         0.0778
     58 H27        -4.2811    6.4138   18.2719 H         1 Y5H         0.0778
     59 H28        -5.2962    5.0807   17.6246 H         1 Y5H         0.0778
     60 H29        -5.2932    5.4335   19.3859 H         1 Y5H         0.0778
@<TRIPOS>BOND
     1    1    2 1  
     2    2    3 2  
     3    2    5 1  
     4    3    4 1  
     5    4    6 2  
     6    5    6 1  
     7    6    7 1  
     8    7    8 2  
     9    7    9 1  
    10    8   11 1  
    11    9   10 1  
    12   10   11 2  
    13   11   12 1  
    14   12   13 1  
    15   12   19 1  
    16   13   14 1  
    17   13   17 1  
    18   14   15 1  
    19   14   18 1  
    20   15   16 1  
    21   16   17 1  
    22   18   19 1  
    23   18   22 1  
    24   19   20 1  
    25   20   21 2  
    26   20   24 am 
    27   22   23 2  
    28   22   24 am 
    29   24   25 1  
    30   25   26 1  
    31   26   27 1  
    32   27   28 1  
    33   28   29 1  
    34   28   30 1  
    35   28   31 1  
    36    3   32 1  
    37    4   33 1  
    38   10   34 1  
    39   12   35 1  
    40   13   36 1  
    41   14   37 1  
    42   15   38 1  
    43   15   39 1  
    44   16   40 1  
    45   16   41 1  
    46   17   42 1  
    47   17   43 1  
    48   18   44 1  
    49   19   45 1  
    50   25   46 1  
    51   25   47 1  
    52   26   48 1  
    53   26   49 1  
    54   27   50 1  
    55   27   51 1  
    56   29   52 1  
    57   29   53 1  
    58   29   54 1  
    59   30   55 1  
    60   30   56 1  
    61   30   57 1  
    62   31   58 1  
    63   31   59 1  
    64   31   60 1  
@<TRIPOS>SUBSTRUCTURE
     1 Y5H         1

