### 
### Created by X-TOOL on Mon Sep 10 21:13:08 2018
### 

@<TRIPOS>MOLECULE
2y5k_ligand
   53    54     1     0     0
SMALL
GAST_HUCK


@<TRIPOS>ATOM
      1 S1         16.6550   58.9840   18.5350 S.o2      1 YCU         0.0940
      2 C2         18.3840   58.7730   18.7280 C.2       1 YCU         0.1517
      3 N3         16.0970   59.9680   19.7540 N.am      1 YCU        -0.1348
      4 S4         19.5360   59.9090   18.0840 S.3       1 YCU        -0.0262
      5 C5         15.8220   59.5850   21.0300 C.2       1 YCU         0.3117
      6 C6         15.0190   60.5190   23.1800 C.ar      1 YCU         0.1093
      7 C7         14.2000   61.7640   24.9610 C.ar      1 YCU         0.1092
      8 C8         19.0280   57.7710   19.3340 C.2       1 YCU        -0.0602
      9 N9         14.6430   61.6700   23.7180 N.ar      1 YCU        -0.2871
     10 C10        20.8830   58.9560   18.6800 C.2       1 YCU         0.0115
     11 N11        15.4180   60.5790   21.8520 N.am      1 YCU        -0.2087
     12 N12        13.8110   62.9990   25.4800 N.am      1 YCU        -0.2100
     13 C13        20.4100   57.8750   19.3050 C.2       1 YCU        -0.0656
     14 C14        13.3370   63.9940   24.6880 C.2       1 YCU         0.2908
     15 C15        14.9370   59.3380   23.9110 C.ar      1 YCU        -0.0043
     16 C16        14.1100   60.6330   25.7630 C.ar      1 YCU        -0.0043
     17 O17        16.5320   59.7420   17.3380 O.2       1 YCU        -0.1469
     18 O18        16.0790   57.7050   18.7020 O.2       1 YCU        -0.1469
     19 C19        14.4760   59.3950   25.2350 C.ar      1 YCU         0.0818
     20 O20        15.9600   58.4300   21.4120 O.2       1 YCU        -0.3875
     21 O21        12.9920   65.0360   25.2040 O.2       1 YCU        -0.3887
     22 N22        13.2610   63.8500   23.3430 N.am      1 YCU        -0.2702
     23 C23        22.3510   59.3070   18.5230 C.3       1 YCU         0.0094
     24 O24        14.3920   58.2790   26.0190 O.3       1 YCU        -0.3205
     25 C25        21.3280   56.8500   19.9330 C.3       1 YCU        -0.0502
     26 O26        24.2230   59.5130   16.9840 O.3       1 YCU        -0.3809
     27 C27        22.8150   59.2090   17.0600 C.3       1 YCU         0.0564
     28 C28        12.7790   64.9050   22.4410 C.3       1 YCU         0.0206
     29 C29        13.5380   58.3570   27.1660 C.3       1 YCU         0.0612
     30 C30        24.7280   59.8130   15.6740 C.3       1 YCU         0.0367
     31 H1         15.9499   60.9310   19.5279 H         1 YCU         0.2147
     32 H2         18.5096   56.9408   19.8115 H         1 YCU         0.0380
     33 H3         15.4046   61.4916   21.4433 H         1 YCU         0.2303
     34 H4         13.8836   63.1559   26.4650 H         1 YCU         0.2302
     35 H5         15.2238   58.3920   23.4662 H         1 YCU         0.0380
     36 H6         13.7598   60.7118   26.7859 H         1 YCU         0.0380
     37 H7         13.5481   62.9796   22.9430 H         1 YCU         0.1850
     38 H8         22.9489   58.6131   19.1321 H         1 YCU         0.0443
     39 H9         22.5097   60.3362   18.8774 H         1 YCU         0.0443
     40 H10        20.7266   56.0498   20.3891 H         1 YCU         0.0312
     41 H11        21.9424   57.3333   20.7068 H         1 YCU         0.0312
     42 H12        21.9825   56.4213   19.1598 H         1 YCU         0.0312
     43 H13        22.2507   59.9270   16.4468 H         1 YCU         0.0582
     44 H14        22.6387   58.1896   16.6863 H         1 YCU         0.0582
     45 H15        12.8139   64.5438   21.4026 H         1 YCU         0.0482
     46 H16        13.4189   65.7941   22.5416 H         1 YCU         0.0482
     47 H17        11.7434   65.1669   22.7034 H         1 YCU         0.0482
     48 H18        13.5610   57.3990   27.7061 H         1 YCU         0.0582
     49 H19        12.5086   58.5710   26.8428 H         1 YCU         0.0582
     50 H20        13.8885   59.1608   27.8301 H         1 YCU         0.0582
     51 H21        25.8051   60.0276   15.7365 H         1 YCU         0.0524
     52 H22        24.2021   60.6908   15.2704 H         1 YCU         0.0524
     53 H23        24.5639   58.9505   15.0113 H         1 YCU         0.0524
@<TRIPOS>BOND
     1    1    2 1  
     2    3    1 am 
     3    1   17 2  
     4    1   18 2  
     5    2    4 1  
     6    2    8 2  
     7    5    3 am 
     8    4   10 1  
     9   11    5 am 
    10    5   20 2  
    11    6    9 ar 
    12    6   11 1  
    13    6   15 ar 
    14    9    7 ar 
    15    7   12 1  
    16    7   16 ar 
    17    8   13 1  
    18   10   13 2  
    19   10   23 1  
    20   12   14 am 
    21   13   25 1  
    22   14   21 2  
    23   14   22 am 
    24   15   19 ar 
    25   16   19 ar 
    26   19   24 1  
    27   22   28 1  
    28   23   27 1  
    29   24   29 1  
    30   27   26 1  
    31   26   30 1  
    32    3   31 1  
    33    8   32 1  
    34   11   33 1  
    35   12   34 1  
    36   15   35 1  
    37   16   36 1  
    38   22   37 1  
    39   23   38 1  
    40   23   39 1  
    41   25   40 1  
    42   25   41 1  
    43   25   42 1  
    44   27   43 1  
    45   27   44 1  
    46   28   45 1  
    47   28   46 1  
    48   28   47 1  
    49   29   48 1  
    50   29   49 1  
    51   29   50 1  
    52   30   51 1  
    53   30   52 1  
    54   30   53 1  
@<TRIPOS>SUBSTRUCTURE
     1 YCU         1

