### 
### Created by X-TOOL on Mon Sep 10 21:13:07 2018
### 

@<TRIPOS>MOLECULE
2y5l_ligand
   27    28     1     0     0
SMALL
GAST_HUCK


@<TRIPOS>ATOM
      1 CL         33.7980   12.4810  -19.3920 Cl        1 RO8        -0.0706
      2 S1         39.4370    7.9450  -21.0730 S.3       1 RO8         0.0162
      3 C2         40.0940    8.6230  -22.5310 C.2       1 RO8         0.2090
      4 N3         40.9220    7.8190  -23.2570 N.2       1 RO8        -0.3160
      5 C4         40.9880    6.6010  -22.6640 C.2       1 RO8        -0.0340
      6 C5         40.2640    6.5190  -21.5150 C.2       1 RO8         0.0631
      7 BR6        40.1210    4.9580  -20.4050 Br        1 RO8        -0.0568
      8 N7         39.8710    9.9060  -22.8230 N.am      1 RO8        -0.1760
      9 S8         38.6720   13.2420  -21.7080 S.o2      1 RO8         0.0917
     10 N9         39.2370   12.0260  -22.4440 N.am      1 RO8        -0.1325
     11 C10        39.3100   10.7760  -21.9930 C.2       1 RO8         0.3212
     12 O11        38.8730   10.4310  -20.9060 O.2       1 RO8        -0.3846
     13 O12        39.1030   13.2680  -20.3350 O.2       1 RO8        -0.1457
     14 O13        39.2000   14.4150  -22.3500 O.2       1 RO8        -0.1457
     15 C14        36.9650   13.2740  -21.7790 C.ar      1 RO8         0.1135
     16 C15        36.2050   12.9090  -20.6810 C.ar      1 RO8        -0.0208
     17 C16        36.3450   13.7120  -22.9290 C.ar      1 RO8        -0.0346
     18 C17        34.8100   12.9570  -20.7820 C.ar      1 RO8         0.0423
     19 C18        34.9520   13.7670  -23.0230 C.ar      1 RO8        -0.0594
     20 C19        34.1770   13.3810  -21.9440 C.ar      1 RO8        -0.0477
     21 H1         41.5642    5.7699  -23.0680 H         1 RO8         0.0571
     22 H2         40.1449   10.2334  -23.7273 H         1 RO8         0.2426
     23 H3         39.5904   12.1880  -23.3653 H         1 RO8         0.2150
     24 H4         36.6814   12.5920  -19.7604 H         1 RO8         0.0643
     25 H5         36.9485   14.0192  -23.7755 H         1 RO8         0.0639
     26 H6         34.4809   14.1104  -23.9369 H         1 RO8         0.0618
     27 H7         33.0950   13.4088  -22.0040 H         1 RO8         0.0623
@<TRIPOS>BOND
     1   18    1 1  
     2    3    2 1  
     3    2    6 1  
     4    3    4 2  
     5    8    3 1  
     6    4    5 1  
     7    5    6 2  
     8    6    7 1  
     9   11    8 am 
    10    9   10 am 
    11    9   13 2  
    12    9   14 2  
    13   15    9 1  
    14   10   11 am 
    15   11   12 2  
    16   16   15 ar 
    17   15   17 ar 
    18   16   18 ar 
    19   17   19 ar 
    20   18   20 ar 
    21   19   20 ar 
    22    5   21 1  
    23    8   22 1  
    24   10   23 1  
    25   16   24 1  
    26   17   25 1  
    27   19   26 1  
    28   20   27 1  
@<TRIPOS>SUBSTRUCTURE
     1 RO8         1

