### 
### Created by X-TOOL on Mon Sep 10 21:13:07 2018
### 

@<TRIPOS>MOLECULE
2y67_ligand
   53    55     1     0     0
SMALL
GAST_HUCK


@<TRIPOS>ATOM
      1 OE1        37.1420    0.9450   21.4090 O.co2     1 N21        -0.5690
      2 CD         37.9550    1.1000   20.4760 C.2       1 N21         0.0350
      3 OE2        38.0470    0.2840   19.5260 O.co2     1 N21        -0.5690
      4 CG         38.8340    2.3340   20.5600 C.3       1 N21         0.0034
      5 CB         39.7190    2.5610   19.3500 C.3       1 N21        -0.0098
      6 C          40.1490    4.9190   20.0860 C.2       1 N21         0.0565
      7 OXT        40.0290    5.2120   21.3060 O.co2     1 N21        -0.5670
      8 O          39.7600    5.6830   19.1710 O.co2     1 N21        -0.5670
      9 N          41.5760    3.7210   18.4560 N.am      1 N21        -0.2320
     10 OBC        43.3870    5.1810   17.8080 O.2       1 N21        -0.1511
     11 CAT        44.8720    2.9270   16.8670 C.ar      1 N21        -0.0419
     12 CAQ        45.4330    1.8360   16.1920 C.ar      1 N21        -0.0559
     13 CAS        43.7810    2.7350   17.7290 C.ar      1 N21         0.1012
     14 CAR        43.2550    1.4460   17.9010 C.ar      1 N21        -0.0419
     15 CAP        43.8130    0.3600   17.2260 C.ar      1 N21        -0.0559
     16 CAO        44.9070    0.5460   16.3710 C.ar      1 N21        -0.0126
     17 CAN        45.4890   -0.6640   15.6490 C.3       1 N21         0.1050
     18 CAA        47.4500   -1.0090   17.0990 C.ar      1 N21         0.0958
     19 CAB        46.8980   -0.3590   18.2050 C.ar      1 N21        -0.0312
     20 CAG        47.4430   -0.5220   19.4760 C.ar      1 N21        -0.0629
     21 CAC        48.5670   -1.8280   17.2730 C.ar      1 N21        -0.0312
     22 CAE        49.1170   -1.9890   18.5470 C.ar      1 N21        -0.0629
     23 CAF        48.5650   -1.3270   19.6480 C.ar      1 N21        -0.0362
     24 CAH        49.0990   -1.4580   21.0580 C.2       1 N21        -0.0361
     25 SBG        51.8440   -1.5040   20.0840 S.3       1 N21         0.0403
     26 CAL        52.9710   -1.7360   21.3970 C.2       1 N21         0.2815
     27 NAX        52.5130   -1.8600   22.6490 N.am      1 N21        -0.1883
     28 CA         40.7880    3.6030   19.6800 C.3       1 N21         0.0912
     29 CAK        51.1750   -1.7710   22.5640 C.2       1 N21         0.2425
     30 CAI        50.5960   -1.5850   21.3270 C.2       1 N21         0.1137
     31 OBE        50.3140   -1.8630   23.7650 O.2       1 N21        -0.3761
     32 SAU        43.0880    3.9660   18.5040 S.o2      1 N21         0.0669
     33 OBD        43.5250    4.0320   19.8680 O.2       1 N21        -0.1511
     34 OBH        54.4190   -1.8160   21.1720 O.2       1 N21        -0.3707
     35 OAY        46.9000   -0.8320   15.8470 O.3       1 N21        -0.3042
     36 H1         39.4805    2.2354   21.4444 H         1 N21         0.0432
     37 H2         38.1823    3.2123   20.6782 H         1 N21         0.0432
     38 H3         39.1054    2.9202   18.5107 H         1 N21         0.0319
     39 H4         40.2052    1.6148   19.0702 H         1 N21         0.0319
     40 H5         41.1202    3.6404   17.5696 H         1 N21         0.1697
     41 H6         45.2806    3.9208   16.7237 H         1 N21         0.0619
     42 H7         46.2767    1.9876   15.5285 H         1 N21         0.0558
     43 H8         42.4099    1.2928   18.5624 H         1 N21         0.0619
     44 H9         43.3982   -0.6320   17.3637 H         1 N21         0.0558
     45 H10        45.3012   -0.5485   14.5713 H         1 N21         0.0780
     46 H11        44.9774   -1.5661   16.0157 H         1 N21         0.0780
     47 H12        46.0334    0.2812   18.0722 H         1 N21         0.0549
     48 H13        46.9950   -0.0238   20.3281 H         1 N21         0.0594
     49 H14        49.0060   -2.3372   16.4226 H         1 N21         0.0549
     50 H15        49.9787   -2.6324   18.6831 H         1 N21         0.0594
     51 H16        48.4028   -1.4617   21.8954 H         1 N21         0.0578
     52 H17        53.0560   -1.9920   23.4783 H         1 N21         0.2254
     53 H18        41.4247    3.2494   20.5043 H         1 N21         0.0681
@<TRIPOS>BOND
     1    2    1 ar 
     2    2    3 ar 
     3    4    2 1  
     4    5    4 1  
     5   28    5 1  
     6    6    7 ar 
     7    6    8 ar 
     8   28    6 1  
     9    9   28 1  
    10   32    9 am 
    11   32   10 2  
    12   12   11 ar 
    13   11   13 ar 
    14   16   12 ar 
    15   14   13 ar 
    16   13   32 1  
    17   15   14 ar 
    18   16   15 ar 
    19   17   16 1  
    20   35   17 1  
    21   19   18 ar 
    22   21   18 ar 
    23   18   35 1  
    24   20   19 ar 
    25   23   20 ar 
    26   22   21 ar 
    27   23   22 ar 
    28   24   23 1  
    29   30   24 2  
    30   25   26 1  
    31   25   30 1  
    32   26   27 am 
    33   26   34 2  
    34   27   29 am 
    35   29   30 1  
    36   29   31 2  
    37   32   33 2  
    38    4   36 1  
    39    4   37 1  
    40    5   38 1  
    41    5   39 1  
    42    9   40 1  
    43   11   41 1  
    44   12   42 1  
    45   14   43 1  
    46   15   44 1  
    47   17   45 1  
    48   17   46 1  
    49   19   47 1  
    50   20   48 1  
    51   21   49 1  
    52   22   50 1  
    53   24   51 1  
    54   27   52 1  
    55   28   53 1  
@<TRIPOS>SUBSTRUCTURE
     1 N21         1

