### 
### Created by X-TOOL on Mon Sep 10 21:13:06 2018
### 

@<TRIPOS>MOLECULE
2y68_ligand
   49    51     1     0     0
SMALL
GAST_HUCK


@<TRIPOS>ATOM
      1 OE1        27.4390    0.4830   47.2550 O.co2     1 T04        -0.5551
      2 CD         27.5810    1.3050   46.3040 C.2       1 T04         0.0736
      3 OE2        28.3870    1.2190   45.3770 O.co2     1 T04        -0.5551
      4 CG         26.6450    2.4370   46.1720 C.2       1 T04         0.0016
      5 CB         25.9700    2.7970   47.2260 C.2       1 T04         0.0074
      6 C          25.3620    5.2240   46.6410 C.2       1 T04         0.1067
      7 O          25.5620    5.5180   45.4200 O.co2     1 T04        -0.5485
      8 OXT        25.4980    6.0320   47.5570 O.co2     1 T04        -0.5485
      9 N          23.8710    3.6220   47.6500 N.2       1 T04        -0.2257
     10 CAU        22.8030    4.4020   47.7330 C.2       1 T04         0.2079
     11 OBC        22.5100    5.2200   46.8780 O.2       1 T04        -0.3622
     12 CAT        21.9340    4.1000   48.9240 C.ar      1 T04         0.0711
     13 CAQ        21.6210    2.7490   49.1150 C.ar      1 T04        -0.0409
     14 CAS        21.4720    5.0620   49.8350 C.ar      1 T04         0.1453
     15 CAR        20.6950    4.6680   50.9160 C.ar      1 T04        -0.0286
     16 CAP        20.3720    3.3310   51.1060 C.ar      1 T04        -0.0555
     17 CAO        20.8290    2.3750   50.2100 C.ar      1 T04        -0.0198
     18 CAN        20.5060    0.9640   50.4760 C.3       1 T04         0.0574
     19 NAY        19.1690    0.5770   50.5740 N.pl3     1 T04        -0.3106
     20 CAA        18.5450    0.1670   49.4100 C.ar      1 T04         0.0422
     21 CAC        19.1190    0.4500   48.1690 C.ar      1 T04        -0.0420
     22 CAE        18.4670    0.0400   47.0080 C.ar      1 T04        -0.0653
     23 CAB        17.3350   -0.5030   49.5070 C.ar      1 T04        -0.0420
     24 CAG        16.6860   -0.9210   48.3600 C.ar      1 T04        -0.0653
     25 CAF        17.2660   -0.6720   47.1160 C.ar      1 T04        -0.0375
     26 CAH        16.6120   -0.9870   45.8400 C.2       1 T04        -0.0365
     27 CAI        15.1550   -1.1180   45.6180 C.2       1 T04         0.1161
     28 SBG        13.9460   -1.0220   46.8700 S.3       1 T04         0.0219
     29 CAL        12.7710   -1.2870   45.6280 C.2       1 T04         0.1594
     30 SBH        11.0800   -1.3960   46.0230 S.2       1 T04        -0.2524
     31 NAX        13.1920   -1.4390   44.3610 N.am      1 T04        -0.2005
     32 CAK        14.5460   -1.3430   44.3860 C.2       1 T04         0.2494
     33 FAS        21.7460    6.3860   49.7190 F         1 T04        -0.1830
     34 OBE        15.2150   -1.4260   43.2820 O.2       1 T04        -0.3727
     35 CA         24.9920    3.8940   47.1200 C.2       1 T04         0.1088
     36 H1         26.5220    2.9559   45.2225 H         1 T04         0.0906
     37 H2         26.1271    2.2915   48.1777 H         1 T04         0.0776
     38 H3         21.9873    1.9992   48.4231 H         1 T04         0.0598
     39 H4         20.3369    5.4116   51.6188 H         1 T04         0.0599
     40 H5         19.7638    3.0345   51.9529 H         1 T04         0.0586
     41 H6         20.9877    0.6984   51.4286 H         1 T04         0.0670
     42 H7         20.9523    0.3735   49.6623 H         1 T04         0.0670
     43 H8         18.6686    0.5959   51.4741 H         1 T04         0.1796
     44 H9         20.0612    0.9827   48.1095 H         1 T04         0.0525
     45 H10        18.8839    0.2691   46.0340 H         1 T04         0.0591
     46 H11        16.8988   -0.6986   50.4799 H         1 T04         0.0525
     47 H12        15.7353   -1.4374   48.4268 H         1 T04         0.0591
     48 H13        17.2590   -1.1382   44.9771 H         1 T04         0.0581
     49 H14        12.6191   -1.5930   43.5559 H         1 T04         0.2376
@<TRIPOS>BOND
     1    2    1 ar 
     2    2    3 ar 
     3    4    2 1  
     4    5    4 2  
     5   35    5 1  
     6    6    7 ar 
     7    6    8 ar 
     8   35    6 1  
     9    9   10 1  
    10    9   35 2  
    11   10   11 2  
    12   10   12 1  
    13   12   13 ar 
    14   12   14 ar 
    15   13   17 ar 
    16   14   15 ar 
    17   14   33 1  
    18   15   16 ar 
    19   16   17 ar 
    20   17   18 1  
    21   18   19 1  
    22   19   20 1  
    23   20   21 ar 
    24   20   23 ar 
    25   21   22 ar 
    26   22   25 ar 
    27   23   24 ar 
    28   24   25 ar 
    29   25   26 1  
    30   26   27 2  
    31   27   28 1  
    32   27   32 1  
    33   28   29 1  
    34   29   30 2  
    35   29   31 am 
    36   31   32 am 
    37   32   34 2  
    38    4   36 1  
    39    5   37 1  
    40   13   38 1  
    41   15   39 1  
    42   16   40 1  
    43   18   41 1  
    44   18   42 1  
    45   19   43 1  
    46   21   44 1  
    47   22   45 1  
    48   23   46 1  
    49   24   47 1  
    50   26   48 1  
    51   31   49 1  
@<TRIPOS>SUBSTRUCTURE
     1 T04         1

