### 
### Created by X-TOOL on Mon Sep 10 21:13:07 2018
### 

@<TRIPOS>MOLECULE
2y6c_ligand
   42    44     1     0     0
SMALL
GAST_HUCK


@<TRIPOS>ATOM
      1 N          -7.4670  -16.5450   -7.9980 N.am      1 TQI        -0.2297
      2 CA         -7.6760  -17.5620   -9.0380 C.3       1 TQI         0.0940
      3 C          -8.4250  -18.6510   -8.3240 C.2       1 TQI         0.0576
      4 O          -8.3470  -18.9350   -7.1370 O.co2     1 TQI        -0.5669
      5 CB         -6.3060  -18.0680   -9.4120 C.3       1 TQI        -0.0048
      6 CG         -6.1650  -19.4730   -9.0250 C.2       1 TQI        -0.0428
      7 CD1        -5.9190  -19.9620   -7.7590 C.2       1 TQI         0.0166
      8 CD2        -6.2660  -20.5800   -9.9060 C.ar      1 TQI        -0.0214
      9 NE1        -5.8690  -21.3190   -7.8610 N.pl3     1 TQI        -0.2891
     10 CE2        -6.0750  -21.7220   -9.1530 C.ar      1 TQI         0.0603
     11 CE3        -6.5020  -20.6740  -11.2640 C.ar      1 TQI        -0.0747
     12 CZ2        -6.1010  -22.9950   -9.6680 C.ar      1 TQI        -0.0443
     13 CZ3        -6.5320  -21.9420  -11.7910 C.ar      1 TQI        -0.0792
     14 CH2        -6.3390  -23.0620  -11.0210 C.ar      1 TQI        -0.0768
     15 OXT        -9.2470  -19.2920   -9.1710 O.co2     1 TQI        -0.5669
     16 S1         -8.5570  -15.2350   -8.0160 S.o2      1 TQI         0.0765
     17 C2        -11.4020  -16.3180   -5.4110 C.ar      1 TQI         0.0631
     18 C3        -11.5360  -16.2510   -3.9310 C.3       1 TQI         0.3761
     19 C7        -10.0640  -15.8720   -7.3100 C.ar      1 TQI         0.1370
     20 C8        -10.2360  -15.8320   -5.9510 C.ar      1 TQI        -0.0047
     21 O14        -8.9010  -14.8840   -9.3830 O.2       1 TQI        -0.1496
     22 O15        -8.0470  -14.2100   -7.1340 O.2       1 TQI        -0.1496
     23 C16       -12.3870  -16.8310   -6.2340 C.ar      1 TQI         0.0739
     24 C19       -11.0340  -16.3800   -8.1400 C.ar      1 TQI        -0.0069
     25 F20       -10.4960  -15.5990   -3.3520 F         1 TQI        -0.2214
     26 F21       -11.5330  -17.4750   -3.3460 F         1 TQI        -0.2214
     27 F22       -12.6620  -15.5950   -3.5330 F         1 TQI        -0.2214
     28 C23       -12.2040  -16.8600   -7.5980 C.ar      1 TQI        -0.0161
     29 CL        -13.8760  -17.4530   -5.5980 Cl        1 TQI        -0.0419
     30 H          -6.7178  -16.6184   -7.3097 H         1 TQI         0.1699
     31 H          -8.2010  -17.2117   -9.9267 H         1 TQI         0.0694
     32 H          -5.5523  -17.4766   -8.8922 H         1 TQI         0.0386
     33 H          -6.1742  -17.9792  -10.4904 H         1 TQI         0.0386
     34 H          -5.7893  -19.3743   -6.8502 H         1 TQI         0.0795
     35 H          -5.7004  -21.9513   -7.0786 H         1 TQI         0.2216
     36 H          -6.6560  -19.7903  -11.8833 H         1 TQI         0.0540
     37 H          -5.9454  -23.8816   -9.0534 H         1 TQI         0.0541
     38 H          -6.7156  -22.0633  -12.8586 H         1 TQI         0.0510
     39 H          -6.3757  -24.0406  -11.4996 H         1 TQI         0.0530
     40 H          -9.4585  -15.4203   -5.3075 H         1 TQI         0.0870
     41 H         -10.8780  -16.4025   -9.2185 H         1 TQI         0.0873
     42 H         -12.9829  -17.2616   -8.2461 H         1 TQI         0.0704
@<TRIPOS>BOND
     1    1    2 1  
     2   16    1 am 
     3    2    3 1  
     4    2    5 1  
     5    3    4 ar 
     6    3   15 ar 
     7    5    6 1  
     8    6    7 2  
     9    6    8 1  
    10    7    9 1  
    11    8   10 ar 
    12    8   11 ar 
    13   10    9 1  
    14   10   12 ar 
    15   11   13 ar 
    16   12   14 ar 
    17   13   14 ar 
    18   19   16 1  
    19   16   21 2  
    20   16   22 2  
    21   17   18 1  
    22   20   17 ar 
    23   17   23 ar 
    24   18   25 1  
    25   18   26 1  
    26   18   27 1  
    27   19   20 ar 
    28   19   24 ar 
    29   23   28 ar 
    30   23   29 1  
    31   24   28 ar 
    32    1   30 1  
    33    2   31 1  
    34    5   32 1  
    35    5   33 1  
    36    7   34 1  
    37    9   35 1  
    38   11   36 1  
    39   12   37 1  
    40   13   38 1  
    41   14   39 1  
    42   20   40 1  
    43   24   41 1  
    44   28   42 1  
@<TRIPOS>SUBSTRUCTURE
     1 TQI         1

