### 
### Created by X-TOOL on Mon Sep 10 21:13:06 2018
### 

@<TRIPOS>MOLECULE
2y6d_ligand
   56    58     1     0     0
SMALL
GAST_HUCK


@<TRIPOS>ATOM
      1 N1        -16.3490   11.4020    3.3780 N.am      1 TQJ        -0.2345
      2 S2        -15.1580   10.2200    3.0470 S.o2      1 TQJ         0.0438
      3 C3        -16.0830   12.6650    2.6540 C.3       1 TQJ         0.0495
      4 C4        -16.5510   11.5680    4.8350 C.3       1 TQJ         0.0495
      5 C5        -15.8270    9.4470    1.5950 C.3       1 TQJ         0.1105
      6 O6        -13.9400   10.9070    2.6590 O.2       1 TQJ        -0.1552
      7 O7        -15.1610    9.2450    4.1210 O.2       1 TQJ        -0.1552
      8 C8        -17.0530   13.7470    3.0530 C.3       1 TQJ         0.0474
      9 C9        -17.4870   12.7060    5.1480 C.3       1 TQJ         0.0474
     10 C10       -16.8490    8.3960    1.9620 C.3       1 TQJ         0.0952
     11 N11       -16.9440   13.8580    4.4820 N.pl3     1 TQJ        -0.2895
     12 C12       -17.1520    7.5540    0.7420 C.3       1 TQJ        -0.0228
     13 N13       -18.0380    9.0550    2.4290 N.am      1 TQJ        -0.1476
     14 C14       -17.5560   15.0270    4.9380 C.ar      1 TQJ         0.1166
     15 C15       -17.7280    6.2100    1.1270 C.3       1 TQJ        -0.0354
     16 C16       -18.7830    8.5270    3.4470 C.2       1 TQJ         0.1952
     17 O17       -18.8670    9.3900    1.3410 O.3       1 TQJ        -0.2682
     18 C18       -18.1100   15.8730    4.0040 C.ar      1 TQJ        -0.0134
     19 N19       -17.5690   15.2750    6.2500 N.ar      1 TQJ        -0.2817
     20 C20       -18.3340    5.5570   -0.0930 C.3       1 TQJ         0.0165
     21 O21       -19.7410    9.0540    3.9920 O.2       1 TQJ        -0.3830
     22 C22       -18.7160   17.0370    4.4130 C.ar      1 TQJ        -0.0449
     23 C23       -18.1600   16.4090    6.6260 C.ar      1 TQJ         0.0058
     24 C24       -18.8260    4.1890    0.2350 C.ar      1 TQJ         0.1045
     25 C25       -18.7360   17.3030    5.7590 C.ar      1 TQJ         0.0261
     26 N26       -20.1350    4.0690    0.4750 N.ar      1 TQJ        -0.2641
     27 N27       -17.9120    3.2150    0.2540 N.ar      1 TQJ        -0.2641
     28 BR28      -19.5440   18.8790    6.4210 Br        1 TQJ        -0.0523
     29 C29       -20.5470    2.8330    0.7640 C.ar      1 TQJ         0.0214
     30 C30       -18.3850    2.0030    0.5470 C.ar      1 TQJ         0.0214
     31 C31       -19.7070    1.7500    0.8150 C.ar      1 TQJ        -0.0158
     32 H         -16.1937   12.4797    1.5856 H         1 TQJ         0.0498
     33 H         -15.0748   12.9979    2.9006 H         1 TQJ         0.0498
     34 H         -15.5850   11.7856    5.2907 H         1 TQJ         0.0498
     35 H         -16.9884   10.6492    5.2256 H         1 TQJ         0.0498
     36 H         -15.0146    8.9684    1.0482 H         1 TQJ         0.0543
     37 H         -16.3129   10.2092    0.9858 H         1 TQJ         0.0543
     38 H         -18.0705   13.5009    2.7495 H         1 TQJ         0.0537
     39 H         -16.8197   14.6915    2.5616 H         1 TQJ         0.0537
     40 H         -17.5641   12.8704    6.2228 H         1 TQJ         0.0537
     41 H         -18.4991   12.4914    4.8048 H         1 TQJ         0.0537
     42 H         -16.4671    7.7464    2.7496 H         1 TQJ         0.0606
     43 H         -16.2228    7.3885    0.1967 H         1 TQJ         0.0291
     44 H         -17.8842    8.0817    0.1309 H         1 TQJ         0.0291
     45 H         -18.4974    6.3474    1.8868 H         1 TQJ         0.0295
     46 H         -16.9366    5.5749    1.5250 H         1 TQJ         0.0295
     47 H         -18.4939    7.5397    3.8073 H         1 TQJ         0.1561
     48 H         -18.3321    9.7590    0.6343 H         1 TQJ         0.2496
     49 H         -18.0683   15.6209    2.9444 H         1 TQJ         0.0616
     50 H         -17.5722    5.4820   -0.8689 H         1 TQJ         0.0500
     51 H         -19.1733    6.1614   -0.4372 H         1 TQJ         0.0500
     52 H         -19.1641   17.7234    3.6946 H         1 TQJ         0.0723
     53 H         -18.1875   16.6411    7.6907 H         1 TQJ         0.0810
     54 H         -21.6058    2.6761    0.9702 H         1 TQJ         0.0920
     55 H         -17.6841    1.1687    0.5751 H         1 TQJ         0.0920
     56 H         -20.0674    0.7494    1.0538 H         1 TQJ         0.0720
@<TRIPOS>BOND
     1    1    2 am 
     2    1    3 1  
     3    1    4 1  
     4    2    5 1  
     5    2    6 2  
     6    2    7 2  
     7    3    8 1  
     8    4    9 1  
     9    5   10 1  
    10    8   11 1  
    11    9   11 1  
    12   10   12 1  
    13   10   13 1  
    14   11   14 1  
    15   12   15 1  
    16   13   16 am 
    17   13   17 1  
    18   14   18 ar 
    19   14   19 ar 
    20   15   20 1  
    21   16   21 2  
    22   18   22 ar 
    23   19   23 ar 
    24   20   24 1  
    25   22   25 ar 
    26   23   25 ar 
    27   24   26 ar 
    28   24   27 ar 
    29   25   28 1  
    30   26   29 ar 
    31   27   30 ar 
    32   29   31 ar 
    33   30   31 ar 
    34    3   32 1  
    35    3   33 1  
    36    4   34 1  
    37    4   35 1  
    38    5   36 1  
    39    5   37 1  
    40    8   38 1  
    41    8   39 1  
    42    9   40 1  
    43    9   41 1  
    44   10   42 1  
    45   12   43 1  
    46   12   44 1  
    47   15   45 1  
    48   15   46 1  
    49   16   47 1  
    50   17   48 1  
    51   18   49 1  
    52   20   50 1  
    53   20   51 1  
    54   22   52 1  
    55   23   53 1  
    56   29   54 1  
    57   30   55 1  
    58   31   56 1  
@<TRIPOS>SUBSTRUCTURE
     1 TQJ         1

