### 
### Created by X-TOOL on Mon Sep 10 21:13:06 2018
### 

@<TRIPOS>MOLECULE
2y6o_ligand
   60    63     1     0     0
SMALL
GAST_HUCK


@<TRIPOS>ATOM
      1 C1         28.5980   59.6340   29.1920 C.2       1 1N1        -0.0104
      2 C2         27.9200   58.4180   29.4700 C.2       1 1N1         0.1128
      3 C3         28.6530   57.1530   29.8850 C.2       1 1N1         0.2261
      4 N6         18.2390   63.2470   27.4410 N.4       1 1N1         0.2397
      5 C7         32.2170   53.9380   31.5060 C.ar      1 1N1        -0.0834
      6 C8         31.7810   54.8640   32.4390 C.ar      1 1N1        -0.0735
      7 C9         31.0380   56.0050   32.0290 C.ar      1 1N1        -0.0235
      8 C10        30.5580   57.0020   33.0500 C.3       1 1N1        -0.0351
      9 C11        23.8980   60.5310   28.6150 C.ar      1 1N1         0.1348
     10 C12        22.8620   61.4570   28.3310 C.ar      1 1N1         0.0208
     11 C13        21.6020   60.9780   28.4370 C.ar      1 1N1         0.1091
     12 C14        22.3800   58.8440   29.0790 C.ar      1 1N1         0.0703
     13 C15        22.1160   57.4350   29.4840 C.3       1 1N1        -0.0028
     14 C16        20.6520   63.1770   27.7640 C.3       1 1N1         0.0716
     15 C19        19.2720   61.5060   28.7710 C.3       1 1N1         0.0716
     16 C20        17.4940   64.3100   28.1770 C.3       1 1N1        -0.0080
     17 C21        18.2110   65.0140   29.2570 C.3       1 1N1         0.0841
     18 N          25.2550   60.9790   28.5130 N.pl3     1 1N1        -0.2165
     19 C          26.3400   60.0980   28.8670 C.2       1 1N1         0.2125
     20 N1         27.6330   60.6390   28.8200 N.2       1 1N1        -0.2981
     21 S          26.3270   58.5240   29.3040 S.3       1 1N1         0.0354
     22 N2         30.0310   57.2950   30.2710 N.am      1 1N1        -0.2384
     23 C4         30.7760   56.1520   30.6800 C.ar      1 1N1         0.0817
     24 C5         31.2090   55.2350   29.7440 C.ar      1 1N1         0.0531
     25 C6         31.9490   54.0960   30.1630 C.ar      1 1N1        -0.0685
     26 CL         30.8580   55.4570   28.1030 Cl        1 1N1        -0.0853
     27 O          28.0650   56.0890   29.8730 O.2       1 1N1        -0.3859
     28 N3         21.3630   59.6580   28.8170 N.ar      1 1N1        -0.2701
     29 N4         23.6380   59.2600   28.9740 N.ar      1 1N1        -0.2662
     30 N5         20.5290   61.8190   28.1720 N.pl3     1 1N1        -0.2818
     31 C17        19.5220   63.5800   26.8800 C.3       1 1N1        -0.0108
     32 C18        18.1430   61.8760   27.8750 C.3       1 1N1        -0.0108
     33 O1         17.7250   65.0940   30.3650 O.3       1 1N1        -0.3898
     34 H1         29.6751   59.7839   29.2504 H         1 1N1         0.0652
     35 H2         17.6787   63.2074   26.6040 H         1 1N1         0.2036
     36 H3         32.7795   53.0728   31.8380 H         1 1N1         0.0471
     37 H4         32.0077   54.7180   33.4889 H         1 1N1         0.0515
     38 H5         30.8804   56.6842   34.0525 H         1 1N1         0.0362
     39 H6         29.4599   57.0590   33.0189 H         1 1N1         0.0362
     40 H7         30.9831   57.9912   32.8246 H         1 1N1         0.0362
     41 H8         23.0671   62.4829   28.0472 H         1 1N1         0.0519
     42 H9         21.0304   57.2614   29.5209 H         1 1N1         0.0460
     43 H10        22.5506   57.2515   30.4777 H         1 1N1         0.0460
     44 H11        22.5719   56.7516   28.7525 H         1 1N1         0.0460
     45 H12        21.5978   63.3027   27.2166 H         1 1N1         0.0577
     46 H13        20.6563   63.8205   28.6561 H         1 1N1         0.0577
     47 H14        19.1767   62.0606   29.7162 H         1 1N1         0.0577
     48 H15        19.2301   60.4257   28.9738 H         1 1N1         0.0577
     49 H16        16.6036   63.8418   28.6220 H         1 1N1         0.0837
     50 H17        17.1820   65.0652   27.4406 H         1 1N1         0.0837
     51 H18        18.3737   66.0446   28.9085 H         1 1N1         0.0610
     52 H19        19.1811   64.5088   29.3735 H         1 1N1         0.0610
     53 H20        25.4563   61.9345   28.1854 H         1 1N1         0.2300
     54 H21        30.4658   58.1954   30.2523 H         1 1N1         0.2226
     55 H22        32.2958   53.3659   29.4406 H         1 1N1         0.0526
     56 H23        19.5671   64.6678   26.7232 H         1 1N1         0.0835
     57 H24        19.6290   63.0655   25.9137 H         1 1N1         0.0835
     58 H25        18.1579   61.2200   26.9922 H         1 1N1         0.0835
     59 H26        17.1963   61.7387   28.4180 H         1 1N1         0.0835
     60 H27        17.5897   64.2209   30.7140 H         1 1N1         0.2096
@<TRIPOS>BOND
     1    2    1 2  
     2    1   20 1  
     3    3    2 1  
     4    2   21 1  
     5   22    3 am 
     6    3   27 2  
     7    4   16 1  
     8   31    4 1  
     9   32    4 1  
    10    6    5 ar 
    11    5   25 ar 
    12    7    6 ar 
    13    7    8 1  
    14   23    7 ar 
    15    9   10 ar 
    16   18    9 1  
    17    9   29 ar 
    18   10   11 ar 
    19   11   28 ar 
    20   11   30 1  
    21   12   13 1  
    22   12   28 ar 
    23   29   12 ar 
    24   30   14 1  
    25   14   31 1  
    26   30   15 1  
    27   15   32 1  
    28   16   17 1  
    29   17   33 1  
    30   19   18 1  
    31   19   20 2  
    32   21   19 1  
    33   22   23 1  
    34   23   24 ar 
    35   24   25 ar 
    36   24   26 1  
    37    1   34 1  
    38    4   35 1  
    39    5   36 1  
    40    6   37 1  
    41    8   38 1  
    42    8   39 1  
    43    8   40 1  
    44   10   41 1  
    45   13   42 1  
    46   13   43 1  
    47   13   44 1  
    48   14   45 1  
    49   14   46 1  
    50   15   47 1  
    51   15   48 1  
    52   16   49 1  
    53   16   50 1  
    54   17   51 1  
    55   17   52 1  
    56   18   53 1  
    57   22   54 1  
    58   25   55 1  
    59   31   56 1  
    60   31   57 1  
    61   32   58 1  
    62   32   59 1  
    63   33   60 1  
@<TRIPOS>SUBSTRUCTURE
     1 1N1         1

