### 
### Created by X-TOOL on Mon Sep 10 21:13:05 2018
### 

@<TRIPOS>MOLECULE
2y71_ligand
   41    43     1     0     0
SMALL
GAST_HUCK


@<TRIPOS>ATOM
      1 CAK         5.6510  -29.0870  -49.4140 C.2       1 CB6        -0.0637
      2 CAT         5.9390  -29.5490  -50.6510 C.ar      1 CB6        -0.0449
      3 CAI         5.1090  -29.9770  -51.6870 C.ar      1 CB6        -0.0724
      4 CAH         5.6510  -30.4120  -52.9030 C.ar      1 CB6        -0.0605
      5 CAR         7.0340  -30.4370  -53.0910 C.ar      1 CB6        -0.0722
      6 CAJ         7.8550  -30.0220  -52.0780 C.ar      1 CB6        -0.0595
      7 CAU         7.3120  -29.5940  -50.8940 C.ar      1 CB6         0.0270
      8 SAO         8.0990  -29.0760  -49.5360 S.3       1 CB6        -0.0303
      9 CAS         6.7090  -28.7630  -48.6650 C.2       1 CB6         0.0526
     10 CAL         6.7420  -28.2850  -47.3390 C.3       1 CB6         0.1498
     11 OAN         8.0960  -27.9670  -46.6890 O.3       1 CB6        -0.2220
     12 CAQ         8.2250  -28.3980  -45.4140 C.2       1 CB6         0.1914
     13 CAG         7.1110  -28.5960  -44.6010 C.2       1 CB6        -0.0311
     14 CAX         7.2310  -29.0660  -43.2800 C.3       1 CB6         0.0498
     15 CAP         6.0570  -29.9960  -42.9330 C.2       1 CB6         0.0002
     16 OAC         6.2270  -31.2030  -42.6100 O.co2     1 CB6        -0.5739
     17 OAB         4.9450  -29.4430  -42.9650 O.co2     1 CB6        -0.5739
     18 OAF         7.1080  -27.8790  -42.4100 O.3       1 CB6        -0.4602
     19 CAM         8.5800  -29.7490  -42.9660 C.3       1 CB6        -0.0399
     20 CAV         9.7320  -28.8760  -43.4530 C.3       1 CB6         0.0985
     21 OAD        10.9570  -29.5260  -43.0940 O.3       1 CB6        -0.3855
     22 CAW         9.6340  -28.8020  -44.9640 C.3       1 CB6         0.1916
     23 OAE        10.5890  -27.8680  -45.5530 O.3       1 CB6        -0.3543
     24 CAA         4.7770  -30.8840  -54.0840 C.3       1 CB6        -0.0359
     25 H           4.6276  -28.9858  -49.0528 H         1 CB6         0.0272
     26 H           4.0278  -29.9729  -51.5489 H         1 CB6         0.0462
     27 H           7.4554  -30.7834  -54.0347 H         1 CB6         0.0485
     28 H           8.9367  -30.0316  -52.2119 H         1 CB6         0.0546
     29 H           6.3294  -29.0968  -46.7400 H         1 CB6         0.0893
     30 H           6.2188  -27.3294  -47.3744 H         1 CB6         0.0893
     31 H           6.1193  -28.3810  -44.9991 H         1 CB6         0.0420
     32 H           6.2682  -27.4456  -42.5788 H         1 CB6         0.1822
     33 H           8.6209  -30.7128  -43.4734 H         1 CB6         0.0130
     34 H           8.6680  -29.8911  -41.8889 H         1 CB6         0.0130
     35 H           9.6960  -27.8776  -43.0170 H         1 CB6         0.0660
     36 H          10.9962  -29.6281  -42.1402 H         1 CB6         0.2103
     37 H           9.8692  -29.8063  -45.3164 H         1 CB6         0.1073
     38 H          10.4823  -27.8621  -46.5071 H         1 CB6         0.2174
     39 H           4.9679  -30.2517  -54.9511 H         1 CB6         0.0377
     40 H           5.0228  -31.9181  -54.3257 H         1 CB6         0.0377
     41 H           3.7252  -30.8145  -53.8065 H         1 CB6         0.0377
@<TRIPOS>BOND
     1    1    2 1  
     2    1    9 2  
     3    2    3 ar 
     4    2    7 ar 
     5    3    4 ar 
     6    4    5 ar 
     7    4   24 1  
     8    5    6 ar 
     9    6    7 ar 
    10    7    8 1  
    11    8    9 1  
    12    9   10 1  
    13   10   11 1  
    14   11   12 1  
    15   12   13 2  
    16   12   22 1  
    17   13   14 1  
    18   14   15 1  
    19   14   18 1  
    20   14   19 1  
    21   15   16 ar 
    22   15   17 ar 
    23   19   20 1  
    24   20   21 1  
    25   20   22 1  
    26   22   23 1  
    27    1   25 1  
    28    3   26 1  
    29    5   27 1  
    30    6   28 1  
    31   10   29 1  
    32   10   30 1  
    33   13   31 1  
    34   18   32 1  
    35   19   33 1  
    36   19   34 1  
    37   20   35 1  
    38   21   36 1  
    39   22   37 1  
    40   23   38 1  
    41   24   39 1  
    42   24   40 1  
    43   24   41 1  
@<TRIPOS>SUBSTRUCTURE
     1 CB6         1

