### 
### Created by X-TOOL on Mon Sep 10 21:13:05 2018
### 

@<TRIPOS>MOLECULE
2y76_ligand
   54    58     1     0     0
SMALL
GAST_HUCK


@<TRIPOS>ATOM
      1 CAO         5.1690   15.2480   28.8970 C.ar      1 CB7        -0.0643
      2 CBB         4.6510   14.3430   29.8240 C.ar      1 CB7        -0.0321
      3 CAK         4.4460   13.0150   29.6800 C.2       1 CB7        -0.0627
      4 CAG         3.9260   12.3470   30.7200 C.2       1 CB7        -0.0043
      5 SAU         3.6590   13.4770   31.9440 S.3       1 CB7        -0.0420
      6 CBD         4.2500   14.8220   31.0880 C.ar      1 CB7         0.0317
      7 CAM         4.3840   16.1690   31.4200 C.ar      1 CB7        -0.0548
      8 CAI         4.9060   17.0580   30.4770 C.ar      1 CB7        -0.0661
      9 CAZ         5.3140   16.5970   29.2200 C.ar      1 CB7        -0.0441
     10 CAQ         5.8730   17.5650   28.1720 C.3       1 CB7         0.0024
     11 CAW         7.1700   18.2480   28.5730 C.2       1 CB7        -0.0011
     12 CBG         7.1020   19.7270   29.0020 C.3       1 CB7         0.0441
     13 CAV         5.8770   20.0850   29.8470 C.2       1 CB7        -0.0115
     14 OAB         6.0140   20.1240   31.0870 O.co2     1 CB7        -0.5786
     15 OAA         4.8470   20.3900   29.2110 O.co2     1 CB7        -0.5786
     16 OAE         7.0080   20.4830   27.7810 O.3       1 CB7        -0.4714
     17 CAR         8.3610   20.1340   29.7780 C.3       1 CB7        -0.0478
     18 CBE         9.5740   19.8260   28.9090 C.3       1 CB7         0.0966
     19 OAC        10.7390   20.3920   29.5220 O.3       1 CB7        -0.3857
     20 CBF         9.7390   18.3030   28.7530 C.3       1 CB7         0.1931
     21 OAD        10.6040   17.9590   27.6630 O.3       1 CB7        -0.3540
     22 CAX         8.4140   17.6370   28.4280 C.2       1 CB7         0.2017
     23 OAS         8.5200   16.3540   28.0440 O.3       1 CB7        -0.2250
     24 CAP         8.6700   15.6330   29.3450 C.3       1 CB7         0.1315
     25 CAY         8.2970   14.2920   29.5510 C.ar      1 CB7        -0.0174
     26 CAN         8.4450   13.6590   30.7850 C.ar      1 CB7        -0.0633
     27 CBA         8.0720   12.3250   30.9730 C.ar      1 CB7        -0.0324
     28 CAJ         8.1470   11.5600   32.0870 C.2       1 CB7        -0.0628
     29 CAF         7.7090   10.2990   31.9840 C.2       1 CB7        -0.0044
     30 SAT         7.1870   10.1180   30.3840 S.3       1 CB7        -0.0422
     31 CBC         7.5420   11.6420   29.8820 C.ar      1 CB7         0.0314
     32 CAL         7.3840   12.2610   28.6690 C.ar      1 CB7        -0.0551
     33 CAH         7.7620   13.5800   28.5030 C.ar      1 CB7        -0.0651
     34 H           5.4640   14.8964   27.9083 H         1 CB7         0.0501
     35 H           4.6949   12.5041   28.7499 H         1 CB7         0.0419
     36 H           3.7160   11.2784   30.7658 H         1 CB7         0.0797
     37 H           4.0845   16.5254   32.4056 H         1 CB7         0.0557
     38 H           4.9960   18.1164   30.7216 H         1 CB7         0.0521
     39 H           5.1290   18.3495   28.0335 H         1 CB7         0.0549
     40 H           6.0844   16.9792   27.2774 H         1 CB7         0.0549
     41 H           6.1985   20.2477   27.3218 H         1 CB7         0.1783
     42 H           8.4200   19.5800   30.7148 H         1 CB7         0.0103
     43 H           8.3289   21.1976   30.0143 H         1 CB7         0.0103
     44 H           9.4370   20.2590   27.9181 H         1 CB7         0.0659
     45 H          11.5085   20.2023   28.9802 H         1 CB7         0.2103
     46 H          10.1492   17.9648   29.7045 H         1 CB7         0.1076
     47 H          10.6774   17.0037   27.6034 H         1 CB7         0.2175
     48 H           7.9871   16.1748   29.9993 H         1 CB7         0.0830
     49 H           9.7513   15.6043   29.4797 H         1 CB7         0.0830
     50 H           8.8615   14.2180   31.6229 H         1 CB7         0.0498
     51 H           8.5449   11.9517   33.0231 H         1 CB7         0.0419
     52 H           7.6920    9.5436   32.7696 H         1 CB7         0.0797
     53 H           6.9579   11.7098   27.8307 H         1 CB7         0.0557
     54 H           7.6350   14.0603   27.5328 H         1 CB7         0.0518
@<TRIPOS>BOND
     1    1    2 ar 
     2    1    9 ar 
     3    2    3 1  
     4    2    6 ar 
     5    3    4 2  
     6    4    5 1  
     7    5    6 1  
     8    6    7 ar 
     9    7    8 ar 
    10    8    9 ar 
    11    9   10 1  
    12   10   11 1  
    13   11   12 1  
    14   11   22 2  
    15   12   13 1  
    16   12   16 1  
    17   12   17 1  
    18   13   14 ar 
    19   13   15 ar 
    20   17   18 1  
    21   18   19 1  
    22   18   20 1  
    23   20   21 1  
    24   20   22 1  
    25   22   23 1  
    26   23   24 1  
    27   24   25 1  
    28   25   26 ar 
    29   25   33 ar 
    30   26   27 ar 
    31   27   28 1  
    32   27   31 ar 
    33   28   29 2  
    34   29   30 1  
    35   30   31 1  
    36   31   32 ar 
    37   32   33 ar 
    38    1   34 1  
    39    3   35 1  
    40    4   36 1  
    41    7   37 1  
    42    8   38 1  
    43   10   39 1  
    44   10   40 1  
    45   16   41 1  
    46   17   42 1  
    47   17   43 1  
    48   18   44 1  
    49   19   45 1  
    50   20   46 1  
    51   21   47 1  
    52   24   48 1  
    53   24   49 1  
    54   26   50 1  
    55   28   51 1  
    56   29   52 1  
    57   32   53 1  
    58   33   54 1  
@<TRIPOS>SUBSTRUCTURE
     1 CB7         1

