### 
### Created by X-TOOL on Mon Sep 10 21:13:05 2018
### 

@<TRIPOS>MOLECULE
2y77_ligand
   48    51     1     0     0
SMALL
GAST_HUCK


@<TRIPOS>ATOM
      1 CAV         2.9040   13.9280   23.1960 C.2       1 CB8         0.2032
      2 CBB         2.6640   13.3050   21.8120 C.3       1 CB8         0.1934
      3 OAD         3.7080   13.7540   20.9280 O.3       1 CB8        -0.3540
      4 CBA         2.6300   11.7740   21.8920 C.3       1 CB8         0.0966
      5 OAC         2.0630   11.2490   20.6830 O.3       1 CB8        -0.3857
      6 CAP         1.7360   11.3370   23.0510 C.3       1 CB8        -0.0481
      7 CBC         2.3530   11.7910   24.3830 C.3       1 CB8         0.0440
      8 CAT         1.5660   11.3000   25.5910 C.2       1 CB8        -0.0118
      9 OAB         2.1970   11.2340   26.6680 O.co2     1 CB8        -0.5787
     10 OAA         0.3710   11.0030   25.4260 O.co2     1 CB8        -0.5787
     11 OAE         3.8540   10.9960   24.5060 O.3       1 CB8        -0.4717
     12 CAU         2.6220   13.3040   24.4060 C.2       1 CB8         0.0018
     13 CAM         0.2950   17.0970   24.4200 C.2       1 CB8        -0.0616
     14 CAY         0.0350   17.7550   25.5740 C.ar      1 CB8        -0.0378
     15 CAK        -1.2030   18.0950   26.1210 C.ar      1 CB8        -0.0726
     16 CAF        -1.2960   18.7790   27.3260 C.ar      1 CB8        -0.0761
     17 CAG        -0.1410   19.1400   28.0050 C.ar      1 CB8        -0.0744
     18 CAL         1.1060   18.8130   27.4810 C.ar      1 CB8        -0.0542
     19 CAZ         1.1960   18.1270   26.2750 C.ar      1 CB8         0.0332
     20 SAS         2.5210   17.5950   25.3710 S.3       1 CB8        -0.0260
     21 CAX         1.5930   16.9200   24.1430 C.2       1 CB8         0.0540
     22 CAN         2.1300   16.2340   23.0030 C.3       1 CB8         0.1504
     23 OAQ         3.3350   15.2340   23.2420 O.3       1 CB8        -0.2196
     24 CAO         2.8810   14.0110   25.7480 C.3       1 CB8         0.0177
     25 CAW         1.5470   14.4020   26.4020 C.2       1 CB8         0.0211
     26 CAJ         1.3490   14.9570   27.6000 C.2       1 CB8        -0.0794
     27 CAH         0.0540   15.2010   27.9020 C.2       1 CB8        -0.0922
     28 CAI        -0.8500   14.8530   26.9720 C.2       1 CB8        -0.0188
     29 SAR         0.0330   14.2130   25.6840 S.3       1 CB8        -0.0424
     30 H           1.6940   13.6224   21.4294 H         1 CB8         0.1077
     31 H           3.6845   14.7118   20.8674 H         1 CB8         0.2175
     32 H           3.6461   11.4067   22.0363 H         1 CB8         0.0659
     33 H           2.0409   10.2905   20.7312 H         1 CB8         0.2103
     34 H           1.6455   10.2508   23.0471 H         1 CB8         0.0102
     35 H           0.7509   11.7894   22.9371 H         1 CB8         0.0102
     36 H           4.2765   11.2385   25.3333 H         1 CB8         0.1782
     37 H          -0.4963   16.7367   23.7627 H         1 CB8         0.0276
     38 H          -2.1150   17.8182   25.5920 H         1 CB8         0.0535
     39 H          -2.2734   19.0315   27.7372 H         1 CB8         0.0545
     40 H          -0.2105   19.6800   28.9493 H         1 CB8         0.0535
     41 H           2.0127   19.0948   28.0163 H         1 CB8         0.0559
     42 H           2.5249   17.0150   22.3532 H         1 CB8         0.0895
     43 H           1.3139   15.6200   22.6222 H         1 CB8         0.0895
     44 H           3.4710   14.9103   25.5715 H         1 CB8         0.0589
     45 H           3.4209   13.3350   26.4111 H         1 CB8         0.0589
     46 H           2.1666   15.1946   28.2806 H         1 CB8         0.0286
     47 H          -0.2401   15.6552   28.8482 H         1 CB8         0.0374
     48 H          -1.9327   14.9617   27.0359 H         1 CB8         0.0604
@<TRIPOS>BOND
     1    1    2 1  
     2    1   12 2  
     3   23    1 1  
     4    2    3 1  
     5    2    4 1  
     6    4    5 1  
     7    4    6 1  
     8    7    6 1  
     9    7    8 1  
    10    7   11 1  
    11   12    7 1  
    12    8    9 ar 
    13    8   10 ar 
    14   12   24 1  
    15   13   14 1  
    16   21   13 2  
    17   14   15 ar 
    18   19   14 ar 
    19   15   16 ar 
    20   17   16 ar 
    21   18   17 ar 
    22   19   18 ar 
    23   20   19 1  
    24   21   20 1  
    25   22   21 1  
    26   22   23 1  
    27   24   25 1  
    28   25   26 2  
    29   25   29 1  
    30   26   27 1  
    31   27   28 2  
    32   28   29 1  
    33    2   30 1  
    34    3   31 1  
    35    4   32 1  
    36    5   33 1  
    37    6   34 1  
    38    6   35 1  
    39   11   36 1  
    40   13   37 1  
    41   15   38 1  
    42   16   39 1  
    43   17   40 1  
    44   18   41 1  
    45   22   42 1  
    46   22   43 1  
    47   24   44 1  
    48   24   45 1  
    49   26   46 1  
    50   27   47 1  
    51   28   48 1  
@<TRIPOS>SUBSTRUCTURE
     1 CB8         1

