### 
### Created by X-TOOL on Mon Sep 10 21:13:06 2018
### 

@<TRIPOS>MOLECULE
2y7i_ligand
   27    26     1     0     0
SMALL
GAST_HUCK


@<TRIPOS>ATOM
      1 N           1.5220    2.5190   36.5710 N.4       1 ARG         0.2327
      2 CA          1.3060    1.5670   37.7050 C.3       1 ARG         0.0284
      3 C           2.6500    1.0640   38.2180 C.2       1 ARG         0.0844
      4 O           2.6940    0.2440   39.1320 O.co2     1 ARG        -0.5643
      5 CB          0.4220    0.3780   37.2730 C.3       1 ARG         0.0055
      6 CG          0.9400   -0.3730   36.0330 C.3       1 ARG        -0.0131
      7 CD          0.1250   -1.6270   35.7240 C.3       1 ARG         0.0628
      8 NE          0.4370   -2.1070   34.3750 N.pl3     1 ARG        -0.2723
      9 CZ         -0.0810   -3.1960   33.8100 C.cat     1 ARG         0.2882
     10 NH1        -0.9540   -3.9660   34.4630 N.pl3     1 ARG        -0.2849
     11 NH2         0.2790   -3.5170   32.5850 N.pl3     1 ARG        -0.2849
     12 OXT         3.7180    1.4530   37.7080 O.co2     1 ARG        -0.5643
     13 H1          0.6308    2.8490   36.2350 H         1 ARG         0.2010
     14 H2          2.0089    2.0477   35.8247 H         1 ARG         0.2010
     15 H3          2.0718    3.3016   36.8893 H         1 ARG         0.2010
     16 H4          0.7954    2.1026   38.5188 H         1 ARG         0.1024
     17 H5         -0.5852    0.7596   37.0498 H         1 ARG         0.0340
     18 H6          0.3673   -0.3337   38.1099 H         1 ARG         0.0340
     19 H7          1.9852   -0.6667   36.2099 H         1 ARG         0.0302
     20 H8          0.8905    0.3020   35.1659 H         1 ARG         0.0302
     21 H9         -0.9472   -1.3896   35.7873 H         1 ARG         0.0689
     22 H10         0.3708   -2.4108   36.4555 H         1 ARG         0.0689
     23 H11         1.1099   -1.5590   33.8202 H         1 ARG         0.2642
     24 H12        -1.3428   -4.8041   34.0076 H         1 ARG         0.2615
     25 H13        -1.2389   -3.7221   35.4223 H         1 ARG         0.2615
     26 H14         0.9522   -2.9275   32.0749 H         1 ARG         0.2615
     27 H15        -0.1126   -4.3576   32.1367 H         1 ARG         0.2615
@<TRIPOS>BOND
     1    1    2 1  
     2    2    3 1  
     3    2    5 1  
     4    3    4 ar 
     5    3   12 ar 
     6    5    6 1  
     7    6    7 1  
     8    7    8 1  
     9    8    9 ar 
    10    9   10 ar 
    11    9   11 ar 
    12    1   13 1  
    13    1   14 1  
    14    1   15 1  
    15    2   16 1  
    16    5   17 1  
    17    5   18 1  
    18    6   19 1  
    19    6   20 1  
    20    7   21 1  
    21    7   22 1  
    22    8   23 1  
    23   10   24 1  
    24   10   25 1  
    25   11   26 1  
    26   11   27 1  
@<TRIPOS>SUBSTRUCTURE
     1 ARG         1

