### 
### Created by X-TOOL on Mon Sep 10 21:13:07 2018
### 

@<TRIPOS>MOLECULE
2y7k_ligand
   15    15     1     0     0
SMALL
GAST_HUCK


@<TRIPOS>ATOM
      1 C1'        25.7790   18.9330   73.8970 C.2       1 SAL         0.0582
      2 O1'        24.9050   19.8400   73.8050 O.co2     1 SAL        -0.5643
      3 O2'        26.0160   18.3160   74.9530 O.co2     1 SAL        -0.5643
      4 C1         26.6050   18.5570   72.6530 C.ar      1 SAL         0.0385
      5 C2         26.4130   19.2730   71.4810 C.ar      1 SAL         0.1029
      6 C3         27.1270   18.9290   70.3230 C.ar      1 SAL        -0.0293
      7 C4         28.0440   17.8550   70.3520 C.ar      1 SAL        -0.0679
      8 C5         28.2340   17.1440   71.5320 C.ar      1 SAL        -0.0692
      9 C6         27.5150   17.4920   72.6790 C.ar      1 SAL        -0.0561
     10 O2         25.5140   20.3190   71.5130 O.3       1 SAL        -0.3295
     11 H1         26.9749   19.4874   69.4064 H         1 SAL         0.0550
     12 H2         28.5968   17.5864   69.4591 H         1 SAL         0.0610
     13 H3         28.9388   16.3210   71.5622 H         1 SAL         0.0531
     14 H4         27.6627   16.9333   73.5961 H         1 SAL         0.0622
     15 H5         25.1394   20.3866   72.3834 H         1 SAL         0.2498
@<TRIPOS>BOND
     1    1    2 ar 
     2    1    3 ar 
     3    1    4 1  
     4    4    5 ar 
     5    4    9 ar 
     6    5    6 ar 
     7    5   10 1  
     8    6    7 ar 
     9    7    8 ar 
    10    8    9 ar 
    11    6   11 1  
    12    7   12 1  
    13    8   13 1  
    14    9   14 1  
    15   10   15 1  
@<TRIPOS>SUBSTRUCTURE
     1 SAL         1

