### 
### Created by X-TOOL on Fri Sep 26 17:34:51 2014
### 

@<TRIPOS>MOLECULE
2y7p_ligand
   15    15     1     0     0
SMALL
GAST_HUCK


@<TRIPOS>ATOM
      1 C1'        14.8160   48.6310    3.5540 C.2       1 SAL         0.0582
      2 O1'        15.5390   49.3720    2.8170 O.co2     1 SAL        -0.5643
      3 O2'        14.9820   48.6050    4.7950 O.co2     1 SAL        -0.5643
      4 C1         13.7830   47.7510    2.9810 C.ar      1 SAL         0.0385
      5 C2         12.9860   46.8930    3.8750 C.ar      1 SAL         0.1029
      6 C3         12.0430   46.0320    3.3440 C.ar      1 SAL        -0.0293
      7 C4         11.8180   45.9740    1.9480 C.ar      1 SAL        -0.0679
      8 C5         12.5750   46.7800    1.1220 C.ar      1 SAL        -0.0692
      9 C6         13.5620   47.6770    1.5970 C.ar      1 SAL        -0.0561
     10 O2         13.1930   46.9800    5.2290 O.3       1 SAL        -0.3295
     11 H1         11.4689   45.3934    4.0055 H         1 SAL         0.0550
     12 H2         11.0666   45.3102    1.5359 H         1 SAL         0.0610
     13 H3         12.4048   46.7232    0.0529 H         1 SAL         0.0531
     14 H4         14.1324   48.2909    0.9094 H         1 SAL         0.0622
     15 H5         13.8740   47.6190    5.4037 H         1 SAL         0.2498
@<TRIPOS>BOND
     1    1    2 ar 
     2    1    3 ar 
     3    1    4 1  
     4    4    5 ar 
     5    4    9 ar 
     6    5    6 ar 
     7    5   10 1  
     8    6    7 ar 
     9    7    8 ar 
    10    8    9 ar 
    11    6   11 1  
    12    7   12 1  
    13    8   13 1  
    14    9   14 1  
    15   10   15 1  
@<TRIPOS>SUBSTRUCTURE
     1 SAL         1

