### 
### Created by X-TOOL on Mon Sep 10 21:13:08 2018
### 

@<TRIPOS>MOLECULE
2y7w_ligand
   15    15     1     0     0
SMALL
GAST_HUCK


@<TRIPOS>ATOM
      1 C1'        14.3080   14.3500    2.7620 C.2       1 SAL         0.0582
      2 O1'        14.0170   15.5530    2.9630 O.co2     1 SAL        -0.5643
      3 O2'        14.7140   13.5600    3.6460 O.co2     1 SAL        -0.5643
      4 C1         14.1160   13.8140    1.3490 C.ar      1 SAL         0.0385
      5 C2         14.3840   12.4960    1.0560 C.ar      1 SAL         0.1029
      6 C3         14.1890   12.0290   -0.2280 C.ar      1 SAL        -0.0293
      7 C4         13.7290   12.8760   -1.2240 C.ar      1 SAL        -0.0679
      8 C5         13.4600   14.1970   -0.9360 C.ar      1 SAL        -0.0692
      9 C6         13.6540   14.6630    0.3560 C.ar      1 SAL        -0.0561
     10 O2         14.8380   11.6610    2.0170 O.3       1 SAL        -0.3295
     11 H          14.3986   10.9850   -0.4608 H         1 SAL         0.0550
     12 H          13.5799   12.4975   -2.2352 H         1 SAL         0.0610
     13 H          13.0987   14.8681   -1.7152 H         1 SAL         0.0531
     14 H          13.4413   15.7056    0.5922 H         1 SAL         0.0622
     15 H          14.9173   12.1406    2.8448 H         1 SAL         0.2498
@<TRIPOS>BOND
     1    1    2 ar 
     2    1    3 ar 
     3    1    4 1  
     4    4    5 ar 
     5    4    9 ar 
     6    5    6 ar 
     7    5   10 1  
     8    6    7 ar 
     9    7    8 ar 
    10    8    9 ar 
    11    6   11 1  
    12    7   12 1  
    13    8   13 1  
    14    9   14 1  
    15   10   15 1  
@<TRIPOS>SUBSTRUCTURE
     1 SAL         1

