### 
### Created by X-TOOL on Mon Sep 10 21:13:06 2018
### 

@<TRIPOS>MOLECULE
2y7x_ligand
   54    58     1     0     0
SMALL
GAST_HUCK


@<TRIPOS>ATOM
      1 F1          7.6490    4.9200   19.0050 F         1 MZA        -0.2015
      2 C7          7.5050    3.6470   19.4110 C.ar      1 MZA         0.1463
      3 C6          8.1610    2.6140   18.7180 C.ar      1 MZA        -0.0100
      4 C5          9.0390    2.9240   17.5130 C.3       1 MZA         0.0164
      5 C1          9.8360    1.7210   17.0500 C.3       1 MZA        -0.0249
      6 N1          9.0220    0.4870   17.0690 N.4       1 MZA         0.2374
      7 C3          8.6770    0.1320   18.4650 C.3       1 MZA        -0.0094
      8 C11         7.9910    1.2850   19.1720 C.ar      1 MZA        -0.0126
      9 C10         7.1880    0.9920   20.2800 C.ar      1 MZA        -0.0784
     10 C9          6.5440    2.0350   20.9480 C.ar      1 MZA        -0.0552
     11 C8          6.6910    3.3750   20.5200 C.ar      1 MZA         0.0896
     12 N2          6.0120    4.3820   21.2490 N.am      1 MZA        -0.2229
     13 C25         6.5930    5.5330   21.6940 C.2       1 MZA         0.2251
     14 O3          7.7210    5.9480   21.4460 O.2       1 MZA        -0.3840
     15 C12         4.6070    4.2470   21.6300 C.3       1 MZA         0.0573
     16 C13         4.2260    5.6310   22.1770 C.3       1 MZA         0.0097
     17 C14         5.5780    6.2420   22.5770 C.3       1 MZA         0.1340
     18 N3          5.6410    7.6780   22.3470 N.am      1 MZA        -0.2250
     19 S1          6.0250    8.7300   23.5160 S.o2      1 MZA         0.0705
     20 O1          5.8850   10.0030   22.8990 O.2       1 MZA        -0.1501
     21 O2          5.1900    8.4420   24.6240 O.2       1 MZA        -0.1501
     22 C15         7.7360    8.4420   23.9470 C.ar      1 MZA         0.1089
     23 C24         8.0600    7.8230   25.1360 C.ar      1 MZA        -0.0273
     24 C16         8.7350    8.8290   23.0500 C.ar      1 MZA        -0.0345
     25 C17        10.0640    8.6260   23.3120 C.ar      1 MZA        -0.0521
     26 C18        10.4300    7.9900   24.5300 C.ar      1 MZA        -0.0173
     27 C19        11.7790    7.7440   24.8570 C.ar      1 MZA        -0.0401
     28 C20        12.0850    7.1440   26.0480 C.ar      1 MZA         0.0411
     29 CL1        13.7460    6.8670   26.4480 Cl        1 MZA        -0.0704
     30 C23         9.4220    7.5760   25.4540 C.ar      1 MZA        -0.0160
     31 C22         9.7840    6.9510   26.6670 C.ar      1 MZA        -0.0536
     32 C21        11.1000    6.7500   26.9480 C.ar      1 MZA        -0.0473
     33 H1          9.7393    3.7277   17.7843 H         1 MZA         0.0453
     34 H2          8.3967    3.2609   16.6860 H         1 MZA         0.0453
     35 H3         10.7009    1.5880   17.7166 H         1 MZA         0.0835
     36 H4         10.1883    1.9001   16.0235 H         1 MZA         0.0835
     37 H5          9.5469   -0.2661   16.6527 H         1 MZA         0.2025
     38 H6          8.1751    0.6371   16.5433 H         1 MZA         0.2025
     39 H7          9.5986   -0.1242   19.0081 H         1 MZA         0.0935
     40 H8          8.0021   -0.7366   18.4578 H         1 MZA         0.0935
     41 H9          7.0676   -0.0318   20.6153 H         1 MZA         0.0472
     42 H10         5.9218    1.8145   21.8078 H         1 MZA         0.0420
     43 H11         4.4859    3.4754   22.4045 H         1 MZA         0.0583
     44 H12         3.9896    3.9900   20.7566 H         1 MZA         0.0583
     45 H13         3.5620    5.5401   23.0492 H         1 MZA         0.0333
     46 H14         3.7336    6.2380   21.4030 H         1 MZA         0.0333
     47 H15         5.7816    6.0413   23.6392 H         1 MZA         0.0759
     48 H16         5.4394    8.0279   21.4322 H         1 MZA         0.1706
     49 H17         7.2780    7.5260   25.8254 H         1 MZA         0.0643
     50 H18         8.4496    9.3043   22.1185 H         1 MZA         0.0637
     51 H19        10.8217    8.9439   22.6049 H         1 MZA         0.0624
     52 H20        12.5680    8.0281   24.1700 H         1 MZA         0.0630
     53 H21         9.0204    6.6341   27.3681 H         1 MZA         0.0623
     54 H22        11.3837    6.2784   27.8819 H         1 MZA         0.0623
@<TRIPOS>BOND
     1    1    2 1  
     2    2    3 ar 
     3    2   11 ar 
     4    3    4 1  
     5    3    8 ar 
     6    4    5 1  
     7    5    6 1  
     8    6    7 1  
     9    7    8 1  
    10    8    9 ar 
    11    9   10 ar 
    12   10   11 ar 
    13   11   12 1  
    14   12   13 am 
    15   12   15 1  
    16   13   14 2  
    17   13   17 1  
    18   15   16 1  
    19   16   17 1  
    20   17   18 1  
    21   18   19 am 
    22   19   20 2  
    23   19   21 2  
    24   19   22 1  
    25   22   23 ar 
    26   22   24 ar 
    27   23   30 ar 
    28   24   25 ar 
    29   25   26 ar 
    30   26   27 ar 
    31   26   30 ar 
    32   27   28 ar 
    33   28   29 1  
    34   28   32 ar 
    35   30   31 ar 
    36   31   32 ar 
    37    4   33 1  
    38    4   34 1  
    39    5   35 1  
    40    5   36 1  
    41    6   37 1  
    42    6   38 1  
    43    7   39 1  
    44    7   40 1  
    45    9   41 1  
    46   10   42 1  
    47   15   43 1  
    48   15   44 1  
    49   16   45 1  
    50   16   46 1  
    51   17   47 1  
    52   18   48 1  
    53   23   49 1  
    54   24   50 1  
    55   25   51 1  
    56   27   52 1  
    57   31   53 1  
    58   32   54 1  
@<TRIPOS>SUBSTRUCTURE
     1 MZA         1

