### 
### Created by X-TOOL on Mon Sep 10 21:13:06 2018
### 

@<TRIPOS>MOLECULE
2y7z_ligand
   60    64     1     0     0
SMALL
GAST_HUCK


@<TRIPOS>ATOM
      1 O3          7.9740    6.3450   21.7500 O.2       1 C0Z        -0.3835
      2 C25         6.8620    5.9370   22.0180 C.2       1 C0Z         0.2260
      3 N2          6.3000    4.7850   21.5610 N.am      1 C0Z        -0.2235
      4 C8          6.9080    3.8350   20.7200 C.ar      1 C0Z         0.0556
      5 C7          7.9710    4.1430   19.8700 C.ar      1 C0Z        -0.0458
      6 C9          6.4340    2.5170   20.7640 C.ar      1 C0Z        -0.0540
      7 C10         6.9990    1.5380   19.9750 C.ar      1 C0Z        -0.0743
      8 C11         8.0450    1.8470   19.1170 C.ar      1 C0Z        -0.0080
      9 C6          8.5370    3.1450   19.0810 C.ar      1 C0Z        -0.0483
     10 C5          9.6720    3.2270   18.0950 C.3       1 C0Z        -0.0181
     11 C4         10.1070    1.7580   17.9070 C.3       1 C0Z         0.0058
     12 C3          8.8150    0.9480   18.1590 C.3       1 C0Z         0.0052
     13 N1          8.1210    0.6090   16.8730 N.4       1 C0Z         0.2423
     14 C2          7.7100    1.8000   16.0970 C.3       1 C0Z        -0.0420
     15 C1          6.8710   -0.1230   17.1640 C.3       1 C0Z        -0.0420
     16 C14         5.9030    6.6160   22.9650 C.3       1 C0Z         0.1342
     17 C13         4.5430    5.9790   22.6000 C.3       1 C0Z         0.0098
     18 C12         4.9560    4.5770   22.1290 C.3       1 C0Z         0.0580
     19 N3          5.9040    8.0660   22.8050 N.am      1 C0Z        -0.2249
     20 S1          6.3110    9.0510   24.0100 S.o2      1 C0Z         0.0705
     21 O1          6.1740   10.3420   23.4470 O.2       1 C0Z        -0.1501
     22 O2          5.5830    8.7370   25.1920 O.2       1 C0Z        -0.1501
     23 C15         8.0200    8.7750   24.3660 C.ar      1 C0Z         0.1089
     24 C24         8.3710    8.1060   25.5100 C.ar      1 C0Z        -0.0273
     25 C23         9.7350    7.8740   25.8010 C.ar      1 C0Z        -0.0160
     26 C18        10.7170    8.3440   24.8760 C.ar      1 C0Z        -0.0173
     27 C17        10.3150    9.0220   23.7060 C.ar      1 C0Z        -0.0521
     28 C16         8.9860    9.2360   23.4670 C.ar      1 C0Z        -0.0345
     29 C22        10.1460    7.1910   26.9700 C.ar      1 C0Z        -0.0536
     30 C21        11.4880    6.9850   27.2020 C.ar      1 C0Z        -0.0473
     31 C20        12.4390    7.4560   26.2930 C.ar      1 C0Z         0.0411
     32 CL1        14.1380    7.1930   26.5720 Cl        1 C0Z        -0.0704
     33 C19        12.0780    8.1140   25.1480 C.ar      1 C0Z        -0.0401
     34 H1          8.3548    5.1557   19.8241 H         1 C0Z         0.0423
     35 H2          5.6137    2.2644   21.4261 H         1 C0Z         0.0431
     36 H3          6.6245    0.5220   20.0250 H         1 C0Z         0.0504
     37 H4         10.4980    3.8312   18.4983 H         1 C0Z         0.0413
     38 H5          9.3324    3.6596   17.1423 H         1 C0Z         0.0413
     39 H6         10.8868    1.4855   18.6334 H         1 C0Z         0.0358
     40 H7         10.4812    1.5889   16.8865 H         1 C0Z         0.0358
     41 H8          9.0540    0.0010   18.6650 H         1 C0Z         0.0973
     42 H9          8.7368    0.0396   16.3139 H         1 C0Z         0.2041
     43 H10         7.2099    1.4797   15.1711 H         1 C0Z         0.0778
     44 H11         8.5981    2.3984   15.8458 H         1 C0Z         0.0778
     45 H12         7.0164    2.4072   16.6971 H         1 C0Z         0.0778
     46 H13         7.1029   -1.0285   17.7440 H         1 C0Z         0.0778
     47 H14         6.3842   -0.4073   16.2195 H         1 C0Z         0.0778
     48 H15         6.1954    0.5217   17.7453 H         1 C0Z         0.0778
     49 H16         6.1653    6.3811   24.0071 H         1 C0Z         0.0759
     50 H17         4.0437    6.5388   21.7954 H         1 C0Z         0.0333
     51 H18         3.8798    5.9259   23.4759 H         1 C0Z         0.0333
     52 H19         4.9910    3.8733   22.9737 H         1 C0Z         0.0585
     53 H20         4.2609    4.1986   21.3651 H         1 C0Z         0.0585
     54 H21         5.6447    8.4583   21.9224 H         1 C0Z         0.1706
     55 H22         7.6037    7.7553   26.1906 H         1 C0Z         0.0643
     56 H23        11.0578    9.3723   22.9984 H         1 C0Z         0.0624
     57 H24         8.6790    9.7673   22.5734 H         1 C0Z         0.0637
     58 H25         9.4089    6.8319   27.6790 H         1 C0Z         0.0623
     59 H26        11.8074    6.4558   28.0925 H         1 C0Z         0.0623
     60 H27        12.8373    8.4562   24.4542 H         1 C0Z         0.0630
@<TRIPOS>BOND
     1    1    2 2  
     2    2    3 am 
     3    2   16 1  
     4    3    4 1  
     5    3   18 1  
     6    4    5 ar 
     7    4    6 ar 
     8    5    9 ar 
     9    6    7 ar 
    10    7    8 ar 
    11    8    9 ar 
    12    8   12 1  
    13    9   10 1  
    14   10   11 1  
    15   11   12 1  
    16   12   13 1  
    17   13   14 1  
    18   13   15 1  
    19   16   17 1  
    20   16   19 1  
    21   17   18 1  
    22   19   20 am 
    23   20   21 2  
    24   20   22 2  
    25   20   23 1  
    26   23   24 ar 
    27   23   28 ar 
    28   24   25 ar 
    29   25   26 ar 
    30   25   29 ar 
    31   26   27 ar 
    32   26   33 ar 
    33   27   28 ar 
    34   29   30 ar 
    35   30   31 ar 
    36   31   32 1  
    37   31   33 ar 
    38    5   34 1  
    39    6   35 1  
    40    7   36 1  
    41   10   37 1  
    42   10   38 1  
    43   11   39 1  
    44   11   40 1  
    45   12   41 1  
    46   13   42 1  
    47   14   43 1  
    48   14   44 1  
    49   14   45 1  
    50   15   46 1  
    51   15   47 1  
    52   15   48 1  
    53   16   49 1  
    54   17   50 1  
    55   17   51 1  
    56   18   52 1  
    57   18   53 1  
    58   19   54 1  
    59   24   55 1  
    60   27   56 1  
    61   28   57 1  
    62   29   58 1  
    63   30   59 1  
    64   33   60 1  
@<TRIPOS>SUBSTRUCTURE
     1 C0Z         1

