### 
### Created by X-TOOL on Mon Sep 10 21:13:06 2018
### 

@<TRIPOS>MOLECULE
2y80_ligand
   60    64     1     0     0
SMALL
GAST_HUCK


@<TRIPOS>ATOM
      1 O3          8.0060    6.6450   21.5840 O.2       1 439        -0.3835
      2 C25         6.9190    6.1390   21.7650 C.2       1 439         0.2260
      3 N2          6.4680    5.0310   21.1370 N.am      1 439        -0.2235
      4 C8          7.2060    4.2390   20.2470 C.ar      1 439         0.0556
      5 C7          7.2350    2.8650   20.4600 C.ar      1 439        -0.0458
      6 C9          7.9060    4.7840   19.1670 C.ar      1 439        -0.0540
      7 C10         8.6240    3.9490   18.3230 C.ar      1 439        -0.0743
      8 C11         8.6450    2.5630   18.5370 C.ar      1 439        -0.0080
      9 C6          7.9500    2.0360   19.6140 C.ar      1 439        -0.0483
     10 C5          8.1230    0.5340   19.6590 C.3       1 439        -0.0181
     11 C4          9.3560    0.2710   18.7710 C.3       1 439         0.0058
     12 C3          9.3430    1.4440   17.7680 C.3       1 439         0.0052
     13 N1          8.7850    1.1270   16.4310 N.4       1 439         0.2423
     14 C2          9.1430    2.2280   15.5200 C.3       1 439        -0.0420
     15 C1          7.3060    1.0410   16.4520 C.3       1 439        -0.0420
     16 C14         5.8750    6.6120   22.7520 C.3       1 439         0.1342
     17 C13         4.5870    5.9320   22.2380 C.3       1 439         0.0098
     18 C12         5.0960    4.6700   21.5230 C.3       1 439         0.0580
     19 N3          5.7720    8.0700   22.7800 N.am      1 439        -0.2249
     20 S1          6.1980    8.9760   24.0460 S.o2      1 439         0.0705
     21 O1          6.0360   10.2770   23.5070 O.2       1 439        -0.1501
     22 O2          5.4830    8.5680   25.2050 O.2       1 439        -0.1501
     23 C15         7.9180    8.7010   24.3740 C.ar      1 439         0.1089
     24 C24         8.2940    8.0600   25.5270 C.ar      1 439        -0.0273
     25 C23         9.6710    7.8260   25.7840 C.ar      1 439        -0.0160
     26 C18        10.6250    8.2650   24.8180 C.ar      1 439        -0.0173
     27 C17        10.1950    8.9060   23.6370 C.ar      1 439        -0.0521
     28 C16         8.8610    9.1260   23.4320 C.ar      1 439        -0.0345
     29 C22        10.1150    7.1770   26.9590 C.ar      1 439        -0.0536
     30 C21        11.4560    6.9710   27.1530 C.ar      1 439        -0.0473
     31 C20        12.3770    7.4020   26.2030 C.ar      1 439         0.0411
     32 CL1        14.0840    7.1400   26.4370 Cl        1 439        -0.0704
     33 C19        11.9920    8.0280   25.0570 C.ar      1 439        -0.0401
     34 H1          6.6924    2.4397   21.2965 H         1 439         0.0423
     35 H2          7.8881    5.8533   18.9897 H         1 439         0.0431
     36 H3          9.1741    4.3719   17.4901 H         1 439         0.0504
     37 H4          7.2350    0.0263   19.2545 H         1 439         0.0413
     38 H5          8.3035    0.1923   20.6889 H         1 439         0.0413
     39 H6          9.2645   -0.6926   18.2484 H         1 439         0.0358
     40 H7         10.2788    0.2773   19.3696 H         1 439         0.0358
     41 H8         10.3836    1.7531   17.5903 H         1 439         0.0973
     42 H9          9.1712    0.2559   16.1021 H         1 439         0.2041
     43 H10         8.7411    2.0197   14.5175 H         1 439         0.0778
     44 H11        10.2380    2.3169   15.4648 H         1 439         0.0778
     45 H12         8.7172    3.1694   15.8974 H         1 439         0.0778
     46 H13         6.9956    0.2272   17.1238 H         1 439         0.0778
     47 H14         6.9360    0.8390   15.4360 H         1 439         0.0778
     48 H15         6.8884    1.9929   16.8119 H         1 439         0.0778
     49 H16         6.1151    6.2588   23.7657 H         1 439         0.0759
     50 H17         4.0501    6.5889   21.5378 H         1 439         0.0333
     51 H18         3.9235    5.6673   23.0745 H         1 439         0.0333
     52 H19         5.0923    3.8041   22.2013 H         1 439         0.0585
     53 H20         4.4837    4.4447   20.6374 H         1 439         0.0585
     54 H21         5.4170    8.5328   21.9677 H         1 439         0.1706
     55 H22         7.5439    7.7337   26.2383 H         1 439         0.0643
     56 H23        10.9191    9.2228   22.8951 H         1 439         0.0624
     57 H24         8.5316    9.6336   22.5326 H         1 439         0.0637
     58 H25         9.3991    6.8444   27.7019 H         1 439         0.0623
     59 H26        11.8007    6.4701   28.0504 H         1 439         0.0623
     60 H27        12.7342    8.3424   24.3322 H         1 439         0.0630
@<TRIPOS>BOND
     1    1    2 2  
     2    2    3 am 
     3    2   16 1  
     4    3    4 1  
     5    3   18 1  
     6    4    5 ar 
     7    4    6 ar 
     8    5    9 ar 
     9    6    7 ar 
    10    7    8 ar 
    11    8    9 ar 
    12    8   12 1  
    13    9   10 1  
    14   10   11 1  
    15   11   12 1  
    16   12   13 1  
    17   13   14 1  
    18   13   15 1  
    19   16   17 1  
    20   16   19 1  
    21   17   18 1  
    22   19   20 am 
    23   20   21 2  
    24   20   22 2  
    25   20   23 1  
    26   23   24 ar 
    27   23   28 ar 
    28   24   25 ar 
    29   25   26 ar 
    30   25   29 ar 
    31   26   27 ar 
    32   26   33 ar 
    33   27   28 ar 
    34   29   30 ar 
    35   30   31 ar 
    36   31   32 1  
    37   31   33 ar 
    38    5   34 1  
    39    6   35 1  
    40    7   36 1  
    41   10   37 1  
    42   10   38 1  
    43   11   39 1  
    44   11   40 1  
    45   12   41 1  
    46   13   42 1  
    47   14   43 1  
    48   14   44 1  
    49   14   45 1  
    50   15   46 1  
    51   15   47 1  
    52   15   48 1  
    53   16   49 1  
    54   17   50 1  
    55   17   51 1  
    56   18   52 1  
    57   18   53 1  
    58   19   54 1  
    59   24   55 1  
    60   27   56 1  
    61   28   57 1  
    62   29   58 1  
    63   30   59 1  
    64   33   60 1  
@<TRIPOS>SUBSTRUCTURE
     1 439         1

