### 
### Created by X-TOOL on Mon Sep 10 21:13:06 2018
### 

@<TRIPOS>MOLECULE
2y81_ligand
   57    61     1     0     0
SMALL
GAST_HUCK


@<TRIPOS>ATOM
      1 F1          6.5580    2.1280   21.7640 F         1 931        -0.1953
      2 C7          7.1050    2.7690   20.7220 C.ar      1 931         0.1460
      3 C6          7.7510    1.9970   19.7680 C.ar      1 931        -0.0342
      4 C1          8.6430   -0.3770   16.7140 C.3       1 931        -0.0319
      5 N1          8.1050    0.9760   16.8300 N.4       1 931         0.2393
      6 C11         8.3280    2.6230   18.6590 C.ar      1 931        -0.0120
      7 C10         8.2410    4.0190   18.5510 C.ar      1 931        -0.0720
      8 C9          7.5870    4.7840   19.5220 C.ar      1 931        -0.0484
      9 C8          6.9980    4.1590   20.6290 C.ar      1 931         0.0963
     10 N2          6.3100    4.8860   21.6570 N.am      1 931        -0.2214
     11 C25         6.8270    5.9660   22.2800 C.2       1 931         0.2252
     12 O3          7.9510    6.4300   22.0890 O.2       1 931        -0.3840
     13 C12         4.9930    4.5170   22.1910 C.3       1 931         0.0574
     14 C13         4.5210    5.7620   22.9240 C.3       1 931         0.0097
     15 C14         5.8000    6.5060   23.2780 C.3       1 931         0.1340
     16 N3          5.6520    7.9460   23.2330 N.am      1 931        -0.2250
     17 S1          6.1150    8.8680   24.4610 S.o2      1 931         0.0705
     18 C70        10.1700    0.9170   18.1050 C.3       1 931         0.0030
     19 O2          5.4170    8.4920   25.6450 O.2       1 931        -0.1501
     20 O1          5.9190   10.1660   23.9000 O.2       1 931        -0.1501
     21 C15         7.8520    8.6210   24.7410 C.ar      1 931         0.1089
     22 C80        10.0110   -0.4160   17.3910 C.3       1 931        -0.0059
     23 C24         8.2790    7.9230   25.8430 C.ar      1 931        -0.0273
     24 C16         8.7650    9.1440   23.8100 C.ar      1 931        -0.0345
     25 C17        10.1140    8.9660   24.0030 C.ar      1 931        -0.0521
     26 C18        10.5810    8.2530   25.1330 C.ar      1 931        -0.0173
     27 C19        11.9530    8.0570   25.3430 C.ar      1 931        -0.0401
     28 C20        12.3780    7.3730   26.4560 C.ar      1 931         0.0411
     29 CL1        14.0900    7.1520   26.6590 Cl        1 931        -0.0704
     30 C23         9.6660    7.7250   26.0730 C.ar      1 931        -0.0160
     31 C22        10.1480    7.0250   27.2100 C.ar      1 931        -0.0536
     32 C21        11.4960    6.8490   27.3930 C.ar      1 931        -0.0473
     33 C28         9.0420    1.8170   17.5900 C.3       1 931         0.0038
     34 H1          7.8079    0.9204   19.8809 H         1 931         0.0507
     35 H2          8.7471   -0.6448   15.6522 H         1 931         0.0814
     36 H3          7.9650   -1.0891   17.2071 H         1 931         0.0814
     37 H4          7.2186    0.9445   17.3089 H         1 931         0.2028
     38 H5          7.9759    1.3656   15.9094 H         1 931         0.2028
     39 H6          8.6897    4.5147   17.6978 H         1 931         0.0488
     40 H7          7.5357    5.8618   19.4180 H         1 931         0.0474
     41 H8          5.0779    3.6663   22.8832 H         1 931         0.0583
     42 H9          4.3007    4.2590   21.3761 H         1 931         0.0583
     43 H10         3.9654    5.4901   23.8336 H         1 931         0.0333
     44 H11         3.8814    6.3767   22.2736 H         1 931         0.0333
     45 H12         6.1084    6.2368   24.2990 H         1 931         0.0759
     46 H13         5.2538    8.3733   22.4213 H         1 931         0.1706
     47 H14        11.1487    1.3607   17.8701 H         1 931         0.0341
     48 H15        10.0812    0.7796   19.1928 H         1 931         0.0341
     49 H16        10.8045   -0.5431   16.6399 H         1 931         0.0320
     50 H17        10.0549   -1.2435   18.1144 H         1 931         0.0320
     51 H18         7.5537    7.5209   26.5411 H         1 931         0.0643
     52 H19         8.4066    9.6861   22.9424 H         1 931         0.0637
     53 H20        10.8212    9.3722   23.2889 H         1 931         0.0624
     54 H21        12.6742    8.4428   24.6316 H         1 931         0.0630
     55 H22         9.4481    6.6280   27.9364 H         1 931         0.0623
     56 H23        11.8678    6.3089   28.2562 H         1 931         0.0623
     57 H24         9.4909    2.5419   16.8950 H         1 931         0.0986
@<TRIPOS>BOND
     1    2    1 1  
     2    3    2 ar 
     3    2    9 ar 
     4    6    3 ar 
     5    5    4 1  
     6    4   22 1  
     7   33    5 1  
     8    6    7 ar 
     9    6   33 1  
    10    7    8 ar 
    11    8    9 ar 
    12    9   10 1  
    13   10   11 am 
    14   10   13 1  
    15   11   12 2  
    16   11   15 1  
    17   13   14 1  
    18   14   15 1  
    19   15   16 1  
    20   16   17 am 
    21   17   19 2  
    22   17   20 2  
    23   17   21 1  
    24   22   18 1  
    25   18   33 1  
    26   21   23 ar 
    27   21   24 ar 
    28   23   30 ar 
    29   24   25 ar 
    30   25   26 ar 
    31   26   27 ar 
    32   26   30 ar 
    33   27   28 ar 
    34   28   29 1  
    35   28   32 ar 
    36   30   31 ar 
    37   31   32 ar 
    38    3   34 1  
    39    4   35 1  
    40    4   36 1  
    41    5   37 1  
    42    5   38 1  
    43    7   39 1  
    44    8   40 1  
    45   13   41 1  
    46   13   42 1  
    47   14   43 1  
    48   14   44 1  
    49   15   45 1  
    50   16   46 1  
    51   18   47 1  
    52   18   48 1  
    53   22   49 1  
    54   22   50 1  
    55   23   51 1  
    56   24   52 1  
    57   25   53 1  
    58   27   54 1  
    59   31   55 1  
    60   32   56 1  
    61   33   57 1  
@<TRIPOS>SUBSTRUCTURE
     1 931         1

