### 
### Created by X-TOOL on Mon Sep 10 21:13:06 2018
### 

@<TRIPOS>MOLECULE
2y82_ligand
   57    61     1     0     0
SMALL
GAST_HUCK


@<TRIPOS>ATOM
      1 F2          7.7360    5.5870   19.5210 F         1 930        -0.1953
      2 C21         7.6020    4.3080   19.8650 C.ar      1 930         0.1460
      3 C15         6.8360    3.9470   20.9780 C.ar      1 930         0.0963
      4 C22         6.7570    2.5790   21.2810 C.ar      1 930        -0.0484
      5 C26         7.4110    1.6370   20.4870 C.ar      1 930        -0.0720
      6 C27         8.1680    2.0200   19.3810 C.ar      1 930        -0.0120
      7 C28         8.8430    0.9750   18.5220 C.3       1 930         0.0038
      8 C7         10.1000    1.4860   17.8060 C.3       1 930         0.0030
      9 C11         9.6210    1.8670   16.4020 C.3       1 930        -0.0059
     10 C8          8.1870    1.3290   16.2860 C.3       1 930        -0.0319
     11 N4          7.9630    0.4720   17.4550 N.4       1 930         0.2393
     12 C24         8.2510    3.3830   19.0720 C.ar      1 930        -0.0342
     13 N2          6.1580    4.8930   21.8160 N.am      1 930        -0.2214
     14 C50         6.7280    6.0210   22.3140 C.2       1 930         0.2252
     15 O3          7.8450    6.4440   22.0590 O.2       1 930        -0.3840
     16 C12         5.7370    6.6930   23.2730 C.3       1 930         0.1340
     17 C13         4.4100    6.0840   22.8520 C.3       1 930         0.0097
     18 C14         4.7750    4.7340   22.2470 C.3       1 930         0.0574
     19 N1          5.7660    8.1440   23.1460 N.am      1 930        -0.2250
     20 S1          6.2570    9.1120   24.3470 S.o2      1 930         0.0705
     21 O2          6.2370   10.3900   23.7210 O.2       1 930        -0.1501
     22 O1          5.5100    8.8960   25.5530 O.2       1 930        -0.1501
     23 C6          7.9560    8.7830   24.7060 C.ar      1 930         0.1089
     24 C16         8.8890    9.2380   23.7590 C.ar      1 930        -0.0345
     25 C18        10.2460    9.0280   23.9970 C.ar      1 930        -0.0521
     26 C17        10.6470    8.3690   25.1760 C.ar      1 930        -0.0173
     27 C4          9.6940    7.9120   26.1250 C.ar      1 930        -0.0160
     28 C5          8.3180    8.1390   25.8670 C.ar      1 930        -0.0273
     29 C9         12.0040    8.1520   25.4120 C.ar      1 930        -0.0401
     30 C1         12.3950    7.5090   26.5810 C.ar      1 930         0.0411
     31 CL1        14.1010    7.2880   26.7970 Cl        1 930        -0.0704
     32 C2         11.4610    7.0520   27.5330 C.ar      1 930        -0.0473
     33 C3         10.1230    7.2560   27.3090 C.ar      1 930        -0.0536
     34 H1          6.1825    2.2514   22.1399 H         1 930         0.0474
     35 H2          7.3288    0.5850   20.7352 H         1 930         0.0488
     36 H3          9.1243    0.1391   19.1794 H         1 930         0.0986
     37 H4         10.8645    0.6968   17.7540 H         1 930         0.0341
     38 H5         10.5130    2.3629   18.3260 H         1 930         0.0341
     39 H6         10.2656    1.4055   15.6394 H         1 930         0.0320
     40 H7          9.6308    2.9599   16.2778 H         1 930         0.0320
     41 H8          8.0748    0.7449   15.3607 H         1 930         0.0814
     42 H9          7.4685    2.1619   16.2833 H         1 930         0.0814
     43 H10         6.9992    0.5253   17.7454 H         1 930         0.2028
     44 H11         8.1952   -0.4838   17.2347 H         1 930         0.2028
     45 H12         8.8236    3.7112   18.2120 H         1 930         0.0507
     46 H13         5.9658    6.4282   24.3158 H         1 930         0.0759
     47 H14         3.9109    6.7204   22.1064 H         1 930         0.0333
     48 H15         3.7505    5.9527   23.7225 H         1 930         0.0333
     49 H16         4.6907    3.9350   22.9983 H         1 930         0.0583
     50 H17         4.1245    4.5024   21.3908 H         1 930         0.0583
     51 H18         5.4715    8.5576   22.2845 H         1 930         0.1706
     52 H19         8.5589    9.7437   22.8588 H         1 930         0.0637
     53 H20        10.9860    9.3685   23.2818 H         1 930         0.0624
     54 H21         7.5637    7.8105   26.5729 H         1 930         0.0643
     55 H22        12.7453    8.4807   24.6926 H         1 930         0.0630
     56 H23        11.7960    6.5456   28.4310 H         1 930         0.0623
     57 H24         9.3936    6.9166   28.0355 H         1 930         0.0623
@<TRIPOS>BOND
     1    1    2 1  
     2    2    3 ar 
     3    2   12 ar 
     4    3    4 ar 
     5    3   13 1  
     6    4    5 ar 
     7    5    6 ar 
     8    6    7 1  
     9    6   12 ar 
    10    7    8 1  
    11    7   11 1  
    12    8    9 1  
    13    9   10 1  
    14   10   11 1  
    15   13   14 am 
    16   13   18 1  
    17   14   15 2  
    18   14   16 1  
    19   16   17 1  
    20   16   19 1  
    21   17   18 1  
    22   19   20 am 
    23   20   21 2  
    24   20   22 2  
    25   20   23 1  
    26   23   24 ar 
    27   23   28 ar 
    28   24   25 ar 
    29   25   26 ar 
    30   26   27 ar 
    31   26   29 ar 
    32   27   28 ar 
    33   27   33 ar 
    34   29   30 ar 
    35   30   31 1  
    36   30   32 ar 
    37   32   33 ar 
    38    4   34 1  
    39    5   35 1  
    40    7   36 1  
    41    8   37 1  
    42    8   38 1  
    43    9   39 1  
    44    9   40 1  
    45   10   41 1  
    46   10   42 1  
    47   11   43 1  
    48   11   44 1  
    49   12   45 1  
    50   16   46 1  
    51   17   47 1  
    52   17   48 1  
    53   18   49 1  
    54   18   50 1  
    55   19   51 1  
    56   24   52 1  
    57   25   53 1  
    58   28   54 1  
    59   29   55 1  
    60   32   56 1  
    61   33   57 1  
@<TRIPOS>SUBSTRUCTURE
     1 930         1

