### 
### Created by X-TOOL on Mon Sep 10 21:13:10 2018
### 

@<TRIPOS>MOLECULE
2y8c_ligand
   69    72     1     0     0
SMALL
GAST_HUCK


@<TRIPOS>ATOM
      1 O4         -2.0330   25.4040   -0.9160 O.2       1 DUQ        -0.4124
      2 C4         -3.1920   25.4130   -0.4620 C.2       1 DUQ         0.1822
      3 N3         -4.0470   24.3630   -0.6210 N.am      1 DUQ        -0.1866
      4 C2         -5.2950   24.4280   -0.1040 C.2       1 DUQ         0.3307
      5 O2         -6.1410   23.5020   -0.1760 O.2       1 DUQ        -0.3815
      6 C5         -3.5810   26.5450    0.2040 C.2       1 DUQ         0.0061
      7 C6         -4.8910   26.6240    0.7080 C.2       1 DUQ         0.0564
      8 N1         -5.7180   25.5780    0.5790 N.am      1 DUQ        -0.1869
      9 C1'        -7.1290   25.6180    1.0460 C.3       1 DUQ         0.0856
     10 C1         -7.8340   26.8220    0.3880 C.3       1 DUQ         0.0783
     11 C38        -9.2830   27.0750    0.7800 C.2       1 DUQ         0.1819
     12 N34       -10.3300   26.6260    0.0970 N.am      1 DUQ        -0.2845
     13 C39       -11.7300   26.8630    0.4800 C.3       1 DUQ         0.0540
     14 C40       -12.5360   25.9670   -0.4560 C.3       1 DUQ         0.0643
     15 O37       -12.5900   26.6450   -1.7310 O.3       1 DUQ        -0.3930
     16 O38        -9.4240   27.7810    1.7290 O.2       1 DUQ        -0.3967
     17 C4'        -7.6240   26.8950   -1.0970 C.3       1 DUQ        -0.0088
     18 C5'        -8.3430   28.0280   -1.8470 C.3       1 DUQ         0.0312
     19 O1         -9.0220   27.2660   -2.8810 O.3       1 DUQ        -0.4369
     20 C17        -8.4630   27.2000   -4.2170 C.3       1 DUQ         0.0691
     21 C30        -9.2720   26.0900   -4.8620 C.ar      1 DUQ        -0.0570
     22 C31       -10.4610   25.6460   -4.2450 C.ar      1 DUQ        -0.0541
     23 C32       -11.1880   24.5950   -4.8470 C.ar      1 DUQ        -0.0434
     24 C33       -10.8010   24.0140   -6.0580 C.ar      1 DUQ        -0.0437
     25 C34        -9.6320   24.4860   -6.6780 C.ar      1 DUQ        -0.0434
     26 C35        -8.9160   25.5180   -6.0860 C.ar      1 DUQ        -0.0541
     27 C24        -8.8610   28.4920   -4.9180 C.ar      1 DUQ        -0.0570
     28 C25        -9.8900   29.2920   -4.3520 C.ar      1 DUQ        -0.0541
     29 C26       -10.3020   30.4900   -4.9780 C.ar      1 DUQ        -0.0434
     30 C27        -9.7100   30.8580   -6.2000 C.ar      1 DUQ        -0.0437
     31 C28        -8.7000   30.0650   -6.7890 C.ar      1 DUQ        -0.0434
     32 C29        -8.2770   28.8830   -6.1440 C.ar      1 DUQ        -0.0541
     33 C18        -6.9310   26.9170   -4.1300 C.ar      1 DUQ        -0.0570
     34 C19        -6.4500   25.6250   -3.8040 C.ar      1 DUQ        -0.0541
     35 C20        -5.0400   25.3500   -3.6600 C.ar      1 DUQ        -0.0434
     36 C21        -4.1280   26.3820   -3.8750 C.ar      1 DUQ        -0.0437
     37 C22        -4.5850   27.6880   -4.1960 C.ar      1 DUQ        -0.0434
     38 C23        -5.9690   27.9430   -4.3140 C.ar      1 DUQ        -0.0541
     39 H1         -3.7522   23.5471   -1.1185 H         1 DUQ         0.2259
     40 H2         -2.8856   27.3718    0.3411 H         1 DUQ         0.0258
     41 H3         -5.2324   27.5326    1.2017 H         1 DUQ         0.1177
     42 H4         -7.1538   25.7274    2.1403 H         1 DUQ         0.0644
     43 H5         -7.6404   24.6874    0.7588 H         1 DUQ         0.0644
     44 H6         -7.2946   27.6927    0.7892 H         1 DUQ         0.0566
     45 H7        -10.1551   26.0927   -0.7306 H         1 DUQ         0.1851
     46 H8        -11.9997   27.9196    0.3354 H         1 DUQ         0.0542
     47 H9        -11.8994   26.5817    1.5298 H         1 DUQ         0.0542
     48 H10       -13.5520   25.8211   -0.0604 H         1 DUQ         0.0577
     49 H11       -12.0416   24.9906   -0.5660 H         1 DUQ         0.0577
     50 H12       -13.0856   26.1189   -2.3474 H         1 DUQ         0.2095
     51 H13        -7.9655   25.9423   -1.5280 H         1 DUQ         0.0315
     52 H14        -6.5447   27.0118   -1.2745 H         1 DUQ         0.0315
     53 H15        -7.6307   28.7490   -2.2745 H         1 DUQ         0.0543
     54 H16        -9.0557   28.5576   -1.1977 H         1 DUQ         0.0543
     55 H17       -10.8100   26.1030   -3.3261 H         1 DUQ         0.0761
     56 H18       -12.0786   24.2255   -4.3517 H         1 DUQ         0.0669
     57 H19       -11.3873   23.2203   -6.5068 H         1 DUQ         0.0772
     58 H20        -9.2921   24.0486   -7.6098 H         1 DUQ         0.0669
     59 H21        -8.0392   25.8979   -6.5978 H         1 DUQ         0.0761
     60 H22       -10.3646   28.9795   -3.4289 H         1 DUQ         0.0761
     61 H23       -11.0620   31.1154   -4.5239 H         1 DUQ         0.0669
     62 H24       -10.0341   31.7648   -6.6978 H         1 DUQ         0.0772
     63 H25        -8.2527   30.3625   -7.7305 H         1 DUQ         0.0669
     64 H26        -7.5008   28.2725   -6.5910 H         1 DUQ         0.0761
     65 H27        -7.1610   24.8198   -3.6585 H         1 DUQ         0.0761
     66 H28        -4.6965   24.3581   -3.3894 H         1 DUQ         0.0669
     67 H29        -3.0646   26.1869   -3.7968 H         1 DUQ         0.0772
     68 H30        -3.8713   28.4891   -4.3504 H         1 DUQ         0.0669
     69 H31        -6.3040   28.9464   -4.5508 H         1 DUQ         0.0761
@<TRIPOS>BOND
     1    1    2 2  
     2    2    3 am 
     3    2    6 1  
     4    3    4 am 
     5    4    5 2  
     6    4    8 am 
     7    6    7 2  
     8    7    8 1  
     9    8    9 1  
    10    9   10 1  
    11   10   11 1  
    12   10   17 1  
    13   11   12 am 
    14   11   16 2  
    15   12   13 1  
    16   13   14 1  
    17   14   15 1  
    18   17   18 1  
    19   18   19 1  
    20   19   20 1  
    21   20   21 1  
    22   20   27 1  
    23   20   33 1  
    24   21   22 ar 
    25   21   26 ar 
    26   22   23 ar 
    27   23   24 ar 
    28   24   25 ar 
    29   25   26 ar 
    30   27   28 ar 
    31   27   32 ar 
    32   28   29 ar 
    33   29   30 ar 
    34   30   31 ar 
    35   31   32 ar 
    36   33   34 ar 
    37   33   38 ar 
    38   34   35 ar 
    39   35   36 ar 
    40   36   37 ar 
    41   37   38 ar 
    42    3   39 1  
    43    6   40 1  
    44    7   41 1  
    45    9   42 1  
    46    9   43 1  
    47   10   44 1  
    48   12   45 1  
    49   13   46 1  
    50   13   47 1  
    51   14   48 1  
    52   14   49 1  
    53   15   50 1  
    54   17   51 1  
    55   17   52 1  
    56   18   53 1  
    57   18   54 1  
    58   22   55 1  
    59   23   56 1  
    60   24   57 1  
    61   25   58 1  
    62   26   59 1  
    63   28   60 1  
    64   29   61 1  
    65   30   62 1  
    66   31   63 1  
    67   32   64 1  
    68   34   65 1  
    69   35   66 1  
    70   36   67 1  
    71   37   68 1  
    72   38   69 1  
@<TRIPOS>SUBSTRUCTURE
     1 DUQ         1

