### 
### Created by X-TOOL on Fri Sep 26 17:34:50 2014
### 

@<TRIPOS>MOLECULE
2y9g_ligand
   45    46     1     0     0
SMALL
GAST_HUCK


@<TRIPOS>ATOM
      1 C1         -0.4550    4.3450   -1.5860 C.3       1 LBT         0.1884
      2 C2         -1.1680    4.8160   -2.8590 C.3       1 LBT         0.1341
      3 C3         -0.2080    4.7700   -4.0440 C.3       1 LBT         0.1141
      4 C4          1.0460    5.5680   -3.6660 C.3       1 LBT         0.1119
      5 C5          1.6850    4.9250   -2.3880 C.3       1 LBT         0.1130
      6 C6          2.9900    5.6410   -1.9340 C.3       1 LBT         0.0730
      7 O1         -1.2810    4.7030   -0.4970 O.3       1 LBT        -0.3401
      8 O2         -2.3480    4.0320   -3.1730 O.3       1 LBT        -0.3841
      9 O3         -0.8830    5.4030   -5.1900 O.3       1 LBT        -0.3864
     10 O4          0.6990    6.9800   -3.3230 O.3       1 LBT        -0.3865
     11 O5          0.6910    5.1610   -1.3660 O.3       1 LBT        -0.3405
     12 O6          4.0620    5.5140   -2.9380 O.3       1 LBT        -0.3924
     13 C1'        -2.1770    3.3660    3.3540 C.3       1 LBT         0.1854
     14 C2'        -1.0020    4.3560    3.2630 C.3       1 LBT         0.1339
     15 C3'        -0.9880    4.9870    1.8910 C.3       1 LBT         0.1144
     16 C4'        -1.0870    3.9770    0.7320 C.3       1 LBT         0.1184
     17 C5'        -2.3030    3.0410    0.9470 C.3       1 LBT         0.1134
     18 C6'        -2.3330    1.8410    0.0260 C.3       1 LBT         0.0730
     19 O1'        -3.4240    4.0130    3.4310 O.3       1 LBT        -0.3649
     20 O2'        -1.1710    5.3890    4.2790 O.3       1 LBT        -0.3841
     21 O3'         0.1480    5.8690    1.8230 O.3       1 LBT        -0.3864
     22 O5'        -2.2200    2.4430    2.3040 O.3       1 LBT        -0.3407
     23 O6'        -1.0100    1.2180   -0.0600 O.3       1 LBT        -0.3924
     24 H1         -0.2174    3.2715   -1.6205 H         1 LBT         0.0938
     25 H2         -1.4835    5.8581   -2.7026 H         1 LBT         0.0671
     26 H3          0.0611    3.7314   -4.2865 H         1 LBT         0.0648
     27 H4          1.7608    5.5503   -4.5019 H         1 LBT         0.0647
     28 H5          1.8751    3.8525   -2.5414 H         1 LBT         0.0647
     29 H6          3.3319    5.1927   -0.9895 H         1 LBT         0.0584
     30 H7          2.7743    6.7081   -1.7765 H         1 LBT         0.0584
     31 H8         -2.7717    4.3938   -3.9424 H         1 LBT         0.2101
     32 H9         -1.6577    4.9018   -5.4162 H         1 LBT         0.2100
     33 H10         0.0821    6.9868   -2.6006 H         1 LBT         0.2100
     34 H11         4.8400    5.9617   -2.6272 H         1 LBT         0.2095
     35 H12        -2.0380    2.7980    4.2857 H         1 LBT         0.0935
     36 H13        -0.0546    3.8234    3.4327 H         1 LBT         0.0671
     37 H14        -1.8873    5.6160    1.8161 H         1 LBT         0.0648
     38 H15        -0.1636    3.3818    0.6772 H         1 LBT         0.0651
     39 H16        -3.2274    3.6257    0.8303 H         1 LBT         0.0647
     40 H17        -2.6451    2.1646   -0.9779 H         1 LBT         0.0584
     41 H18        -3.0531    1.1059    0.4147 H         1 LBT         0.0584
     42 H19        -3.4089    4.6438    4.1412 H         1 LBT         0.2126
     43 H20        -1.9922    5.8438    4.1330 H         1 LBT         0.2101
     44 H21         0.1362    6.4569    2.5692 H         1 LBT         0.2100
     45 H22        -0.7380    0.9342    0.8049 H         1 LBT         0.2095
@<TRIPOS>BOND
     1    1    2 1  
     2    7    1 1  
     3    1   11 1  
     4    2    3 1  
     5    2    8 1  
     6    3    4 1  
     7    3    9 1  
     8    5    4 1  
     9    4   10 1  
    10    5    6 1  
    11   11    5 1  
    12    6   12 1  
    13   16    7 1  
    14   14   13 1  
    15   13   19 1  
    16   13   22 1  
    17   15   14 1  
    18   14   20 1  
    19   15   16 1  
    20   15   21 1  
    21   16   17 1  
    22   17   18 1  
    23   17   22 1  
    24   18   23 1  
    25    1   24 1  
    26    2   25 1  
    27    3   26 1  
    28    4   27 1  
    29    5   28 1  
    30    6   29 1  
    31    6   30 1  
    32    8   31 1  
    33    9   32 1  
    34   10   33 1  
    35   12   34 1  
    36   13   35 1  
    37   14   36 1  
    38   15   37 1  
    39   16   38 1  
    40   17   39 1  
    41   18   40 1  
    42   18   41 1  
    43   19   42 1  
    44   20   43 1  
    45   21   44 1  
    46   23   45 1  
@<TRIPOS>SUBSTRUCTURE
     1 LBT         1

