### 
### Created by X-TOOL on Mon Sep 10 21:13:06 2018
### 

@<TRIPOS>MOLECULE
2ya6_ligand
   36    36     1     0     0
SMALL
GAST_HUCK


@<TRIPOS>ATOM
      1 C1         14.7300  -20.0150   45.0510 C.2       1 DAN         0.0809
      2 C2         14.8800  -19.3650   43.6560 C.2       1 DAN         0.1088
      3 C3         13.7730  -18.9950   42.8870 C.2       1 DAN        -0.0276
      4 C4         13.9910  -18.3190   41.5050 C.3       1 DAN         0.1003
      5 C5         15.3440  -18.7190   40.9140 C.3       1 DAN         0.1064
      6 C6         16.4470  -18.4740   41.9720 C.3       1 DAN         0.1321
      7 C7         17.8730  -18.8580   41.5400 C.3       1 DAN         0.1154
      8 C8         18.9180  -18.7430   42.6540 C.3       1 DAN         0.1068
      9 C9         20.2950  -19.1650   42.1230 C.3       1 DAN         0.0727
     10 C10        16.2050  -18.4270   38.6370 C.2       1 DAN         0.1734
     11 C11        16.3490  -17.4660   37.4380 C.3       1 DAN         0.0257
     12 N5         15.5830  -17.9210   39.6870 N.am      1 DAN        -0.2770
     13 O1A        13.5970  -20.2510   45.5230 O.co2     1 DAN        -0.5623
     14 O1B        15.7900  -20.2480   45.6440 O.co2     1 DAN        -0.5623
     15 O4         12.8860  -18.5430   40.6180 O.3       1 DAN        -0.3807
     16 O6         16.1630  -19.1910   43.2170 O.3       1 DAN        -0.3189
     17 O7         17.8740  -20.1850   41.0540 O.3       1 DAN        -0.3861
     18 O8         18.9640  -17.3940   43.1280 O.3       1 DAN        -0.3869
     19 O9         21.2820  -19.0410   43.1470 O.3       1 DAN        -0.3924
     20 O10        16.6830  -19.5700   38.6050 O.2       1 DAN        -0.3974
     21 H1         12.7644  -19.1793   43.2540 H         1 DAN         0.0480
     22 H2         14.0327  -17.2340   41.6812 H         1 DAN         0.0740
     23 H3         15.3300  -19.7870   40.6511 H         1 DAN         0.0632
     24 H4         16.4454  -17.3951   42.1864 H         1 DAN         0.0697
     25 H5         18.1708  -18.1809   40.7259 H         1 DAN         0.0650
     26 H6         18.6351  -19.4067   43.4843 H         1 DAN         0.0643
     27 H7         20.5696  -18.5206   41.2749 H         1 DAN         0.0584
     28 H8         20.2493  -20.2119   41.7884 H         1 DAN         0.0584
     29 H9         16.8769  -17.9774   36.6196 H         1 DAN         0.0467
     30 H10        16.9218  -16.5788   37.7459 H         1 DAN         0.0467
     31 H11        15.3510  -17.1569   37.0939 H         1 DAN         0.0467
     32 H12        15.2645  -16.9737   39.6535 H         1 DAN         0.1858
     33 H13        13.0102  -18.0353   39.8248 H         1 DAN         0.2127
     34 H14        17.6587  -20.7806   41.7622 H         1 DAN         0.2100
     35 H15        19.6021  -17.3273   43.8287 H         1 DAN         0.2100
     36 H16        21.3248  -18.1371   43.4362 H         1 DAN         0.2095
@<TRIPOS>BOND
     1    2    1 1  
     2    1   13 ar 
     3    1   14 ar 
     4    3    2 2  
     5   16    2 1  
     6    4    3 1  
     7    5    4 1  
     8    4   15 1  
     9    5    6 1  
    10   12    5 1  
    11    6    7 1  
    12    6   16 1  
    13    7    8 1  
    14    7   17 1  
    15    8    9 1  
    16    8   18 1  
    17    9   19 1  
    18   10   11 1  
    19   10   12 am 
    20   10   20 2  
    21    3   21 1  
    22    4   22 1  
    23    5   23 1  
    24    6   24 1  
    25    7   25 1  
    26    8   26 1  
    27    9   27 1  
    28    9   28 1  
    29   11   29 1  
    30   11   30 1  
    31   11   31 1  
    32   12   32 1  
    33   15   33 1  
    34   17   34 1  
    35   18   35 1  
    36   19   36 1  
@<TRIPOS>SUBSTRUCTURE
     1 DAN         1

