### 
### Created by X-TOOL on Mon Sep 10 21:13:07 2018
### 

@<TRIPOS>MOLECULE
2ya7_ligand
   43    43     1     0     0
SMALL
GAST_HUCK


@<TRIPOS>ATOM
      1 C1         20.2480  -30.4970   15.6440 C.2       1 ZMR         0.0810
      2 O1A        20.3370  -31.5390   14.9830 O.co2     1 ZMR        -0.5623
      3 O1B        20.4640  -29.3550   15.2030 O.co2     1 ZMR        -0.5623
      4 C2         19.8220  -30.6580   17.0990 C.2       1 ZMR         0.1099
      5 C3         19.6530  -29.5290   17.8940 C.2       1 ZMR        -0.0168
      6 C4         19.2710  -29.5820   19.3860 C.3       1 ZMR         0.1182
      7 C5         19.3310  -31.0240   19.9230 C.3       1 ZMR         0.1162
      8 N5         18.5020  -31.2130   21.1440 N.am      1 ZMR        -0.2758
      9 C10        19.0090  -31.8720   22.1810 C.2       1 ZMR         0.1735
     10 O10        20.1490  -32.3540   22.2010 O.2       1 ZMR        -0.3974
     11 C11        18.0620  -32.0400   23.3790 C.3       1 ZMR         0.0257
     12 C6         18.9340  -32.0700   18.8450 C.3       1 ZMR         0.1332
     13 O6         19.6430  -31.9260   17.5500 O.3       1 ZMR        -0.3188
     14 C7         19.2060  -33.5350   19.2550 C.3       1 ZMR         0.1155
     15 O7         20.5830  -33.6650   19.6910 O.3       1 ZMR        -0.3861
     16 C8         18.9410  -34.5370   18.1240 C.3       1 ZMR         0.1068
     17 O8         17.5750  -34.4800   17.6650 O.3       1 ZMR        -0.3869
     18 C9         19.3030  -35.9580   18.5720 C.3       1 ZMR         0.0727
     19 O9         19.1560  -36.8640   17.4840 O.3       1 ZMR        -0.3924
     20 NE         20.3610  -28.8070   19.9730 N.pl3     1 ZMR        -0.2592
     21 CZ         20.2420  -27.7630   20.7600 C.cat     1 ZMR         0.2902
     22 NH1        19.0550  -27.3360   21.1300 N.pl3     1 ZMR        -0.2847
     23 NH2        21.3580  -27.1620   21.2010 N.pl3     1 ZMR        -0.2847
     24 H1         19.7990  -28.5519   17.4358 H         1 ZMR         0.0492
     25 H2         18.2833  -29.1381   19.5791 H         1 ZMR         0.0872
     26 H3         20.3769  -31.2189   20.2023 H         1 ZMR         0.0645
     27 H4         17.5720  -30.8476   21.1841 H         1 ZMR         0.1858
     28 H5         18.5759  -32.5952   24.1775 H         1 ZMR         0.0467
     29 H6         17.1667  -32.5959   23.0636 H         1 ZMR         0.0467
     30 H7         17.7654  -31.0493   23.7537 H         1 ZMR         0.0467
     31 H8         17.8550  -31.9471   18.6698 H         1 ZMR         0.0697
     32 H9         18.5412  -33.7835   20.0954 H         1 ZMR         0.0650
     33 H10        20.7338  -33.0935   20.4347 H         1 ZMR         0.2100
     34 H11        19.5913  -34.2699   17.2779 H         1 ZMR         0.0643
     35 H12        17.4499  -35.1124   16.9672 H         1 ZMR         0.2100
     36 H13        18.6360  -36.2624   19.3921 H         1 ZMR         0.0584
     37 H14        20.3457  -35.9751   18.9218 H         1 ZMR         0.0584
     38 H15        18.2554  -36.8509   17.1819 H         1 ZMR         0.2095
     39 H16        21.3191  -29.1099   19.7468 H         1 ZMR         0.2667
     40 H17        18.9722  -26.5160   21.7477 H         1 ZMR         0.2615
     41 H18        18.2078  -27.8215   20.8022 H         1 ZMR         0.2615
     42 H19        22.2813  -27.5075   20.9026 H         1 ZMR         0.2615
     43 H20        21.2912  -26.3552   21.8378 H         1 ZMR         0.2615
@<TRIPOS>BOND
     1    1    2 ar 
     2    1    3 ar 
     3    1    4 1  
     4    4    5 2  
     5    4   13 1  
     6    5    6 1  
     7    6    7 1  
     8    6   20 1  
     9    7    8 1  
    10    7   12 1  
    11    8    9 am 
    12    9   10 2  
    13    9   11 1  
    14   12   13 1  
    15   12   14 1  
    16   14   15 1  
    17   14   16 1  
    18   16   17 1  
    19   16   18 1  
    20   18   19 1  
    21   20   21 ar 
    22   21   22 ar 
    23   21   23 ar 
    24    5   24 1  
    25    6   25 1  
    26    7   26 1  
    27    8   27 1  
    28   11   28 1  
    29   11   29 1  
    30   11   30 1  
    31   12   31 1  
    32   14   32 1  
    33   15   33 1  
    34   16   34 1  
    35   17   35 1  
    36   18   36 1  
    37   18   37 1  
    38   19   38 1  
    39   20   39 1  
    40   22   40 1  
    41   22   41 1  
    42   23   42 1  
    43   23   43 1  
@<TRIPOS>SUBSTRUCTURE
     1 ZMR         1

