### 
### Created by X-TOOL on Mon Sep 10 21:13:06 2018
### 

@<TRIPOS>MOLECULE
2ya8_ligand
   44    44     1     0     0
SMALL
GAST_HUCK


@<TRIPOS>ATOM
      1 C1         15.2630  -20.2890   44.7640 C.2       1 G39         0.0478
      2 O1A        16.1740  -20.3740   45.6350 O.co2     1 G39        -0.5666
      3 O1B        14.0770  -20.5560   45.0390 O.co2     1 G39        -0.5666
      4 C2         15.5900  -19.8430   43.4040 C.2       1 G39        -0.0181
      5 C3         14.4990  -19.4280   42.4410 C.3       1 G39         0.0201
      6 C4         15.0740  -18.4510   41.4040 C.3       1 G39         0.0100
      7 C5         16.2840  -19.0580   40.7210 C.3       1 G39         0.1202
      8 N5         16.7490  -18.2400   39.5950 N.am      1 G39        -0.2740
      9 C10        17.0470  -18.7480   38.3960 C.2       1 G39         0.1735
     10 O10        16.8220  -19.9060   38.0580 O.2       1 G39        -0.3974
     11 C11        17.6810  -17.7630   37.4570 C.3       1 G39         0.0257
     12 C6         17.3970  -19.1960   41.7500 C.3       1 G39         0.1112
     13 C7         16.8890  -19.8220   43.0400 C.2       1 G39        -0.0470
     14 O7         18.3540  -20.0790   41.1950 O.3       1 G39        -0.3596
     15 C8         19.6620  -19.9490   41.7720 C.3       1 G39         0.0613
     16 C9         20.4740  -18.8620   41.0620 C.3       1 G39        -0.0292
     17 C81        20.3640  -21.3120   41.6530 C.3       1 G39        -0.0292
     18 C82        19.8920  -22.2330   42.7550 C.3       1 G39        -0.0629
     19 C91        20.4130  -18.9930   39.5630 C.3       1 G39        -0.0629
     20 N4         14.0470  -18.1000   40.4400 N.4       1 G39         0.2238
     21 H1         13.6871  -18.9363   42.9969 H         1 G39         0.0441
     22 H2         14.1055  -20.3177   41.9275 H         1 G39         0.0441
     23 H3         15.3927  -17.5349   41.9228 H         1 G39         0.0895
     24 H4         16.0145  -20.0547   40.3417 H         1 G39         0.0664
     25 H5         16.8476  -17.2543   39.7319 H         1 G39         0.1859
     26 H6         17.8944  -18.2564   36.4973 H         1 G39         0.0467
     27 H7         18.6191  -17.3909   37.8945 H         1 G39         0.0467
     28 H8         16.9940  -16.9201   37.2911 H         1 G39         0.0467
     29 H9         17.8436  -18.2129   41.9597 H         1 G39         0.0776
     30 H10        17.6163  -20.2799   43.7088 H         1 G39         0.0592
     31 H11        19.5650  -19.6798   42.8341 H         1 G39         0.0598
     32 H12        21.5237  -18.9385   41.3816 H         1 G39         0.0288
     33 H13        20.0744  -17.8779   41.3479 H         1 G39         0.0288
     34 H14        21.4516  -21.1705   41.7371 H         1 G39         0.0288
     35 H15        20.1269  -21.7602   40.6768 H         1 G39         0.0288
     36 H16        20.3986  -23.2050   42.6626 H         1 G39         0.0231
     37 H17        18.8046  -22.3770   42.6720 H         1 G39         0.0231
     38 H18        20.1293  -21.7873   43.7322 H         1 G39         0.0231
     39 H19        21.0094  -18.1928   39.1005 H         1 G39         0.0231
     40 H20        19.3679  -18.9106   39.2299 H         1 G39         0.0231
     41 H21        20.8172  -19.9712   39.2636 H         1 G39         0.0231
     42 H22        13.2569  -17.6999   40.9215 H         1 G39         0.1999
     43 H23        13.7545  -18.9275   39.9443 H         1 G39         0.1999
     44 H24        14.4163  -17.4288   39.7849 H         1 G39         0.1999
@<TRIPOS>BOND
     1    1    2 ar 
     2    1    3 ar 
     3    1    4 1  
     4    4    5 1  
     5    4   13 2  
     6    5    6 1  
     7    6    7 1  
     8    6   20 1  
     9    7    8 1  
    10    7   12 1  
    11    8    9 am 
    12    9   10 2  
    13    9   11 1  
    14   12   13 1  
    15   12   14 1  
    16   14   15 1  
    17   15   16 1  
    18   15   17 1  
    19   16   19 1  
    20   17   18 1  
    21    5   21 1  
    22    5   22 1  
    23    6   23 1  
    24    7   24 1  
    25    8   25 1  
    26   11   26 1  
    27   11   27 1  
    28   11   28 1  
    29   12   29 1  
    30   13   30 1  
    31   15   31 1  
    32   16   32 1  
    33   16   33 1  
    34   17   34 1  
    35   17   35 1  
    36   18   36 1  
    37   18   37 1  
    38   18   38 1  
    39   19   39 1  
    40   19   40 1  
    41   19   41 1  
    42   20   42 1  
    43   20   43 1  
    44   20   44 1  
@<TRIPOS>SUBSTRUCTURE
     1 G39         1

