### 
### Created by X-TOOL on Mon Sep 10 21:13:07 2018
### 

@<TRIPOS>MOLECULE
2yac_ligand
   64    68     1     0     0
SMALL
GAST_HUCK


@<TRIPOS>ATOM
      1 N1        -43.9590   14.9870    8.0220 N.ar      1 937        -0.2450
      2 C2        -44.1700   13.7410    8.2110 C.ar      1 937         0.2043
      3 N3        -43.8090   13.1160    9.4240 N.ar      1 937        -0.2602
      4 C4        -43.3490   15.7750    9.0310 C.ar      1 937         0.0266
      5 C5        -42.9920   15.1850   10.1930 C.ar      1 937         0.0150
      6 C6        -43.2490   13.7560   10.3590 C.ar      1 937         0.0776
      7 C7        -41.4050   15.0950   12.2490 C.ar      1 937        -0.0608
      8 C8        -42.3310   15.9770   11.3250 C.ar      1 937        -0.0572
      9 C9        -41.8610   13.6450   12.3550 C.ar      1 937         0.0316
     10 C10       -42.7240   13.0810   11.5410 C.ar      1 937         0.1226
     11 N11       -42.9140   11.7630   11.9770 N.pl3     1 937        -0.1830
     12 N12       -42.1370   11.5430   13.0760 N.2       1 937        -0.1707
     13 C13       -41.4880   12.6220   13.3350 C.2       1 937         0.1359
     14 N14       -44.7020   12.9080    7.2190 N.pl3     1 937        -0.2479
     15 C15       -40.5100   12.7420   14.4540 C.2       1 937         0.2121
     16 O16       -39.9820   13.8150   14.7380 O.2       1 937        -0.3860
     17 C17       -45.1030   11.5140    7.2840 C.ar      1 937         0.0846
     18 C18       -44.1950   10.5900    7.7200 C.ar      1 937        -0.0288
     19 C19       -44.5610    9.1340    7.7980 C.ar      1 937         0.0197
     20 C20       -45.8160    8.7490    7.4230 C.ar      1 937        -0.0642
     21 C21       -46.7930    9.7320    6.9560 C.ar      1 937        -0.0527
     22 C22       -46.4740   11.0500    6.8830 C.ar      1 937         0.1111
     23 O23       -47.3900   12.0330    6.4380 O.3       1 937        -0.2392
     24 C24       -47.8580   11.9640    5.0760 C.3       1 937         0.5419
     25 F25       -48.8650   11.0480    4.9920 F         1 937        -0.1406
     26 F26       -48.3360   13.2050    4.6730 F         1 937        -0.1406
     27 F27       -46.8640   11.5500    4.2000 F         1 937        -0.1406
     28 N28       -40.1710   11.6040   15.1920 N.am      1 937        -0.3000
     29 C29       -43.7590   10.7660   11.3500 C.3       1 937         0.0951
     30 C30       -44.4220    9.8750   12.4020 C.3       1 937         0.0733
     31 O31       -43.6500    8.6770   12.5050 O.3       1 937        -0.3922
     32 N32       -43.6220    8.1500    8.2490 N.pl3     1 937        -0.3066
     33 C33       -44.1240    6.9210    8.9200 C.3       1 937         0.0648
     34 C34       -43.0780    6.2140    9.8120 C.3       1 937        -0.0123
     35 N35       -41.7160    6.2730    9.2270 N.4       1 937         0.2358
     36 C36       -41.3080    7.6880    9.0880 C.3       1 937        -0.0123
     37 C37       -42.1850    8.3700    8.0100 C.3       1 937         0.0648
     38 C38       -40.7770    5.5980   10.1270 C.3       1 937        -0.0430
     39 H1        -43.1721   16.8327    8.8727 H         1 937         0.0962
     40 H2        -40.5302   15.4826   12.7585 H         1 937         0.0589
     41 H3        -42.4843   17.0394   11.4765 H         1 937         0.0557
     42 H4        -44.8287   13.3540    6.2992 H         1 937         0.2150
     43 H5        -43.2015   10.9102    8.0123 H         1 937         0.0402
     44 H6        -46.0917    7.7018    7.4720 H         1 937         0.0394
     45 H7        -47.7843    9.4044    6.6644 H         1 937         0.0477
     46 H8        -39.5162   11.6729   15.9446 H         1 937         0.1807
     47 H9        -40.5833   10.7211   14.9672 H         1 937         0.1807
     48 H10       -43.1460   10.1416   10.6834 H         1 937         0.0656
     49 H11       -44.5394   11.2724   10.7631 H         1 937         0.0656
     50 H12       -45.4499    9.6330   12.0941 H         1 937         0.0586
     51 H13       -44.4421   10.3924   13.3725 H         1 937         0.0586
     52 H14       -44.0414    8.1042   13.1539 H         1 937         0.2095
     53 H15       -44.4505    6.2131    8.1440 H         1 937         0.0562
     54 H16       -44.9831    7.1976    9.5489 H         1 937         0.0562
     55 H17       -43.3677    5.1595    9.9310 H         1 937         0.0834
     56 H18       -43.0626    6.7035   10.7970 H         1 937         0.0834
     57 H19       -41.7109    5.8235    8.3248 H         1 937         0.2032
     58 H20       -40.2511    7.7378    8.7872 H         1 937         0.0834
     59 H21       -41.4402    8.2047   10.0500 H         1 937         0.0834
     60 H22       -41.9844    9.4515    8.0208 H         1 937         0.0562
     61 H23       -41.9214    7.9580    7.0247 H         1 937         0.0562
     62 H24       -41.0699    4.5436   10.2388 H         1 937         0.0778
     63 H25       -40.7944    6.0896   11.1109 H         1 937         0.0778
     64 H26       -39.7619    5.6540    9.7070 H         1 937         0.0778
@<TRIPOS>BOND
     1    1    2 ar 
     2    1    4 ar 
     3    2    3 ar 
     4    2   14 1  
     5    3    6 ar 
     6    4    5 ar 
     7    5    6 ar 
     8    5    8 ar 
     9    6   10 ar 
    10    8    7 ar 
    11    7    9 ar 
    12    9   10 ar 
    13    9   13 1  
    14   10   11 1  
    15   11   12 1  
    16   11   29 1  
    17   12   13 2  
    18   13   15 1  
    19   14   17 1  
    20   15   16 2  
    21   15   28 am 
    22   17   18 ar 
    23   17   22 ar 
    24   18   19 ar 
    25   19   20 ar 
    26   19   32 1  
    27   20   21 ar 
    28   21   22 ar 
    29   22   23 1  
    30   23   24 1  
    31   24   25 1  
    32   24   26 1  
    33   24   27 1  
    34   29   30 1  
    35   30   31 1  
    36   32   33 1  
    37   32   37 1  
    38   33   34 1  
    39   34   35 1  
    40   35   36 1  
    41   35   38 1  
    42   36   37 1  
    43    4   39 1  
    44    7   40 1  
    45    8   41 1  
    46   14   42 1  
    47   18   43 1  
    48   20   44 1  
    49   21   45 1  
    50   28   46 1  
    51   28   47 1  
    52   29   48 1  
    53   29   49 1  
    54   30   50 1  
    55   30   51 1  
    56   31   52 1  
    57   33   53 1  
    58   33   54 1  
    59   34   55 1  
    60   34   56 1  
    61   35   57 1  
    62   36   58 1  
    63   36   59 1  
    64   37   60 1  
    65   37   61 1  
    66   38   62 1  
    67   38   63 1  
    68   38   64 1  
@<TRIPOS>SUBSTRUCTURE
     1 937         1

