### 
### Created by X-TOOL on Mon Sep 10 21:13:07 2018
### 

@<TRIPOS>MOLECULE
2yb0_ligand
   28    29     1     0     0
SMALL
GAST_HUCK


@<TRIPOS>ATOM
      1 N1        -17.1760   35.0590   -7.7030 N.am      1 DUR        -0.1618
      2 C2        -17.8380   34.2480   -6.7500 C.2       1 DUR         0.3327
      3 N3        -17.3030   34.0450   -5.5520 N.am      1 DUR        -0.1865
      4 C4        -16.1110   34.5640   -5.2500 C.2       1 DUR         0.1822
      5 C5        -15.4460   35.3580   -6.1610 C.2       1 DUR         0.0062
      6 C6        -16.0000   35.6010   -7.4020 C.2       1 DUR         0.0590
      7 O2        -18.9370   33.7270   -6.9920 O.2       1 DUR        -0.3815
      8 O4        -15.5950   34.3580   -4.1340 O.2       1 DUR        -0.4124
      9 C1'       -17.8060   35.3360   -8.9850 C.3       1 DUR         0.1800
     10 C2'       -18.9480   36.3090   -8.7590 C.3       1 DUR         0.0316
     11 C3'       -19.1180   36.9830  -10.1040 C.3       1 DUR         0.0886
     12 C4'       -17.8060   36.7540  -10.8220 C.3       1 DUR         0.1110
     13 O3'       -20.1660   36.3940  -10.8810 O.3       1 DUR        -0.3890
     14 O4'       -16.9920   35.9750   -9.9570 O.3       1 DUR        -0.3391
     15 C5'       -17.1150   38.0630  -11.2070 C.3       1 DUR         0.0729
     16 O5'       -18.0320   39.0050  -11.8060 O.3       1 DUR        -0.3924
     17 H1        -17.7954   33.5007   -4.8728 H         1 DUR         0.2259
     18 H2        -14.4825   35.7939   -5.9010 H         1 DUR         0.0258
     19 H3        -15.4805   36.2284   -8.1248 H         1 DUR         0.1178
     20 H4        -18.1801   34.3873   -9.3972 H         1 DUR         0.0970
     21 H5        -18.6893   37.0437   -7.9823 H         1 DUR         0.0345
     22 H6        -19.8655   35.7762   -8.4688 H         1 DUR         0.0345
     23 H7        -19.3155   38.0569   -9.9708 H         1 DUR         0.0622
     24 H8        -17.9986   36.1863  -11.7443 H         1 DUR         0.0646
     25 H9        -20.1890   36.8005  -11.7394 H         1 DUR         0.2099
     26 H10       -16.3127   37.8425  -11.9264 H         1 DUR         0.0584
     27 H11       -16.6823   38.5153  -10.3024 H         1 DUR         0.0584
     28 H12       -18.7257   39.2061  -11.1889 H         1 DUR         0.2095
@<TRIPOS>BOND
     1    1    2 am 
     2    1    6 1  
     3    1    9 1  
     4    2    3 am 
     5    2    7 2  
     6    3    4 am 
     7    4    5 1  
     8    4    8 2  
     9    5    6 2  
    10    9   10 1  
    11    9   14 1  
    12   10   11 1  
    13   11   12 1  
    14   11   13 1  
    15   12   14 1  
    16   12   15 1  
    17   15   16 1  
    18    3   17 1  
    19    5   18 1  
    20    6   19 1  
    21    9   20 1  
    22   10   21 1  
    23   10   22 1  
    24   11   23 1  
    25   12   24 1  
    26   13   25 1  
    27   15   26 1  
    28   15   27 1  
    29   16   28 1  
@<TRIPOS>SUBSTRUCTURE
     1 DUR         1

