### 
### Created by X-TOOL on Mon Sep 10 21:13:06 2018
### 

@<TRIPOS>MOLECULE
2yb9_ligand
   60    62     1     0     0
SMALL
GAST_HUCK


@<TRIPOS>ATOM
      1 C          30.2360   43.2290   35.1230 C.2       1 HA0         0.2038
      2 N          29.2320   43.0360   36.0120 N.am      1 HA0        -0.2678
      3 O          31.2550   42.5490   34.9840 O.2       1 HA0        -0.3442
      4 C1         29.3080   40.6310   36.2670 C.2       1 HA0         0.0631
      5 O1         30.5670   40.1670   36.3760 O.co2     1 HA0        -0.5664
      6 N3         28.8450   40.8130   39.9910 N.2       1 HA0        -0.3103
      7 C4         31.2630   44.9330   33.5270 C.3       1 HA0        -0.0406
      8 C5         29.7030   45.7400   35.2070 C.3       1 HA0        -0.0406
      9 O6         31.0280   41.3130   40.1940 O.3       1 HA0        -0.2249
     10 CA         28.6480   42.8650   32.5890 C.3       1 HA0         0.0114
     11 CB         29.4180   40.1800   41.2280 C.2       1 HA0        -0.0031
     12 CD         25.8050   40.5790   31.2640 C.3       1 HA0        -0.0652
     13 CG         27.2130   41.0850   31.5640 C.3       1 HA0        -0.0542
     14 CH         30.0150   42.3270   38.1990 C.3       1 HA0         0.0730
     15 C11        29.0790   41.9900   37.0120 C.3       1 HA0         0.1121
     16 C17        31.5950   39.3050   43.3960 C.ar      1 HA0        -0.0562
     17 C20        32.6720   39.0000   44.2800 C.ar      1 HA0        -0.0651
     18 C21        33.9870   39.5090   44.0080 C.ar      1 HA0        -0.0653
     19 CA1        29.9560   44.4950   34.2850 C.3       1 HA0         0.0531
     20 CB1        27.2660   42.4580   32.1900 C.3       1 HA0        -0.0390
     21 CB2        29.4710   43.1400   31.3540 C.2       1 HA0         0.0377
     22 CD2        31.8290   40.1540   42.2550 C.ar      1 HA0         0.0074
     23 CE3        33.1710   40.6550   42.0490 C.ar      1 HA0        -0.0562
     24 CG1        32.0110   45.9980   34.3770 C.3       1 HA0        -0.0536
     25 OG1        29.5540   44.1210   30.6230 O.co2     1 HA0        -0.5687
     26 CG2        31.1140   46.2290   35.6070 C.3       1 HA0        -0.0536
     27 OG2        30.2240   42.1190   31.2630 O.co2     1 HA0        -0.5687
     28 CG3        30.7490   40.5230   41.2660 C.2       1 HA0         0.1352
     29 CH2        28.7030   44.2040   33.4010 C.3       1 HA0        -0.0263
     30 OXT        28.4490   40.1060   35.5840 O.co2     1 HA0        -0.5664
     31 CZ1        29.9020   41.4570   39.4680 C.2       1 HA0         0.1850
     32 CZ3        34.2490   40.3390   42.9230 C.ar      1 HA0        -0.0651
     33 H1         28.4915   43.7071   35.9759 H         1 HA0         0.1883
     34 H2         30.9960   45.3626   32.5502 H         1 HA0         0.0257
     35 H3         31.9129   44.0582   33.3776 H         1 HA0         0.0257
     36 H4         29.1260   45.4514   36.0979 H         1 HA0         0.0257
     37 H5         29.1621   46.5250   34.6582 H         1 HA0         0.0257
     38 H6         29.0977   42.0539   33.1805 H         1 HA0         0.0465
     39 H7         28.8830   39.5686   41.9532 H         1 HA0         0.0532
     40 H8         25.8637   39.5777   30.8123 H         1 HA0         0.0230
     41 H9         25.3089   41.2681   30.5647 H         1 HA0         0.0230
     42 H10        25.2274   40.5263   32.1986 H         1 HA0         0.0230
     43 H11        27.7751   41.1166   30.6190 H         1 HA0         0.0264
     44 H12        27.6936   40.3748   32.2529 H         1 HA0         0.0264
     45 H13        29.8109   43.3669   38.4939 H         1 HA0         0.0571
     46 H14        31.0499   42.2453   37.8353 H         1 HA0         0.0571
     47 H15        28.0480   41.9914   37.3954 H         1 HA0         0.0760
     48 H16        30.6064   38.9007   43.5812 H         1 HA0         0.0592
     49 H17        32.4982   38.3851   45.1556 H         1 HA0         0.0608
     50 H18        34.8017   39.2376   44.6696 H         1 HA0         0.0587
     51 H19        26.8810   43.1893   31.4641 H         1 HA0         0.0285
     52 H20        26.6277   42.4596   33.0858 H         1 HA0         0.0285
     53 H21        33.3626   41.2958   41.1959 H         1 HA0         0.0592
     54 H22        32.1333   46.9309   33.8072 H         1 HA0         0.0264
     55 H23        32.9987   45.6235   34.6839 H         1 HA0         0.0264
     56 H24        31.4884   45.6529   36.4660 H         1 HA0         0.0264
     57 H25        31.0885   47.2979   35.8654 H         1 HA0         0.0264
     58 H26        27.8277   44.2147   34.0671 H         1 HA0         0.0277
     59 H27        28.6213   45.0263   32.6749 H         1 HA0         0.0277
     60 H28        35.2436   40.7331   42.7484 H         1 HA0         0.0608
@<TRIPOS>BOND
     1    2    1 am 
     2    1    3 2  
     3    1   19 1  
     4   15    2 1  
     5    4    5 ar 
     6   15    4 1  
     7    4   30 ar 
     8   11    6 1  
     9    6   31 2  
    10   19    7 1  
    11    7   24 1  
    12   19    8 1  
    13    8   26 1  
    14   28    9 1  
    15    9   31 1  
    16   10   20 1  
    17   10   21 1  
    18   29   10 1  
    19   28   11 2  
    20   13   12 1  
    21   20   13 1  
    22   14   15 1  
    23   31   14 1  
    24   16   17 ar 
    25   22   16 ar 
    26   17   18 ar 
    27   18   32 ar 
    28   19   29 1  
    29   21   25 ar 
    30   21   27 ar 
    31   22   23 ar 
    32   22   28 1  
    33   23   32 ar 
    34   24   26 1  
    35    2   33 1  
    36    7   34 1  
    37    7   35 1  
    38    8   36 1  
    39    8   37 1  
    40   10   38 1  
    41   11   39 1  
    42   12   40 1  
    43   12   41 1  
    44   12   42 1  
    45   13   43 1  
    46   13   44 1  
    47   14   45 1  
    48   14   46 1  
    49   15   47 1  
    50   16   48 1  
    51   17   49 1  
    52   18   50 1  
    53   20   51 1  
    54   20   52 1  
    55   23   53 1  
    56   24   54 1  
    57   24   55 1  
    58   26   56 1  
    59   26   57 1  
    60   29   58 1  
    61   29   59 1  
    62   32   60 1  
@<TRIPOS>SUBSTRUCTURE
     1 HA0         1

