### 
### Created by X-TOOL on Mon Sep 10 21:13:07 2018
### 

@<TRIPOS>MOLECULE
2ybk_ligand
   16    15     1     0     0
SMALL
GAST_HUCK


@<TRIPOS>ATOM
      1 C1        -24.0610  -21.5210    4.3850 C.2       1 2HG         0.0634
      2 O1        -23.2290  -21.6140    3.4560 O.co2     1 2HG        -0.5663
      3 C2        -25.5210  -21.8220    4.0420 C.3       1 2HG         0.1087
      4 O2        -23.8090  -21.2040    5.5670 O.co2     1 2HG        -0.5663
      5 C3        -26.4130  -21.4370    5.2240 C.3       1 2HG        -0.0033
      6 O3        -25.9060  -21.0700    2.8890 O.3       1 2HG        -0.3776
      7 C4        -27.8590  -21.8770    4.9860 C.3       1 2HG         0.0041
      8 O4        -29.9500  -21.2640    5.9310 O.co2     1 2HG        -0.5690
      9 C5        -28.7480  -21.5070    6.1750 C.2       1 2HG         0.0350
     10 O5        -28.2050  -21.4750    7.3000 O.co2     1 2HG        -0.5690
     11 H1        -25.6338  -22.8960    3.8328 H         1 2HG         0.0764
     12 H2        -26.3861  -20.3451    5.3543 H         1 2HG         0.0326
     13 H3        -26.0340  -21.9243    6.1344 H         1 2HG         0.0326
     14 H4        -26.8125  -21.2594    2.6770 H         1 2HG         0.2123
     15 H5        -27.8843  -22.9675    4.8437 H         1 2HG         0.0432
     16 H6        -28.2420  -21.3803    4.0824 H         1 2HG         0.0432
@<TRIPOS>BOND
     1    1    2 ar 
     2    1    3 1  
     3    1    4 ar 
     4    3    5 1  
     5    3    6 1  
     6    5    7 1  
     7    7    9 1  
     8    9    8 ar 
     9    9   10 ar 
    10    3   11 1  
    11    5   12 1  
    12    5   13 1  
    13    6   14 1  
    14    7   15 1  
    15    7   16 1  
@<TRIPOS>SUBSTRUCTURE
     1 2HG         1

