### 
### Created by X-TOOL on Mon Sep 10 21:13:07 2018
### 

@<TRIPOS>MOLECULE
2ybp_ligand
   16    15     1     0     0
SMALL
GAST_HUCK


@<TRIPOS>ATOM
      1 C1         39.4000  -55.7770   -1.5500 C.2       1 2HG         0.0634
      2 O1         38.4050  -55.6990   -2.3080 O.co2     1 2HG        -0.5663
      3 C2         40.5730  -54.8430   -1.8450 C.3       1 2HG         0.1087
      4 O2         39.5170  -56.5370   -0.5660 O.co2     1 2HG        -0.5663
      5 C3         41.8450  -55.3780   -1.1870 C.3       1 2HG        -0.0033
      6 O3         40.7940  -54.7200   -3.2520 O.3       1 2HG        -0.3776
      7 C4         43.0190  -54.4630   -1.5350 C.3       1 2HG         0.0041
      8 O4         44.2210  -55.0580    0.4130 O.co2     1 2HG        -0.5690
      9 C5         44.2890  -54.9390   -0.8300 C.2       1 2HG         0.0350
     10 O5         45.2820  -55.1770   -1.5490 O.co2     1 2HG        -0.5690
     11 H          40.3273  -53.8612   -1.4402 H         1 2HG         0.0764
     12 H          42.0477  -56.3852   -1.5512 H         1 2HG         0.0326
     13 H          41.7121  -55.4048   -0.1055 H         1 2HG         0.0326
     14 H          41.0108  -55.5809   -3.6172 H         1 2HG         0.2123
     15 H          42.7891  -53.4489   -1.2081 H         1 2HG         0.0432
     16 H          43.1804  -54.4852   -2.6128 H         1 2HG         0.0432
@<TRIPOS>BOND
     1    1    2 ar 
     2    1    3 1  
     3    1    4 ar 
     4    3    5 1  
     5    3    6 1  
     6    5    7 1  
     7    7    9 1  
     8    9    8 ar 
     9    9   10 ar 
    10    3   11 1  
    11    5   12 1  
    12    5   13 1  
    13    6   14 1  
    14    7   15 1  
    15    7   16 1  
@<TRIPOS>SUBSTRUCTURE
     1 2HG         1

