### 
### Created by X-TOOL on Mon Sep 10 21:13:07 2018
### 

@<TRIPOS>MOLECULE
2ybs_ligand
   16    15     1     0     0
SMALL
GAST_HUCK


@<TRIPOS>ATOM
      1 C1         11.2850   18.8850    1.6690 C.2       1 S2G         0.0634
      2 C3          8.8500   19.2890    1.2680 C.3       1 S2G        -0.0033
      3 C4          7.4760   19.3740    1.9260 C.3       1 S2G         0.0041
      4 C5          6.3730   19.6680    0.8990 C.2       1 S2G         0.0350
      5 O2         12.2670   19.3450    2.2910 O.co2     1 S2G        -0.5663
      6 O1         11.3170   18.3240    0.5510 O.co2     1 S2G        -0.5663
      7 O3          9.8880   20.0540    3.2960 O.3       1 S2G        -0.3776
      8 O5          5.1970   19.5680    1.3010 O.co2     1 S2G        -0.5690
      9 C2          9.9100   18.9970    2.3330 C.3       1 S2G         0.1087
     10 O4          6.7410   19.9830   -0.2540 O.co2     1 S2G        -0.5690
     11 H           9.0777   20.2365    0.7796 H         1 S2G         0.0326
     12 H           8.8491   18.4887    0.5280 H         1 S2G         0.0326
     13 H           7.4930   20.1850    2.6540 H         1 S2G         0.0432
     14 H           7.2604   18.4150    2.3971 H         1 S2G         0.0432
     15 H          10.5489   19.8840    3.9712 H         1 S2G         0.2123
     16 H           9.7004   18.0528    2.8356 H         1 S2G         0.0764
@<TRIPOS>BOND
     1    1    5 ar 
     2    1    6 ar 
     3    9    1 1  
     4    2    3 1  
     5    2    9 1  
     6    3    4 1  
     7    4    8 ar 
     8    4   10 ar 
     9    9    7 1  
    10    2   11 1  
    11    2   12 1  
    12    3   13 1  
    13    3   14 1  
    14    7   15 1  
    15    9   16 1  
@<TRIPOS>SUBSTRUCTURE
     1 S2G         1

