### 
### Created by X-TOOL on Mon Sep 10 21:13:06 2018
### 

@<TRIPOS>MOLECULE
2ybt_ligand
   49    52     1     0     0
SMALL
GAST_HUCK


@<TRIPOS>ATOM
      1 N1         26.7730  -31.7400  -41.8440 N.am      1 DW0        -0.1708
      2 C2         27.6310  -30.8100  -41.3050 C.2       1 DW0         0.3179
      3 O2         28.8550  -30.7840  -41.6500 O.2       1 DW0        -0.3873
      4 N3         27.0880  -29.9170  -40.3830 N.am      1 DW0        -0.2025
      5 C4         25.6880  -30.0210  -39.9980 C.2       1 DW0         0.1377
      6 C5         24.8200  -30.9870  -40.5760 C.2       1 DW0         0.1624
      7 C6         25.3860  -31.8430  -41.5260 C.2       1 DW0         0.2299
      8 O6         24.7130  -32.7090  -42.1260 O.2       1 DW0        -0.4007
      9 N7         23.5880  -30.8060  -40.0070 N.pl3     1 DW0        -0.2541
     10 C8         23.6740  -29.7920  -39.1320 C.2       1 DW0         0.0975
     11 N9         24.9300  -29.2990  -39.1340 N.2       1 DW0        -0.2859
     12 N10        28.5050  -36.1870  -43.2990 N.am      1 DW0        -0.1708
     13 CA0        28.1620  -34.7680  -43.5540 C.3       1 DW0         0.0610
     14 CAA        22.2500  -31.5370  -40.2420 C.3       1 DW0         0.0424
     15 CAB        25.6560  -39.8500  -42.8900 C.3       1 DW0         0.0424
     16 CAC        28.0360  -28.9120  -39.7870 C.3       1 DW0         0.0446
     17 CAD        31.6400  -38.2890  -42.8160 C.3       1 DW0         0.0446
     18 OAF        26.2600  -36.7080  -43.3690 O.2       1 DW0        -0.4007
     19 OAH        30.8060  -35.8350  -43.2340 O.2       1 DW0        -0.3873
     20 CAJ        27.9900  -40.6500  -42.6220 C.2       1 DW0         0.0975
     21 CAK        27.3460  -32.6410  -42.8600 C.3       1 DW0         0.0610
     22 CAL        27.5600  -34.0520  -42.3350 C.3       1 DW0        -0.0033
     23 NAN        29.2470  -40.1200  -42.6340 N.2       1 DW0        -0.2859
     24 CAP        27.4330  -37.1360  -43.2180 C.2       1 DW0         0.2299
     25 CAR        29.8580  -36.6100  -43.1840 C.2       1 DW0         0.3179
     26 CAT        29.1550  -38.8260  -42.8430 C.2       1 DW0         0.1377
     27 CAV        27.7920  -38.4750  -42.9730 C.2       1 DW0         0.1624
     28 NAX        27.1230  -39.6350  -42.8190 N.pl3     1 DW0        -0.2541
     29 NAZ        30.1830  -37.9070  -42.9540 N.am      1 DW0        -0.2025
     30 H1         22.8557  -29.4237  -38.5151 H         1 DW0         0.1263
     31 H2         27.4319  -34.7290  -44.3758 H         1 DW0         0.0576
     32 H3         29.0781  -34.2369  -43.8518 H         1 DW0         0.0576
     33 H4         22.3920  -32.3299  -40.9911 H         1 DW0         0.0575
     34 H5         21.4992  -30.8198  -40.6051 H         1 DW0         0.0575
     35 H6         21.9048  -31.9826  -39.2974 H         1 DW0         0.0575
     36 H7         25.4327  -40.9136  -42.7199 H         1 DW0         0.0575
     37 H8         25.2895  -39.5528  -43.8836 H         1 DW0         0.0575
     38 H9         25.1587  -39.2431  -42.1191 H         1 DW0         0.0575
     39 H10        29.0312  -29.0334  -40.2397 H         1 DW0         0.0548
     40 H11        28.1052  -29.0723  -38.7010 H         1 DW0         0.0548
     41 H12        27.6648  -27.8956  -39.9847 H         1 DW0         0.0548
     42 H13        32.2672  -37.3942  -42.9423 H         1 DW0         0.0548
     43 H14        31.8993  -39.0302  -43.5863 H         1 DW0         0.0548
     44 H15        31.8132  -38.7203  -41.8190 H         1 DW0         0.0548
     45 H16        27.7336  -41.6988  -42.4797 H         1 DW0         0.1263
     46 H17        28.3154  -32.2350  -43.1847 H         1 DW0         0.0576
     47 H18        26.6605  -32.6848  -43.7191 H         1 DW0         0.0576
     48 H19        28.2575  -34.0589  -41.4845 H         1 DW0         0.0312
     49 H20        26.6082  -34.5129  -42.0324 H         1 DW0         0.0312
@<TRIPOS>BOND
     1    1    2 am 
     2    1    7 am 
     3   21    1 1  
     4    2    3 2  
     5    2    4 am 
     6    4    5 1  
     7    4   16 1  
     8    6    5 2  
     9    5   11 1  
    10    7    6 1  
    11    6    9 1  
    12    7    8 2  
    13    9   10 1  
    14    9   14 1  
    15   10   11 2  
    16   12   13 1  
    17   24   12 am 
    18   12   25 am 
    19   13   22 1  
    20   28   15 1  
    21   29   17 1  
    22   24   18 2  
    23   25   19 2  
    24   23   20 2  
    25   20   28 1  
    26   22   21 1  
    27   26   23 1  
    28   27   24 1  
    29   25   29 am 
    30   26   27 2  
    31   26   29 1  
    32   27   28 1  
    33   10   30 1  
    34   13   31 1  
    35   13   32 1  
    36   14   33 1  
    37   14   34 1  
    38   14   35 1  
    39   15   36 1  
    40   15   37 1  
    41   15   38 1  
    42   16   39 1  
    43   16   40 1  
    44   16   41 1  
    45   17   42 1  
    46   17   43 1  
    47   17   44 1  
    48   20   45 1  
    49   21   46 1  
    50   21   47 1  
    51   22   48 1  
    52   22   49 1  
@<TRIPOS>SUBSTRUCTURE
     1 DW0         1

