### 
### Created by X-TOOL on Fri Sep 26 17:34:50 2014
### 

@<TRIPOS>MOLECULE
2ybu_ligand
   46    49     1     0     0
SMALL
GAST_HUCK


@<TRIPOS>ATOM
      1 O6         26.2630  -36.9630  -42.8820 O.2       1 CX9        -0.4007
      2 C6         27.4710  -37.1950  -42.7660 C.2       1 CX9         0.2299
      3 C5         27.9460  -38.4690  -42.5360 C.2       1 CX9         0.1624
      4 N1         28.4110  -36.1940  -42.9100 N.am      1 CX9        -0.1708
      5 N7         27.3270  -39.6150  -42.3560 N.pl3     1 CX9        -0.2541
      6 C4         29.2970  -38.7440  -42.4460 C.2       1 CX9         0.1377
      7 CAA        25.8540  -39.8250  -42.4170 C.3       1 CX9         0.0424
      8 C8         28.2690  -40.5710  -42.1940 C.2       1 CX9         0.0975
      9 N9         29.5010  -40.0080  -42.2380 N.2       1 CX9        -0.2859
     10 N3         30.2210  -37.7760  -42.5470 N.am      1 CX9        -0.2025
     11 CAC        31.7360  -38.1630  -42.4400 C.3       1 CX9         0.0446
     12 C2         29.7510  -36.5110  -42.8020 C.2       1 CX9         0.3179
     13 O2         30.5670  -35.6250  -42.8730 O.2       1 CX9        -0.3873
     14 CAK        27.9510  -34.8270  -43.1830 C.3       1 CX9         0.0610
     15 CAL        27.5260  -34.0460  -41.9380 C.3       1 CX9        -0.0033
     16 CA0        27.2560  -32.6530  -42.5100 C.3       1 CX9         0.0609
     17 N10        26.5970  -31.8070  -41.5000 N.am      1 CX9        -0.1728
     18 CAP        25.2540  -31.9750  -41.2150 C.2       1 CX9         0.2022
     19 CAR        27.3770  -30.8700  -40.8470 C.2       1 CX9         0.3262
     20 OAF        24.6020  -32.8790  -41.8320 O.2       1 CX9        -0.4078
     21 CAV        24.6840  -31.1210  -40.2810 C.2       1 CX9         0.1086
     22 NAX        23.4410  -31.0510  -39.7770 N.2       1 CX9        -0.3333
     23 CAT        25.4600  -30.1810  -39.6020 C.2       1 CX9         0.2026
     24 CAJ        23.3920  -30.0950  -38.8330 C.2       1 CX9         0.0869
     25 NAN        24.6380  -29.5220  -38.7460 N.pl3     1 CX9        -0.2331
     26 NAZ        26.8340  -30.0430  -39.9220 N.am      1 CX9        -0.1726
     27 CAD        27.7730  -29.0380  -39.2860 C.3       1 CX9         0.0517
     28 OAH        28.5820  -30.7580  -41.1290 O.2       1 CX9        -0.3843
     29 H1         25.6265  -40.8843  -42.2268 H         1 CX9         0.0575
     30 H2         25.4845  -39.5440  -43.4142 H         1 CX9         0.0575
     31 H3         25.3629  -39.2020  -41.6550 H         1 CX9         0.0575
     32 H4         28.0685  -41.6317  -42.0501 H         1 CX9         0.1263
     33 H5         31.8256  -39.2390  -42.2297 H         1 CX9         0.0548
     34 H6         32.2042  -37.5901  -41.6260 H         1 CX9         0.0548
     35 H7         32.2415  -37.9317  -43.3892 H         1 CX9         0.0548
     36 H8         27.0900  -34.8829  -43.8653 H         1 CX9         0.0576
     37 H9         28.7704  -34.2786  -43.6707 H         1 CX9         0.0576
     38 H10        28.3307  -34.0207  -41.1885 H         1 CX9         0.0312
     39 H11        26.6189  -34.4753  -41.4877 H         1 CX9         0.0312
     40 H12        26.6033  -32.7422  -43.3909 H         1 CX9         0.0576
     41 H13        28.2093  -32.1904  -42.8052 H         1 CX9         0.0576
     42 H14        22.5190  -29.8228  -38.2417 H         1 CX9         0.1123
     43 H15        24.9014  -28.7326  -38.1390 H         1 CX9         0.2397
     44 H16        28.7778  -29.1497  -39.7195 H         1 CX9         0.0560
     45 H17        27.8199  -29.2153  -38.2014 H         1 CX9         0.0560
     46 H18        27.4031  -28.0196  -39.4755 H         1 CX9         0.0560
@<TRIPOS>BOND
     1    1    2 2  
     2    2    3 1  
     3    2    4 am 
     4    3    5 1  
     5    3    6 2  
     6    4   12 am 
     7    4   14 1  
     8    5    7 1  
     9    5    8 1  
    10    6    9 1  
    11    6   10 1  
    12    8    9 2  
    13   10   11 1  
    14   10   12 am 
    15   12   13 2  
    16   14   15 1  
    17   15   16 1  
    18   16   17 1  
    19   17   18 am 
    20   17   19 am 
    21   18   20 2  
    22   18   21 1  
    23   19   26 am 
    24   19   28 2  
    25   21   22 1  
    26   21   23 2  
    27   22   24 2  
    28   23   25 1  
    29   23   26 1  
    30   24   25 1  
    31   26   27 1  
    32    7   29 1  
    33    7   30 1  
    34    7   31 1  
    35    8   32 1  
    36   11   33 1  
    37   11   34 1  
    38   11   35 1  
    39   14   36 1  
    40   14   37 1  
    41   15   38 1  
    42   15   39 1  
    43   16   40 1  
    44   16   41 1  
    45   24   42 1  
    46   25   43 1  
    47   27   44 1  
    48   27   45 1  
    49   27   46 1  
@<TRIPOS>SUBSTRUCTURE
     1 CX9         1

