### 
### Created by X-TOOL on Mon Sep 10 21:13:08 2018
### 

@<TRIPOS>MOLECULE
2yc0_ligand
   16    15     1     0     0
SMALL
GAST_HUCK


@<TRIPOS>ATOM
      1 C1         22.5370   25.2660   27.9690 C.2       1 2HG         0.0634
      2 O1         23.6720   25.6980   28.2870 O.co2     1 2HG        -0.5663
      3 C2         21.3470   26.1910   28.2830 C.3       1 2HG         0.1087
      4 O2         22.2880   24.1810   27.4270 O.co2     1 2HG        -0.5663
      5 C3         20.1320   25.3330   28.6500 C.3       1 2HG        -0.0033
      6 O3         21.6750   27.0990   29.3240 O.3       1 2HG        -0.3776
      7 C4         18.9490   26.2480   29.0140 C.3       1 2HG         0.0041
      8 O4         16.7090   25.8740   29.6990 O.co2     1 2HG        -0.5690
      9 C5         17.6020   25.5450   28.8910 C.2       1 2HG         0.0350
     10 O5         17.4660   24.7290   27.9470 O.co2     1 2HG        -0.5690
     11 H1         21.1054   26.7736   27.3818 H         1 2HG         0.0764
     12 H2         20.3803   24.6948   29.5108 H         1 2HG         0.0326
     13 H3         19.8567   24.7014   27.7926 H         1 2HG         0.0326
     14 H4         22.4301   27.6148   29.0665 H         1 2HG         0.2123
     15 H5         18.9554   27.1167   28.3393 H         1 2HG         0.0432
     16 H6         19.0744   26.5891   30.0522 H         1 2HG         0.0432
@<TRIPOS>BOND
     1    1    2 ar 
     2    1    3 1  
     3    1    4 ar 
     4    3    5 1  
     5    3    6 1  
     6    5    7 1  
     7    7    9 1  
     8    9    8 ar 
     9    9   10 ar 
    10    3   11 1  
    11    5   12 1  
    12    5   13 1  
    13    6   14 1  
    14    7   15 1  
    15    7   16 1  
@<TRIPOS>SUBSTRUCTURE
     1 2HG         1

