### 
### Created by X-TOOL on Mon Sep 10 21:13:05 2018
### 

@<TRIPOS>MOLECULE
2yc3_ligand
   27    29     1     0     0
SMALL
GAST_HUCK


@<TRIPOS>ATOM
      1 O          17.1090   55.4690  -19.6490 O.2       1 MW5        -0.3790
      2 C5         16.8120   56.6680  -19.3450 C.2       1 MW5         0.2665
      3 N2         17.6400   57.6880  -19.6690 N.am      1 MW5        -0.0679
      4 N3         18.7970   57.6320  -20.3240 N.2       1 MW5        -0.1826
      5 C1         19.2010   58.8760  -20.3610 C.2       1 MW5         0.0370
      6 C4         15.6430   56.9700  -18.6920 C.2       1 MW5         0.0757
      7 C3         15.4030   58.3390  -18.4580 C.2       1 MW5         0.1547
      8 CL         13.9100   58.7940  -17.7390 Cl        1 MW5        -0.0289
      9 N4         16.1950   59.3450  -18.8200 N.pl3     1 MW5        -0.2152
     10 C2         17.3290   59.0170  -19.4590 C.2       1 MW5         0.2879
     11 N1         18.2900   59.7730  -19.8880 N.2       1 MW5        -0.2905
     12 C6         14.6590   55.9450  -18.2050 C.3       1 MW5         0.0104
     13 C7         13.6500   55.3820  -19.1800 C.ar      1 MW5        -0.0372
     14 C12        13.9380   55.2020  -20.5390 C.ar      1 MW5        -0.0593
     15 C11        13.0000   54.6660  -21.4020 C.ar      1 MW5        -0.0686
     16 C10        11.8100   54.2030  -20.9190 C.ar      1 MW5        -0.0688
     17 C9         11.5470   54.3630  -19.5530 C.ar      1 MW5        -0.0686
     18 C8         12.4570   54.9540  -18.7260 C.ar      1 MW5        -0.0593
     19 H1         20.1800   59.1693  -20.7370 H         1 MW5         0.0762
     20 H2         15.9504   60.3254  -18.6201 H         1 MW5         0.2261
     21 H3         14.0916   56.4065  -17.3834 H         1 MW5         0.0521
     22 H4         15.2416   55.0965  -17.8170 H         1 MW5         0.0521
     23 H5         14.9118   55.4875  -20.9202 H         1 MW5         0.0558
     24 H6         13.2099   54.6133  -22.4642 H         1 MW5         0.0599
     25 H7         11.0899   53.7256  -21.5737 H         1 MW5         0.0558
     26 H8         10.6056   54.0118  -19.1462 H         1 MW5         0.0599
     27 H9         12.2135   55.0821  -17.6775 H         1 MW5         0.0558
@<TRIPOS>BOND
     1    1    2 2  
     2    2    3 am 
     3    2    6 1  
     4    3    4 1  
     5    3   10 1  
     6    4    5 2  
     7    5   11 1  
     8    6    7 2  
     9    6   12 1  
    10    7    8 1  
    11    7    9 1  
    12    9   10 1  
    13   10   11 2  
    14   12   13 1  
    15   13   14 ar 
    16   13   18 ar 
    17   14   15 ar 
    18   15   16 ar 
    19   16   17 ar 
    20   17   18 ar 
    21    5   19 1  
    22    9   20 1  
    23   12   21 1  
    24   12   22 1  
    25   14   23 1  
    26   15   24 1  
    27   16   25 1  
    28   17   26 1  
    29   18   27 1  
@<TRIPOS>SUBSTRUCTURE
     1 MW5         1

