### 
### Created by X-TOOL on Mon Sep 10 21:13:05 2018
### 

@<TRIPOS>MOLECULE
2yc5_ligand
   29    31     1     0     0
SMALL
GAST_HUCK


@<TRIPOS>ATOM
      1 CL17       13.8850   58.7160  -17.3980 Cl        1 6BC        -0.0001
      2 C16        15.3740   58.3100  -18.2180 C.2       1 6BC         0.1513
      3 N18        16.1300   59.3620  -18.5030 N.2       1 6BC        -0.2340
      4 C4         17.2570   59.0470  -19.1630 C.2       1 6BC         0.2100
      5 C8         15.6300   56.9630  -18.5150 C.3       1 6BC         0.1536
      6 C6         16.8080   56.7010  -19.2240 C.2       1 6BC         0.2989
      7 O7         17.1600   55.4890  -19.5650 O.2       1 6BC        -0.3521
      8 N5         17.6170   57.7940  -19.4710 N.am      1 6BC        -0.0797
      9 N19        18.8160   57.7300  -20.1790 N.2       1 6BC        -0.1813
     10 C20        19.2400   59.0070  -20.2700 C.2       1 6BC         0.0251
     11 C1         18.2690   59.8020  -19.6510 C.2       1 6BC         0.1206
     12 C2         18.3560   61.1320  -19.5470 C.1       1 6BC         0.0570
     13 N3         18.4310   62.2770  -19.4460 N.1       1 6BC        -0.3682
     14 C9         14.6740   55.9010  -18.1090 C.3       1 6BC         0.0210
     15 C10        13.6890   55.3660  -19.1140 C.ar      1 6BC        -0.0372
     16 C15        14.0180   55.1840  -20.4390 C.ar      1 6BC        -0.0599
     17 C14        13.0420   54.6520  -21.3120 C.ar      1 6BC        -0.0686
     18 C13        11.7740   54.3370  -20.8630 C.ar      1 6BC        -0.0687
     19 C12        11.4560   54.6000  -19.5340 C.ar      1 6BC        -0.0686
     20 C11        12.4320   55.0740  -18.6820 C.ar      1 6BC        -0.0599
     21 H1         16.1640   56.8348  -17.5619 H         1 6BC         0.0872
     22 H2         20.1614   59.3531  -20.7359 H         1 6BC         0.0683
     23 H3         14.0879   56.3023  -17.2691 H         1 6BC         0.0491
     24 H4         15.2735   55.0463  -17.7626 H         1 6BC         0.0491
     25 H5         15.0049   55.4434  -20.8047 H         1 6BC         0.0557
     26 H6         13.2932   54.4880  -22.3537 H         1 6BC         0.0599
     27 H7         11.0434   53.8950  -21.5308 H         1 6BC         0.0559
     28 H8         10.4483   54.4336  -19.1707 H         1 6BC         0.0599
     29 H9         12.1900   55.2184  -17.6353 H         1 6BC         0.0557
@<TRIPOS>BOND
     1    1    2 1  
     2    2    3 2  
     3    2    5 1  
     4    3    4 1  
     5    4    8 1  
     6    4   11 2  
     7    5    6 1  
     8    5   14 1  
     9    6    7 2  
    10    6    8 am 
    11    8    9 1  
    12    9   10 2  
    13   10   11 1  
    14   11   12 1  
    15   12   13 3  
    16   14   15 1  
    17   15   16 ar 
    18   15   20 ar 
    19   16   17 ar 
    20   17   18 ar 
    21   18   19 ar 
    22   19   20 ar 
    23    5   21 1  
    24   10   22 1  
    25   14   23 1  
    26   14   24 1  
    27   16   25 1  
    28   17   26 1  
    29   18   27 1  
    30   19   28 1  
    31   20   29 1  
@<TRIPOS>SUBSTRUCTURE
     1 6BC         1

