### 
### Created by X-TOOL on Mon Sep 10 21:13:06 2018
### 

@<TRIPOS>MOLECULE
2ycf_ligand
   60    61     1     0     0
SMALL
GAST_HUCK


@<TRIPOS>ATOM
      1 NAA        46.7270   22.9070  -12.1180 N.pl3     1 YCF        -0.2729
      2 NAB        47.3660   23.2680  -14.2880 N.pl3     1 YCF        -0.0263
      3 NAC        47.2310   21.1070  -13.5160 N.2       1 YCF        -0.0673
      4 NAD        46.9940   20.3110  -12.6010 N.2       1 YCF         0.0628
      5 NAE        45.9050   16.3120   -7.9750 N.am      1 YCF        -0.2185
      6 NAF        45.8540   14.9470   -6.1840 N.am      1 YCF        -0.2185
      7 NAG        46.8190   12.1420   -0.5790 N.2       1 YCF         0.0628
      8 NAH        47.0560   11.5380    0.4830 N.2       1 YCF        -0.0673
      9 NAI        45.9740   13.2180    1.6260 N.pl3     1 YCF        -0.0263
     10 NAJ        46.8500   11.4740    2.8180 N.pl3     1 YCF        -0.2729
     11 CAK        47.1110   22.4230  -13.3010 C.cat     1 YCF         0.4264
     12 CAL        47.0690   18.9820  -12.7220 C.3       1 YCF         0.2070
     13 CAM        47.5420   18.3330  -14.0280 C.3       1 YCF        -0.0077
     14 CAN        46.7960   18.2410  -11.5650 C.ar      1 YCF        -0.0057
     15 CAO        46.0110   18.8340  -10.5680 C.ar      1 YCF        -0.0692
     16 CAP        45.7340   18.1680   -9.3780 C.ar      1 YCF        -0.0475
     17 CAQ        46.2350   16.8830   -9.1600 C.ar      1 YCF         0.0605
     18 CAR        47.0280   16.2890  -10.1510 C.ar      1 YCF        -0.0475
     19 CAS        47.3190   16.9690  -11.3500 C.ar      1 YCF        -0.0692
     20 CAT        46.4870   15.2830   -7.3270 C.2       1 YCF         0.3134
     21 CAU        46.2410   14.1060   -5.1900 C.ar      1 YCF         0.0605
     22 CAV        45.4700   14.1360   -4.0170 C.ar      1 YCF        -0.0475
     23 CAW        45.7780   13.3420   -2.9150 C.ar      1 YCF        -0.0692
     24 CAX        46.8970   12.5000   -2.9360 C.ar      1 YCF        -0.0057
     25 CAY        47.6910   12.4740   -4.1020 C.ar      1 YCF        -0.0692
     26 CAZ        47.3700   13.2740   -5.2140 C.ar      1 YCF        -0.0475
     27 CBA        47.2040   11.7190   -1.8050 C.3       1 YCF         0.2070
     28 CBB        48.0540   10.4470   -1.9400 C.3       1 YCF        -0.0077
     29 CBC        46.6480   12.0810    1.6420 C.cat     1 YCF         0.4264
     30 OBD        47.4500   14.6570   -7.7720 O.2       1 YCF        -0.3818
     31 OBE        47.2400   24.6030  -14.0670 O.3       1 YCF        -0.1041
     32 OBF        45.5150   13.7630    2.7930 O.3       1 YCF        -0.1041
     33 H          46.5166   22.2695  -11.3501 H         1 YCF         0.2262
     34 H          46.6439   23.9144  -11.9818 H         1 YCF         0.2262
     35 H          47.6535   22.9212  -15.2031 H         1 YCF         0.3894
     36 H          47.5172   20.7624  -14.4324 H         1 YCF         0.3570
     37 H          45.0977   16.7213   -7.5048 H         1 YCF         0.2239
     38 H          44.9469   15.3922   -6.0451 H         1 YCF         0.2239
     39 H          47.5513   10.6464    0.4736 H         1 YCF         0.3570
     40 H          45.7957   13.6905    0.7398 H         1 YCF         0.3894
     41 H          47.3261   10.5725    2.8515 H         1 YCF         0.2262
     42 H          46.5278   11.9130    3.6805 H         1 YCF         0.2262
     43 H          46.4173   18.5058  -13.4545 H         1 YCF         0.1005
     44 H          48.4828   17.8111  -13.8530 H         1 YCF         0.0292
     45 H          46.7900   17.6233  -14.3727 H         1 YCF         0.0292
     46 H          47.6883   19.1049  -14.7836 H         1 YCF         0.0292
     47 H          45.6100   19.8350  -10.7271 H         1 YCF         0.0521
     48 H          45.1244   18.6506   -8.6141 H         1 YCF         0.0486
     49 H          47.4253   15.2865   -9.9919 H         1 YCF         0.0486
     50 H          47.9505   16.5015  -12.1055 H         1 YCF         0.0521
     51 H          44.6064   14.7992   -3.9674 H         1 YCF         0.0486
     52 H          45.1434   13.3761   -2.0295 H         1 YCF         0.0521
     53 H          48.5657   11.8248   -4.1419 H         1 YCF         0.0521
     54 H          48.0034   13.2470   -6.1007 H         1 YCF         0.0486
     55 H          46.3624   11.0739   -2.0571 H         1 YCF         0.1005
     56 H          48.9900   10.5777   -1.3969 H         1 YCF         0.0292
     57 H          47.5070    9.6003   -1.5254 H         1 YCF         0.0292
     58 H          48.2662   10.2635   -2.9933 H         1 YCF         0.0292
     59 H          47.4571   25.0811  -14.8706 H         1 YCF         0.4011
     60 H          44.9158   13.1458    3.2192 H         1 YCF         0.4011
@<TRIPOS>BOND
     1   11    1 ar 
     2   11    2 ar 
     3    2   31 1  
     4    4    3 2  
     5    3   11 ar 
     6   12    4 1  
     7    5   17 1  
     8   20    5 am 
     9    6   20 am 
    10   21    6 1  
    11    7    8 2  
    12   27    7 1  
    13    8   29 ar 
    14   29    9 ar 
    15    9   32 1  
    16   29   10 ar 
    17   12   13 1  
    18   14   12 1  
    19   15   14 ar 
    20   19   14 ar 
    21   16   15 ar 
    22   17   16 ar 
    23   17   18 ar 
    24   18   19 ar 
    25   20   30 2  
    26   22   21 ar 
    27   21   26 ar 
    28   23   22 ar 
    29   24   23 ar 
    30   24   25 ar 
    31   24   27 1  
    32   25   26 ar 
    33   27   28 1  
    34    1   33 1  
    35    1   34 1  
    36    2   35 1  
    37    3   36 1  
    38    5   37 1  
    39    6   38 1  
    40    8   39 1  
    41    9   40 1  
    42   10   41 1  
    43   10   42 1  
    44   12   43 1  
    45   13   44 1  
    46   13   45 1  
    47   13   46 1  
    48   15   47 1  
    49   16   48 1  
    50   18   49 1  
    51   19   50 1  
    52   22   51 1  
    53   23   52 1  
    54   25   53 1  
    55   26   54 1  
    56   27   55 1  
    57   28   56 1  
    58   28   57 1  
    59   28   58 1  
    60   31   59 1  
    61   32   60 1  
@<TRIPOS>SUBSTRUCTURE
     1 YCF         1

