### 
### Created by X-TOOL on Mon Sep 10 21:13:07 2018
### 

@<TRIPOS>MOLECULE
2ycm_ligand
   31    33     1     0     0
SMALL
GAST_HUCK


@<TRIPOS>ATOM
      1 CL         14.2150   58.8110  -17.7750 Cl        1 30A        -0.0304
      2 C1         18.6850   59.9200  -20.0970 C.2       1 30A         0.1119
      3 C2         18.6830   61.4110  -19.9000 C.2       1 30A         0.0808
      4 O3         19.2990   62.1100  -20.7350 O.co2     1 30A        -0.5573
      5 C4         17.6430   59.1340  -19.6240 C.ar      1 30A         0.1646
      6 O4         18.1040   61.9440  -18.9170 O.co2     1 30A        -0.5573
      7 N5         17.9500   57.8840  -19.9610 N.ar      1 30A        -0.1584
      8 C6         17.1650   56.8370  -19.6480 C.ar      1 30A         0.2600
      9 O7         17.4540   55.5460  -19.9760 O.3       1 30A        -0.2777
     10 C8         15.9920   57.1010  -18.9870 C.ar      1 30A         0.1286
     11 C9         15.1100   55.9390  -18.5970 C.3       1 30A         0.0561
     12 C10        14.0170   55.4890  -19.5410 C.ar      1 30A        -0.0105
     13 C11        12.7560   55.2110  -19.0030 C.ar      1 30A        -0.0488
     14 C12        11.7350   54.7680  -19.8200 C.ar      1 30A        -0.0615
     15 C13        11.9790   54.5900  -21.1680 C.ar      1 30A        -0.0621
     16 C14        13.2310   54.8440  -21.7040 C.ar      1 30A        -0.0615
     17 C15        14.2570   55.2930  -20.8890 C.ar      1 30A        -0.0488
     18 C16        15.7080   58.4260  -18.6420 C.ar      1 30A         0.1734
     19 N18        16.5210   59.4610  -18.9600 N.ar      1 30A        -0.2308
     20 N19        19.1530   57.7880  -20.6290 N.pl3     1 30A        -0.1729
     21 C20        19.5970   59.0690  -20.7070 C.2       1 30A         0.1296
     22 H1         17.5186   55.4673  -20.9205 H         1 30A         0.2766
     23 H2         14.6232   56.2100  -17.6486 H         1 30A         0.0794
     24 H3         15.7709   55.0745  -18.4361 H         1 30A         0.0794
     25 H4         12.5800   55.3438  -17.9417 H         1 30A         0.0606
     26 H5         10.7535   54.5623  -19.4085 H         1 30A         0.0619
     27 H6         11.1800   54.2469  -21.8152 H         1 30A         0.0614
     28 H7         13.4079   54.6912  -22.7625 H         1 30A         0.0619
     29 H8         15.2391   55.4890  -21.3038 H         1 30A         0.0606
     30 H9         19.6107   56.9377  -20.9873 H         1 30A         0.2805
     31 H10        20.5282   59.3818  -21.1772 H         1 30A         0.1508
@<TRIPOS>BOND
     1   18    1 1  
     2    2    3 1  
     3    5    2 1  
     4    2   21 2  
     5    3    4 ar 
     6    3    6 ar 
     7    7    5 ar 
     8    5   19 ar 
     9    8    7 ar 
    10    7   20 1  
    11    8    9 1  
    12   10    8 ar 
    13   10   11 1  
    14   10   18 ar 
    15   11   12 1  
    16   12   13 ar 
    17   12   17 ar 
    18   13   14 ar 
    19   14   15 ar 
    20   15   16 ar 
    21   16   17 ar 
    22   18   19 ar 
    23   20   21 1  
    24    9   22 1  
    25   11   23 1  
    26   11   24 1  
    27   13   25 1  
    28   14   26 1  
    29   15   27 1  
    30   16   28 1  
    31   17   29 1  
    32   20   30 1  
    33   21   31 1  
@<TRIPOS>SUBSTRUCTURE
     1 30A         1

