### 
### Created by X-TOOL on Mon Sep 10 21:13:07 2018
### 

@<TRIPOS>MOLECULE
2ycq_ligand
   47    50     1     0     0
SMALL
GAST_HUCK


@<TRIPOS>ATOM
      1 OBB       -49.5680  -15.8120  -11.4110 O.2       1 UPX        -0.4938
      2 NAB       -48.9160  -16.9670  -11.8910 N.2       1 UPX        -0.2230
      3 OBC       -49.2380  -17.3740  -13.1800 O.2       1 UPX        -0.4938
      4 CAJ       -47.9940  -17.6060  -11.1750 C.ar      1 UPX         0.1054
      5 CAI       -47.3380  -18.7390  -11.6610 C.ar      1 UPX        -0.0386
      6 CAH       -46.3750  -19.3700  -10.8650 C.ar      1 UPX        -0.0666
      7 CAM       -46.0670  -18.8780   -9.5990 C.ar      1 UPX        -0.0642
      8 CAL       -46.7150  -17.7390   -9.1170 C.ar      1 UPX        -0.0085
      9 CAO       -46.6330  -17.0350   -7.9760 C.2       1 UPX        -0.0357
     10 CAK       -47.6710  -17.1180   -9.9160 C.ar      1 UPX         0.1021
     11 NAA       -48.1330  -16.0760   -9.2540 N.pl3     1 UPX        -0.2610
     12 CAN       -47.5100  -16.0240   -8.0870 C.2       1 UPX         0.1497
     13 CAP       -47.8480  -14.9140   -7.0760 C.2       1 UPX         0.2925
     14 OBD       -48.7420  -14.1150   -7.3760 O.2       1 UPX        -0.3500
     15 NAC       -47.1270  -14.9100   -5.9370 N.am      1 UPX        -0.1828
     16 CAQ       -47.2870  -14.0870   -4.8750 C.ar      1 UPX         0.1459
     17 CAV       -46.4980  -14.3090   -3.7420 C.ar      1 UPX         0.0212
     18 CAU       -46.6170  -13.5380   -2.5870 C.ar      1 UPX        -0.0037
     19 CAR       -48.2170  -13.0670   -4.8260 C.ar      1 UPX         0.0212
     20 CAS       -48.3440  -12.2810   -3.6710 C.ar      1 UPX        -0.0037
     21 CAT       -47.5480  -12.4930   -2.5420 C.ar      1 UPX         0.0829
     22 CAW       -47.6830  -11.6990   -1.3920 C.2       1 UPX         0.1840
     23 CAX       -48.2940  -10.2880   -1.4510 C.3       1 UPX         0.0296
     24 NAD       -47.3100  -12.2040   -0.2110 N.2       1 UPX        -0.0067
     25 NAE       -47.3570  -11.5860    0.8690 N.pl3     1 UPX        -0.0589
     26 CAY       -46.9740  -12.2050    2.0030 C.2       1 UPX         0.3624
     27 NAF       -47.0180  -11.6760    3.2280 N.2       1 UPX        -0.2165
     28 CAZ       -46.5010  -12.6080    4.2190 C.2       1 UPX         0.0526
     29 CBA       -46.1550  -13.8310    3.4020 C.2       1 UPX         0.0997
     30 NAG       -46.5340  -13.4560    2.0400 N.pl3     1 UPX        -0.1784
     31 H         -47.5738  -19.1285  -12.6514 H         1 UPX         0.0635
     32 H         -45.8610  -20.2552  -11.2396 H         1 UPX         0.0544
     33 H         -45.3206  -19.3818   -8.9849 H         1 UPX         0.0613
     34 H         -45.9824  -17.2434   -7.1267 H         1 UPX         0.0407
     35 H         -48.8453  -15.4243   -9.5830 H         1 UPX         0.2281
     36 H         -46.3806  -15.6018   -5.8684 H         1 UPX         0.2762
     37 H         -45.7634  -15.1140   -3.7629 H         1 UPX         0.0753
     38 H         -45.9877  -13.7477   -1.7220 H         1 UPX         0.0866
     39 H         -48.8548  -12.8720   -5.6882 H         1 UPX         0.0753
     40 H         -49.0850  -11.4818   -3.6536 H         1 UPX         0.0866
     41 H         -49.2009  -10.2606   -0.8469 H         1 UPX         0.0571
     42 H         -47.5756   -9.5658   -1.0631 H         1 UPX         0.0571
     43 H         -48.5369  -10.0416   -2.4846 H         1 UPX         0.0571
     44 H         -47.6826  -10.6197    0.8951 H         1 UPX         0.3423
     45 H         -46.3900  -12.4594    5.2931 H         1 UPX         0.0807
     46 H         -45.7244  -14.7712    3.7465 H         1 UPX         0.1362
     47 H         -46.4689  -14.0720    1.2296 H         1 UPX         0.2583
@<TRIPOS>BOND
     1    1    2 2  
     2    2    3 2  
     3    2    4 1  
     4    4    5 ar 
     5    4   10 ar 
     6    5    6 ar 
     7    6    7 ar 
     8    7    8 ar 
     9    8    9 1  
    10    8   10 ar 
    11    9   12 2  
    12   10   11 1  
    13   11   12 1  
    14   12   13 1  
    15   13   14 2  
    16   13   15 am 
    17   15   16 1  
    18   16   17 ar 
    19   16   19 ar 
    20   17   18 ar 
    21   18   21 ar 
    22   19   20 ar 
    23   20   21 ar 
    24   21   22 1  
    25   22   23 1  
    26   22   24 2  
    27   24   25 1  
    28   25   26 1  
    29   26   27 2  
    30   26   30 1  
    31   27   28 1  
    32   28   29 2  
    33   29   30 1  
    34    5   31 1  
    35    6   32 1  
    36    7   33 1  
    37    9   34 1  
    38   11   35 1  
    39   15   36 1  
    40   17   37 1  
    41   18   38 1  
    42   19   39 1  
    43   20   40 1  
    44   23   41 1  
    45   23   42 1  
    46   23   43 1  
    47   25   44 1  
    48   28   45 1  
    49   29   46 1  
    50   30   47 1  
@<TRIPOS>SUBSTRUCTURE
     1 UPX         1

