### 
### Created by X-TOOL on Mon Sep 10 21:13:07 2018
### 

@<TRIPOS>MOLECULE
2ycr_ligand
   61    64     1     0     0
SMALL
GAST_HUCK


@<TRIPOS>ATOM
      1 OBH       -36.5350   33.7960    7.7370 O.2       1 HCW        -0.3781
      2 CAV       -37.1040   32.9820    8.4370 C.2       1 HCW         0.3218
      3 NAF       -37.9890   32.0890    8.0030 N.am      1 HCW        -0.2119
      4 CAW       -38.4690   31.8330    6.7630 C.ar      1 HCW         0.0702
      5 CBB       -38.0810   32.5160    5.6140 C.ar      1 HCW        -0.0389
      6 CBA       -38.6400   32.1650    4.3960 C.ar      1 HCW        -0.0650
      7 CAX       -39.4110   30.8100    6.6800 C.ar      1 HCW        -0.0389
      8 CAY       -39.9650   30.4620    5.4600 C.ar      1 HCW        -0.0650
      9 CAZ       -39.5820   31.1450    4.3090 C.ar      1 HCW        -0.0197
     10 CBC       -40.1870   30.7670    2.9900 C.2       1 HCW         0.0287
     11 CBD       -39.7980   31.4600    1.7180 C.3       1 HCW        -0.0206
     12 NAG       -41.0760   29.7740    2.9570 N.2       1 HCW        -0.2381
     13 NAH       -41.7370   29.3580    1.8890 N.pl3     1 HCW        -0.2310
     14 CBE       -42.9390   28.5400    2.0710 C.3       1 HCW         0.1292
     15 NAI       -43.5320   28.6510    3.4170 N.2       1 HCW        -0.2730
     16 CBF       -44.7540   28.9810    3.3880 C.2       1 HCW         0.0514
     17 CBG       -45.2670   29.1950    1.9860 C.3       1 HCW         0.0285
     18 NAJ       -44.0490   28.9780    1.2360 N.4       1 HCW         0.2744
     19 NAE       -36.9320   32.8670    9.7520 N.am      1 HCW        -0.2094
     20 CAS       -36.1610   33.5520   10.6340 C.ar      1 HCW         0.0747
     21 CAR       -35.2900   34.5980   10.3350 C.ar      1 HCW        -0.0344
     22 CAQ       -34.5730   35.1930   11.3620 C.ar      1 HCW        -0.0590
     23 CAP       -34.6940   34.7560   12.6860 C.ar      1 HCW        -0.0078
     24 CAU       -35.5640   33.7130   12.9620 C.ar      1 HCW        -0.0590
     25 CAT       -36.2960   33.1260   11.9460 C.ar      1 HCW        -0.0344
     26 CAN       -33.9440   35.3470   13.8550 C.2       1 HCW         0.0219
     27 CAO       -32.9510   36.4690   13.7560 C.3       1 HCW        -0.0132
     28 NAD       -34.2020   34.8130   15.0460 N.2       1 HCW        -0.2893
     29 NAC       -33.6670   35.1200   16.1250 N.2       1 HCW        -0.2664
     30 CAM       -34.2020   34.4930   17.3340 C.2       1 HCW         0.1737
     31 NAB       -33.5350   34.5610   18.6140 N.pl3     1 HCW        -0.2671
     32 CAL       -34.2460   33.7060   19.5440 C.3       1 HCW         0.0985
     33 CAK       -34.9010   32.7610   18.5440 C.2       1 HCW         0.0505
     34 NAA       -34.7950   33.1520   17.3300 N.2       1 HCW        -0.2417
     35 H         -38.3745   31.4909    8.7338 H         1 HCW         0.2283
     36 H         -37.3454   33.3183    5.6719 H         1 HCW         0.0511
     37 H         -38.3375   32.6955    3.4931 H         1 HCW         0.0589
     38 H         -39.7142   30.2795    7.5826 H         1 HCW         0.0511
     39 H         -40.6976   29.6571    5.4009 H         1 HCW         0.0589
     40 H         -39.3632   30.7355    1.0294 H         1 HCW         0.0396
     41 H         -40.6822   31.9085    1.2650 H         1 HCW         0.0396
     42 H         -39.0669   32.2378    1.9384 H         1 HCW         0.0396
     43 H         -41.4146   29.6031    0.9528 H         1 HCW         0.1934
     44 H         -42.5710   27.5401    1.8409 H         1 HCW         0.1275
     45 H         -45.3691   29.0979    4.2803 H         1 HCW         0.1262
     46 H         -45.7306   30.1674    1.8199 H         1 HCW         0.1104
     47 H         -46.0919   28.5407    1.7038 H         1 HCW         0.1104
     48 H         -44.2316   28.2446    0.5510 H         1 HCW         0.2072
     49 H         -43.7850   29.8652    0.8074 H         1 HCW         0.2072
     50 H         -37.4846   32.1227   10.1774 H         1 HCW         0.2303
     51 H         -35.1739   34.9437    9.3078 H         1 HCW         0.0523
     52 H         -33.9002   36.0194   11.1330 H         1 HCW         0.0625
     53 H         -35.6719   33.3534   13.9853 H         1 HCW         0.0625
     54 H         -36.9884   32.3174   12.1802 H         1 HCW         0.0523
     55 H         -33.2910   37.3080   14.3630 H         1 HCW         0.0443
     56 H         -31.9811   36.1270   14.1173 H         1 HCW         0.0443
     57 H         -32.8625   36.7835   12.7161 H         1 HCW         0.0443
     58 H         -32.7058   35.1156   18.8268 H         1 HCW         0.1937
     59 H         -34.9374   34.2238   20.2088 H         1 HCW         0.0846
     60 H         -33.6207   33.2213   20.2938 H         1 HCW         0.0846
     61 H         -35.4100   31.8419   18.8343 H         1 HCW         0.1332
@<TRIPOS>BOND
     1    1    2 2  
     2    2    3 am 
     3    2   19 am 
     4    3    4 1  
     5    4    5 ar 
     6    4    7 ar 
     7    5    6 ar 
     8    6    9 ar 
     9    7    8 ar 
    10    8    9 ar 
    11    9   10 1  
    12   10   11 1  
    13   10   12 2  
    14   12   13 1  
    15   13   14 1  
    16   14   15 1  
    17   14   18 1  
    18   15   16 2  
    19   16   17 1  
    20   17   18 1  
    21   19   20 1  
    22   20   21 ar 
    23   20   25 ar 
    24   21   22 ar 
    25   22   23 ar 
    26   23   24 ar 
    27   23   26 1  
    28   24   25 ar 
    29   26   27 1  
    30   26   28 2  
    31   28   29 1  
    32   29   30 2  
    33   30   31 1  
    34   30   34 1  
    35   31   32 1  
    36   32   33 1  
    37   33   34 2  
    38    3   35 1  
    39    5   36 1  
    40    6   37 1  
    41    7   38 1  
    42    8   39 1  
    43   11   40 1  
    44   11   41 1  
    45   11   42 1  
    46   13   43 1  
    47   14   44 1  
    48   16   45 1  
    49   17   46 1  
    50   17   47 1  
    51   18   48 1  
    52   18   49 1  
    53   19   50 1  
    54   21   51 1  
    55   22   52 1  
    56   24   53 1  
    57   25   54 1  
    58   27   55 1  
    59   27   56 1  
    60   27   57 1  
    61   31   58 1  
    62   32   59 1  
    63   32   60 1  
    64   33   61 1  
@<TRIPOS>SUBSTRUCTURE
     1 HCW         1

