### 
### Created by X-TOOL on Mon Sep 10 21:13:07 2018
### 

@<TRIPOS>MOLECULE
2ycs_ligand
   44    46     1     0     0
SMALL
GAST_HUCK


@<TRIPOS>ATOM
      1 NAB       -36.8530   33.1920    9.3580 N.am      1 NXP        -0.1925
      2 CAP       -36.1900   33.8100   10.4610 C.ar      1 NXP         0.1403
      3 CAU       -36.0290   32.9970   11.5890 C.ar      1 NXP         0.0137
      4 CAT       -35.4230   33.4590   12.7590 C.ar      1 NXP        -0.0155
      5 CAS       -34.9230   34.7600   12.8140 C.ar      1 NXP         0.0531
      6 CAR       -35.0950   35.5780   11.6860 C.ar      1 NXP        -0.0155
      7 CAQ       -35.6920   35.1170   10.5210 C.ar      1 NXP         0.0137
      8 CAV       -34.2680   35.3010   14.0690 C.2       1 NXP         0.1292
      9 CAW       -33.3690   36.5220   14.0880 C.3       1 NXP         0.0091
     10 NAC       -34.4920   34.7090   15.2450 N.2       1 NXP        -0.1109
     11 NAD       -33.9980   35.1470   16.3210 N.pl3     1 NXP        -0.1953
     12 CAX       -34.3020   34.5030   17.4480 C.cat     1 NXP         0.1648
     13 NAF       -35.1050   33.4640   17.3830 N.pl3     1 NXP        -0.3516
     14 NAE       -33.8210   34.8590   18.6310 N.pl3     1 NXP        -0.3516
     15 OAY       -36.9110   34.5820    7.5730 O.2       1 NXP        -0.3684
     16 CAO       -37.1830   33.5090    8.1120 C.2       1 NXP         0.2452
     17 CAN       -37.9070   32.3260    7.5060 C.2       1 NXP         0.0669
     18 CAM       -38.0300   31.0540    8.0580 C.2       1 NXP         0.0513
     19 NAA       -38.7540   30.2930    7.1970 N.pl3     1 NXP        -0.2696
     20 CAJ       -39.1050   31.0250    6.1170 C.ar      1 NXP         0.0694
     21 CAI       -39.8460   30.6780    4.9860 C.ar      1 NXP        -0.0416
     22 CAH       -40.0610   31.6360    4.0030 C.ar      1 NXP        -0.0755
     23 CAG       -39.5450   32.9200    4.1670 C.ar      1 NXP        -0.0781
     24 CAL       -38.8020   33.2700    5.3080 C.ar      1 NXP        -0.0728
     25 CAK       -38.5850   32.3140    6.2850 C.ar      1 NXP        -0.0065
     26 H         -37.1567   32.2467    9.5917 H         1 NXP         0.2760
     27 H         -36.3888   31.9687   11.5528 H         1 NXP         0.0742
     28 H         -35.3409   32.8048   13.6270 H         1 NXP         0.0790
     29 H         -34.7478   36.6104   11.7266 H         1 NXP         0.0790
     30 H         -35.7731   35.7720    9.6535 H         1 NXP         0.0742
     31 H         -33.8097   37.2861   14.7283 H         1 NXP         0.0483
     32 H         -32.3885   36.2437   14.4743 H         1 NXP         0.0483
     33 H         -33.2649   36.9108   13.0750 H         1 NXP         0.0483
     34 H         -33.3880   35.9645   16.3279 H         1 NXP         0.2462
     35 H         -35.4816   33.1660   16.4831 H         1 NXP         0.1655
     36 H         -35.3514   32.9559   18.2324 H         1 NXP         0.1655
     37 H         -33.1896   35.6566   18.7058 H         1 NXP         0.1655
     38 H         -34.0823   34.3353   19.4664 H         1 NXP         0.1655
     39 H         -37.6180   30.7266    9.0126 H         1 NXP         0.1068
     40 H         -38.9969   29.3133    7.3440 H         1 NXP         0.2321
     41 H         -40.2495   29.6715    4.8758 H         1 NXP         0.0549
     42 H         -40.6303   31.3845    3.1082 H         1 NXP         0.0534
     43 H         -39.7211   33.6686    3.3945 H         1 NXP         0.0520
     44 H         -38.4032   34.2781    5.4214 H         1 NXP         0.0539
@<TRIPOS>BOND
     1    1    2 1  
     2    1   16 am 
     3    2    3 ar 
     4    2    7 ar 
     5    3    4 ar 
     6    4    5 ar 
     7    5    6 ar 
     8    5    8 1  
     9    6    7 ar 
    10    8    9 1  
    11    8   10 2  
    12   10   11 1  
    13   11   12 ar 
    14   12   13 ar 
    15   12   14 ar 
    16   16   15 2  
    17   16   17 1  
    18   17   18 2  
    19   17   25 1  
    20   18   19 1  
    21   19   20 1  
    22   20   21 ar 
    23   20   25 ar 
    24   21   22 ar 
    25   22   23 ar 
    26   23   24 ar 
    27   24   25 ar 
    28    1   26 1  
    29    3   27 1  
    30    4   28 1  
    31    6   29 1  
    32    7   30 1  
    33    9   31 1  
    34    9   32 1  
    35    9   33 1  
    36   11   34 1  
    37   13   35 1  
    38   13   36 1  
    39   14   37 1  
    40   14   38 1  
    41   18   39 1  
    42   19   40 1  
    43   21   41 1  
    44   22   42 1  
    45   23   43 1  
    46   24   44 1  
@<TRIPOS>SUBSTRUCTURE
     1 NXP         1

