### 
### Created by X-TOOL on Mon Sep 10 21:13:08 2018
### 

@<TRIPOS>MOLECULE
2yde_ligand
   16    15     1     0     0
SMALL
GAST_HUCK


@<TRIPOS>ATOM
      1 C1        -18.4450   20.8160   -8.4900 C.2       1 S2G         0.0634
      2 C3        -18.1380   23.2860   -8.1850 C.3       1 S2G        -0.0033
      3 C4        -17.6500   24.3870   -7.2390 C.3       1 S2G         0.0041
      4 C5        -17.9460   25.7880   -7.7820 C.2       1 S2G         0.0350
      5 O2        -17.7410   19.7970   -8.6470 O.co2     1 S2G        -0.5663
      6 O1        -19.5570   21.0280   -9.0180 O.co2     1 S2G        -0.5663
      7 O3        -16.5050   21.6930   -7.3480 O.3       1 S2G        -0.3776
      8 O5        -17.4060   26.7480   -7.1920 O.co2     1 S2G        -0.5690
      9 C2        -17.9040   21.9090   -7.5650 C.3       1 S2G         0.1087
     10 O4        -18.7100   25.8680   -8.7670 O.co2     1 S2G        -0.5690
     11 H1        -17.5876   23.3540   -9.1350 H         1 S2G         0.0326
     12 H2        -19.2133   23.4205   -8.3737 H         1 S2G         0.0326
     13 H3        -16.5635   24.2818   -7.1032 H         1 S2G         0.0432
     14 H4        -18.1539   24.2694   -6.2683 H         1 S2G         0.0432
     15 H5        -16.3743   20.8345   -6.9628 H         1 S2G         0.2123
     16 H6        -18.4300   21.8581   -6.6003 H         1 S2G         0.0764
@<TRIPOS>BOND
     1    1    5 ar 
     2    1    6 ar 
     3    9    1 1  
     4    2    3 1  
     5    2    9 1  
     6    3    4 1  
     7    4    8 ar 
     8    4   10 ar 
     9    9    7 1  
    10    2   11 1  
    11    2   12 1  
    12    3   13 1  
    13    3   14 1  
    14    7   15 1  
    15    9   16 1  
@<TRIPOS>SUBSTRUCTURE
     1 S2G         1

