### 
### Created by X-TOOL on Mon Sep 10 21:13:07 2018
### 

@<TRIPOS>MOLECULE
2ydf_ligand
   27    27     1     0     0
SMALL
GAST_HUCK


@<TRIPOS>ATOM
      1 I1          7.2560  -13.1420    7.2940 I         1 IO3        -0.0633
      2 I2          3.9020  -12.0250   12.0250 I         1 IO3        -0.0610
      3 I3          3.1480   -8.5590    7.2340 I         1 IO3        -0.0618
      4 O1          2.8260   -9.7470   10.0540 O.3       1 IO3        -0.3288
      5 O2          4.6850   -8.9210    3.1840 O.co2     1 IO3        -0.5685
      6 O3          6.2480  -10.4520    3.3010 O.co2     1 IO3        -0.5685
      7 C1          5.1420  -10.9020    7.4700 C.ar      1 IO3        -0.0257
      8 C2          5.7490  -11.9520    8.1530 C.ar      1 IO3         0.0051
      9 C3          5.3910  -12.2650    9.4430 C.ar      1 IO3        -0.0527
     10 C4          4.4180  -11.5240   10.0610 C.ar      1 IO3         0.0358
     11 C5          3.8000  -10.4780    9.4150 C.ar      1 IO3         0.1060
     12 C6          4.1630  -10.1650    8.1250 C.ar      1 IO3         0.0434
     13 C7          5.5660  -10.5750    6.0730 C.3       1 IO3        -0.0031
     14 C8          4.5430  -10.4550    4.9960 C.3       1 IO3         0.0222
     15 C9          5.1940   -9.9200    3.7620 C.2       1 IO3         0.0400
     16 C10         3.9240  -11.7820    4.7160 C.3       1 IO3        -0.0395
     17 C11         4.7530  -12.8490    4.0840 C.3       1 IO3        -0.0634
     18 H           2.1012  -10.3269   10.2990 H         1 IO3         0.2511
     19 H           5.8739  -13.0902    9.9663 H         1 IO3         0.0650
     20 H           6.1846  -11.4197    5.7700 H         1 IO3         0.0463
     21 H           6.0045   -9.5798    6.1460 H         1 IO3         0.0463
     22 H           3.7564   -9.7734    5.3197 H         1 IO3         0.0490
     23 H           3.1339  -11.5761    3.9938 H         1 IO3         0.0285
     24 H           3.6557  -12.1785    5.6952 H         1 IO3         0.0285
     25 H           5.1098  -12.5033    3.1138 H         1 IO3         0.0231
     26 H           5.6043  -13.0743    4.7264 H         1 IO3         0.0231
     27 H           4.1486  -13.7464    3.9516 H         1 IO3         0.0231
@<TRIPOS>BOND
     1    8    1 1  
     2   10    2 1  
     3   12    3 1  
     4   11    4 1  
     5   15    5 ar 
     6   15    6 ar 
     7    7    8 ar 
     8    7   12 ar 
     9   13    7 1  
    10    8    9 ar 
    11    9   10 ar 
    12   11   10 ar 
    13   12   11 ar 
    14   14   13 1  
    15   14   15 1  
    16   14   16 1  
    17   16   17 1  
    18    4   18 1  
    19    9   19 1  
    20   13   20 1  
    21   13   21 1  
    22   14   22 1  
    23   16   23 1  
    24   16   24 1  
    25   17   25 1  
    26   17   26 1  
    27   17   27 1  
@<TRIPOS>SUBSTRUCTURE
     1 IO3         1

