### 
### Created by X-TOOL on Mon Sep 10 21:13:09 2018
### 

@<TRIPOS>MOLECULE
2ydi_ligand
   45    46     1     0     0
SMALL
GAST_HUCK


@<TRIPOS>ATOM
      1 S01         2.7040   -3.2270   19.9480 S.3       1 YDI        -0.0046
      2 C02         3.9910   -3.9740   19.0660 C.2       1 YDI         0.1590
      3 C03         3.5570   -5.1270   18.4340 C.2       1 YDI         0.0539
      4 C04         2.1780   -5.3590   18.6910 C.2       1 YDI        -0.0746
      5 C05         1.5620   -4.4230   19.5050 C.2       1 YDI         0.0138
      6 N06         5.2890   -3.4650   19.0100 N.am      1 YDI        -0.1910
      7 C07         5.6100   -2.2280   19.5250 C.2       1 YDI         0.2978
      8 N08         6.8540   -1.7920   19.1610 N.am      1 YDI        -0.2793
      9 O09         4.8580   -1.5750   20.2450 O.2       1 YDI        -0.3855
     10 C10         4.4510   -5.9240   17.6230 C.2       1 YDI         0.1681
     11 O11         5.6370   -5.6480   17.4900 O.2       1 YDI        -0.4096
     12 N12         3.8280   -6.9810   16.9920 N.am      1 YDI        -0.3078
     13 C14        -7.2820   -3.6610   20.3140 C.3       1 YDI        -0.0433
     14 N15        -6.0700   -2.8400   20.5130 N.4       1 YDI         0.2328
     15 C16        -5.5990   -2.8700   21.9200 C.3       1 YDI        -0.0040
     16 C17        -4.0970   -3.0410   21.8770 C.3       1 YDI         0.1093
     17 C19         0.1870   -4.3280   19.9610 C.ar      1 YDI        -0.0374
     18 C20        -0.2480   -3.2880   20.7620 C.ar      1 YDI        -0.0700
     19 C21        -1.5700   -3.1930   21.1620 C.ar      1 YDI        -0.0379
     20 C22        -2.4600   -4.1660   20.7440 C.ar      1 YDI         0.0868
     21 C2         -6.2480   -1.4570   20.0080 C.3       1 YDI        -0.0433
     22 C23        -2.0380   -5.2080   19.9460 C.ar      1 YDI        -0.0379
     23 C24        -0.7220   -5.2820   19.5530 C.ar      1 YDI        -0.0700
     24 O1         -3.8040   -4.1800   21.0820 O.3       1 YDI        -0.3155
     25 H1          1.6436   -6.2127   18.2769 H         1 YDI         0.0395
     26 H2          6.0076   -4.0143   18.5834 H         1 YDI         0.2427
     27 H3          7.1864   -0.9048   19.4811 H         1 YDI         0.1819
     28 H4          7.4313   -2.3604   18.5747 H         1 YDI         0.1819
     29 H5          4.3565   -7.5955   16.4062 H         1 YDI         0.1791
     30 H6          2.8479   -7.1326   17.1204 H         1 YDI         0.1791
     31 H7         -7.5920   -3.6076   19.2599 H         1 YDI         0.0777
     32 H8         -8.0917   -3.2806   20.9540 H         1 YDI         0.0777
     33 H9         -7.0647   -4.7060   20.5798 H         1 YDI         0.0777
     34 H10        -5.3418   -3.2592   19.9563 H         1 YDI         0.2029
     35 H11        -6.0604   -3.7128   22.4555 H         1 YDI         0.0841
     36 H12        -5.8581   -1.9282   22.4258 H         1 YDI         0.0841
     37 H13        -3.7094   -3.1881   22.8959 H         1 YDI         0.0667
     38 H14        -3.6328   -2.1478   21.4335 H         1 YDI         0.0667
     39 H15         0.4599   -2.5324   21.0829 H         1 YDI         0.0542
     40 H16        -1.9007   -2.3733   21.7896 H         1 YDI         0.0533
     41 H17        -6.5967   -1.4895   18.9652 H         1 YDI         0.0777
     42 H18        -5.2880   -0.9223   20.0570 H         1 YDI         0.0777
     43 H19        -6.9914   -0.9334   20.6270 H         1 YDI         0.0777
     44 H20        -2.7426   -5.9682   19.6286 H         1 YDI         0.0533
     45 H21        -0.3963   -6.0972   18.9170 H         1 YDI         0.0542
@<TRIPOS>BOND
     1    1    2 1  
     2    5    1 1  
     3    3    2 2  
     4    2    6 1  
     5    4    3 1  
     6    3   10 1  
     7    5    4 2  
     8   17    5 1  
     9    6    7 am 
    10    7    8 am 
    11    7    9 2  
    12   10   11 2  
    13   10   12 am 
    14   14   13 1  
    15   15   14 1  
    16   14   21 1  
    17   16   15 1  
    18   24   16 1  
    19   18   17 ar 
    20   17   23 ar 
    21   19   18 ar 
    22   20   19 ar 
    23   20   22 ar 
    24   20   24 1  
    25   22   23 ar 
    26    4   25 1  
    27    6   26 1  
    28    8   27 1  
    29    8   28 1  
    30   12   29 1  
    31   12   30 1  
    32   13   31 1  
    33   13   32 1  
    34   13   33 1  
    35   14   34 1  
    36   15   35 1  
    37   15   36 1  
    38   16   37 1  
    39   16   38 1  
    40   18   39 1  
    41   19   40 1  
    42   21   41 1  
    43   21   42 1  
    44   21   43 1  
    45   22   44 1  
    46   23   45 1  
@<TRIPOS>SUBSTRUCTURE
     1 YDI         1

