### 
### Created by X-TOOL on Mon Sep 10 21:13:11 2018
### 

@<TRIPOS>MOLECULE
2ydj_ligand
   45    47     1     0     0
SMALL
GAST_HUCK


@<TRIPOS>ATOM
      1 C1          9.2180   -1.2330   46.6090 C.ar      1 YDJ        -0.0629
      2 C2          7.9690   -1.2940   46.0070 C.ar      1 YDJ        -0.0568
      3 C3          7.2630   -2.4770   45.9420 C.ar      1 YDJ        -0.0076
      4 C4          7.8150   -3.6100   46.5010 C.ar      1 YDJ        -0.0196
      5 C5          9.0580   -3.5510   47.0900 C.ar      1 YDJ         0.1328
      6 C6          9.7740   -2.3710   47.1510 C.ar      1 YDJ        -0.0281
      7 F1          9.5570   -4.6800   47.6230 F         1 YDJ        -0.1836
      8 C7          5.9730   -2.5440   45.2730 C.2       1 YDJ         0.0367
      9 C8          5.4240   -1.7070   44.3220 C.2       1 YDJ        -0.0273
     10 C9          4.1240   -2.0850   43.9010 C.2       1 YDJ         0.0745
     11 C10         3.6650   -3.2280   44.5210 C.2       1 YDJ         0.1053
     12 S1          4.8540   -3.8030   45.6210 S.3       1 YDJ        -0.0446
     13 C11         2.3830   -3.8490   44.2870 C.2       1 YDJ         0.1850
     14 O1          1.5590   -3.3440   43.5240 O.2       1 YDJ        -0.4085
     15 N1          2.1110   -5.0300   44.9490 N.am      1 YDJ        -0.2850
     16 C12         0.7140   -5.4280   44.9620 C.3       1 YDJ         0.0799
     17 C13         0.5650   -6.9220   44.7110 C.3       1 YDJ        -0.0204
     18 C14        -0.8490   -7.4230   44.9750 C.3       1 YDJ        -0.0103
     19 C15        -1.2520   -7.1160   46.4030 C.3       1 YDJ        -0.0335
     20 N2         -1.2310   -5.6220   46.4710 N.4       1 YDJ         0.2286
     21 C16         0.1070   -4.9850   46.2820 C.3       1 YDJ        -0.0104
     22 N3          3.3350   -1.4360   42.9570 N.am      1 YDJ        -0.2250
     23 C17         3.5890   -0.1590   42.5230 C.2       1 YDJ         0.2830
     24 O2          4.6340    0.4540   42.7080 O.2       1 YDJ        -0.3911
     25 N4          2.5050    0.3420   41.8320 N.am      1 YDJ        -0.2819
     26 H1          9.7548   -0.2922   46.6526 H         1 YDJ         0.0608
     27 H2          7.5402   -0.3947   45.5798 H         1 YDJ         0.0591
     28 H3          7.2705   -4.5470   46.4768 H         1 YDJ         0.0608
     29 H4         10.7529   -2.3412   47.6157 H         1 YDJ         0.0605
     30 H5          5.9435   -0.8338   43.9300 H         1 YDJ         0.0453
     31 H6          2.8260   -5.5734   45.3888 H         1 YDJ         0.1828
     32 H7          0.1922   -4.9005   44.1499 H         1 YDJ         0.0606
     33 H8          1.2589   -7.4612   45.3727 H         1 YDJ         0.0291
     34 H9          0.8222   -7.1302   43.6620 H         1 YDJ         0.0291
     35 H10        -0.8861   -8.5103   44.8123 H         1 YDJ         0.0317
     36 H11        -1.5462   -6.9250   44.2852 H         1 YDJ         0.0317
     37 H12        -0.5336   -7.5500   47.1140 H         1 YDJ         0.0814
     38 H13        -2.2591   -7.5031   46.6170 H         1 YDJ         0.0814
     39 H14        -1.5796   -5.3480   47.3762 H         1 YDJ         0.2014
     40 H15        -1.8457   -5.2704   45.7537 H         1 YDJ         0.2014
     41 H16        -0.0078   -3.8910   46.2808 H         1 YDJ         0.0836
     42 H17         0.7715   -5.2831   47.1063 H         1 YDJ         0.0836
     43 H18         2.5475   -1.9216   42.5776 H         1 YDJ         0.2235
     44 H19         2.5382    1.2662   41.4516 H         1 YDJ         0.1815
     45 H20         1.6861   -0.2191   41.7115 H         1 YDJ         0.1815
@<TRIPOS>BOND
     1    1    2 ar 
     2    1    6 ar 
     3    2    3 ar 
     4    3    4 ar 
     5    3    8 1  
     6    4    5 ar 
     7    5    6 ar 
     8    5    7 1  
     9    8    9 2  
    10    8   12 1  
    11    9   10 1  
    12   10   11 2  
    13   10   22 1  
    14   11   12 1  
    15   11   13 1  
    16   13   14 2  
    17   13   15 am 
    18   15   16 1  
    19   16   17 1  
    20   16   21 1  
    21   17   18 1  
    22   18   19 1  
    23   19   20 1  
    24   20   21 1  
    25   22   23 am 
    26   23   24 2  
    27   23   25 am 
    28    1   26 1  
    29    2   27 1  
    30    4   28 1  
    31    6   29 1  
    32    9   30 1  
    33   15   31 1  
    34   16   32 1  
    35   17   33 1  
    36   17   34 1  
    37   18   35 1  
    38   18   36 1  
    39   19   37 1  
    40   19   38 1  
    41   20   39 1  
    42   20   40 1  
    43   21   41 1  
    44   21   42 1  
    45   22   43 1  
    46   25   44 1  
    47   25   45 1  
@<TRIPOS>SUBSTRUCTURE
     1 YDJ         1

