### 
### Created by X-TOOL on Mon Sep 10 21:13:09 2018
### 

@<TRIPOS>MOLECULE
2ydk_ligand
   45    47     1     0     0
SMALL
GAST_HUCK


@<TRIPOS>ATOM
      1 S01         1.2590   71.9410   10.0000 S.3       1 YDK        -0.0013
      2 C02         2.7360   72.8250    9.7660 C.2       1 YDK         0.1625
      3 C03         2.9350   73.8130   10.7180 C.2       1 YDK         0.0585
      4 C04         1.8450   73.8320   11.6340 C.2       1 YDK        -0.0698
      5 C05         0.8610   72.8960   11.3850 C.2       1 YDK         0.0204
      6 N06         3.5990   72.5150    8.7140 N.am      1 YDK        -0.1890
      7 C07         3.3740   71.4330    7.9070 C.2       1 YDK         0.2988
      8 N08         4.4360   71.0590    7.1280 N.am      1 YDK        -0.2792
      9 O09         2.3180   70.8440    7.8680 O.2       1 YDK        -0.3850
     10 C10         4.1220   74.6620   10.7220 C.2       1 YDK         0.1723
     11 O11         5.0040   74.5430    9.8990 O.2       1 YDK        -0.4090
     12 N12         4.2280   75.5830   11.7290 N.am      1 YDK        -0.2855
     13 C13         5.5240   76.1430   12.0570 C.3       1 YDK         0.0802
     14 C14         6.2170   75.2340   13.0390 C.3       1 YDK        -0.0103
     15 N15         7.5240   75.8190   13.4510 N.4       1 YDK         0.2286
     16 C16         7.4040   77.1600   14.0990 C.3       1 YDK        -0.0335
     17 C17         6.7580   78.0830   13.0800 C.3       1 YDK        -0.0103
     18 C18         5.4040   77.5620   12.6190 C.3       1 YDK        -0.0203
     19 C19        -0.3740   72.6280   12.1140 C.ar      1 YDK        -0.0291
     20 C20        -0.8100   73.4350   13.1440 C.ar      1 YDK        -0.0639
     21 C21        -1.9880   73.1630   13.8240 C.ar      1 YDK        -0.0693
     22 C22        -2.7240   72.0570   13.4540 C.ar      1 YDK        -0.0691
     23 C23        -2.3000   71.2370   12.4270 C.ar      1 YDK        -0.0693
     24 C24        -1.1290   71.5280   11.7660 C.ar      1 YDK        -0.0639
     25 H           1.7915   74.5319   12.4679 H         1 YDK         0.0434
     26 H           4.4127   73.1060    8.5434 H         1 YDK         0.2440
     27 H           4.3486   70.2650    6.4937 H         1 YDK         0.1820
     28 H           5.3146   71.5744    7.1819 H         1 YDK         0.1820
     29 H           3.3985   75.8740   12.2464 H         1 YDK         0.1833
     30 H           6.1148   76.2152   11.1438 H         1 YDK         0.0607
     31 H           6.3926   74.2675   12.5667 H         1 YDK         0.0836
     32 H           5.5866   75.1151   13.9202 H         1 YDK         0.0836
     33 H           8.0849   75.9370   12.6073 H         1 YDK         0.2014
     34 H           7.9397   75.1861   14.1344 H         1 YDK         0.2014
     35 H           8.3829   77.5357   14.3968 H         1 YDK         0.0814
     36 H           6.8011   77.1002   15.0051 H         1 YDK         0.0814
     37 H           7.4137   78.1451   12.2115 H         1 YDK         0.0317
     38 H           6.6083   79.0562   13.5474 H         1 YDK         0.0317
     39 H           4.7273   77.5435   13.4733 H         1 YDK         0.0291
     40 H           5.0258   78.2177   11.8347 H         1 YDK         0.0291
     41 H          -0.2170   74.3039   13.4294 H         1 YDK         0.0558
     42 H          -2.3249   73.8100   14.6339 H         1 YDK         0.0597
     43 H          -3.6515   71.8273   13.9785 H         1 YDK         0.0556
     44 H          -2.8890   70.3652   12.1420 H         1 YDK         0.0597
     45 H          -0.7935   70.8801   10.9562 H         1 YDK         0.0558
@<TRIPOS>BOND
     1    1    2 1  
     2    1    5 1  
     3    2    3 2  
     4    2    6 1  
     5    3    4 1  
     6    3   10 1  
     7    4    5 2  
     8    5   19 1  
     9    6    7 am 
    10    7    8 am 
    11    7    9 2  
    12   10   11 2  
    13   10   12 am 
    14   12   13 1  
    15   13   14 1  
    16   13   18 1  
    17   14   15 1  
    18   15   16 1  
    19   16   17 1  
    20   17   18 1  
    21   19   20 ar 
    22   19   24 ar 
    23   20   21 ar 
    24   21   22 ar 
    25   22   23 ar 
    26   23   24 ar 
    27    4   25 1  
    28    6   26 1  
    29    8   27 1  
    30    8   28 1  
    31   12   29 1  
    32   13   30 1  
    33   14   31 1  
    34   14   32 1  
    35   15   33 1  
    36   15   34 1  
    37   16   35 1  
    38   16   36 1  
    39   17   37 1  
    40   17   38 1  
    41   18   39 1  
    42   18   40 1  
    43   20   41 1  
    44   21   42 1  
    45   22   43 1  
    46   23   44 1  
    47   24   45 1  
@<TRIPOS>SUBSTRUCTURE
     1 YDK         1

