### 
### Created by X-TOOL on Mon Sep 10 21:13:08 2018
### 

@<TRIPOS>MOLECULE
2ydo_ligand
   32    34     1     0     0
SMALL
GAST_HUCK


@<TRIPOS>ATOM
      1 O5'       -29.2330   10.5700  -26.0220 O.3       1 ADN        -0.3924
      2 C5'       -29.4640   11.8130  -25.3530 C.3       1 ADN         0.0730
      3 C4'       -29.7040   11.5740  -23.8670 C.3       1 ADN         0.1135
      4 O4'       -30.6650   10.5270  -23.6910 O.3       1 ADN        -0.3368
      5 C3'       -28.4670   11.1510  -23.0840 C.3       1 ADN         0.1146
      6 O3'       -27.7250   12.2450  -22.5260 O.3       1 ADN        -0.3864
      7 C2'       -29.0500   10.2980  -21.9850 C.3       1 ADN         0.1385
      8 O2'       -29.3760   11.1150  -20.8570 O.3       1 ADN        -0.3836
      9 C1'       -30.3120    9.7000  -22.5840 C.3       1 ADN         0.2010
     10 N9        -30.0220    8.3070  -23.0090 N.pl3     1 ADN        -0.1919
     11 C8        -29.6630    7.8860  -24.2420 C.2       1 ADN         0.1123
     12 N7        -29.4630    6.5420  -24.2560 N.2       1 ADN        -0.2958
     13 C5        -29.6840    6.0870  -23.0110 C.ar      1 ADN         0.1045
     14 C6        -29.6570    4.7730  -22.3340 C.ar      1 ADN         0.1298
     15 N6        -29.3340    3.6420  -23.0080 N.pl3     1 ADN        -0.3152
     16 N1        -29.9680    4.7450  -21.0190 N.ar      1 ADN        -0.2698
     17 C2        -30.2950    5.8540  -20.3270 C.ar      1 ADN         0.0533
     18 N3        -30.3410    7.0790  -20.8840 N.ar      1 ADN        -0.2714
     19 C4        -30.0530    7.2540  -22.1940 C.ar      1 ADN         0.1613
     20 H         -29.0834   10.7336  -26.9559 H         1 ADN         0.2095
     21 H         -30.3430   12.2922  -25.7839 H         1 ADN         0.0584
     22 H         -28.5893   12.4519  -25.4750 H         1 ADN         0.0584
     23 H         -30.0412   12.5374  -23.4845 H         1 ADN         0.0647
     24 H         -27.7437   10.6471  -23.7251 H         1 ADN         0.0648
     25 H         -26.9643   11.9043  -22.0497 H         1 ADN         0.2100
     26 H         -28.3565    9.5310  -21.6401 H         1 ADN         0.0676
     27 H         -29.7462   10.5660  -20.1620 H         1 ADN         0.2101
     28 H         -31.1385    9.6625  -21.8744 H         1 ADN         0.0996
     29 H         -29.5492    8.5370  -25.1088 H         1 ADN         0.1349
     30 H         -29.1038    3.6880  -24.0006 H         1 ADN         0.1820
     31 H         -29.3211    2.7450  -22.5225 H         1 ADN         0.1820
     32 H         -30.5332    5.7549  -19.2680 H         1 ADN         0.0996
@<TRIPOS>BOND
     1    1    2 1  
     2    2    3 1  
     3    3    4 1  
     4    3    5 1  
     5    4    9 1  
     6    5    6 1  
     7    5    7 1  
     8    7    8 1  
     9    7    9 1  
    10    9   10 1  
    11   10   11 1  
    12   10   19 1  
    13   11   12 2  
    14   12   13 1  
    15   13   14 ar 
    16   13   19 ar 
    17   14   15 1  
    18   14   16 ar 
    19   16   17 ar 
    20   17   18 ar 
    21   18   19 ar 
    22    1   20 1  
    23    2   21 1  
    24    2   22 1  
    25    3   23 1  
    26    5   24 1  
    27    6   25 1  
    28    7   26 1  
    29    8   27 1  
    30    9   28 1  
    31   11   29 1  
    32   15   30 1  
    33   15   31 1  
    34   17   32 1  
@<TRIPOS>SUBSTRUCTURE
     1 ADN         1

