### 
### Created by X-TOOL on Mon Sep 10 21:13:05 2018
### 

@<TRIPOS>MOLECULE
2ydt_ligand
   38    39     1     0     0
SMALL
GAST_HUCK


@<TRIPOS>ATOM
      1 O2'        64.3550   26.4330   55.1530 O.3       1 EDG        -0.3837
      2 C2'        65.5060   26.4670   54.2620 C.3       1 EDG         0.1258
      3 C1'        65.0730   26.1030   52.8560 C.3       1 EDG        -0.0039
      4 N4'        65.2460   27.3310   52.0690 N.4       1 EDG         0.2346
      5 C3'        66.1630   27.8510   54.1740 C.3       1 EDG         0.1304
      6 O3'        67.4370   27.9450   54.8490 O.3       1 EDG        -0.3833
      7 C4'        66.3520   28.0740   52.6620 C.3       1 EDG         0.0306
      8 C5'        66.4060   29.5100   52.2170 C.3       1 EDG         0.0959
      9 O5'        66.8520   29.5160   50.8690 O.3       1 EDG        -0.3431
     10 O5'        63.2810   32.2020   48.7990 O.3       1 AHR        -0.3924
     11 C5'        64.5700   32.3730   48.1850 C.3       1 AHR         0.0730
     12 C4'        65.5470   31.3140   48.6330 C.3       1 AHR         0.1131
     13 O4'        65.8230   31.3750   50.0180 O.3       1 AHR        -0.3405
     14 C3'        66.9480   31.4870   48.0170 C.3       1 AHR         0.1141
     15 O3'        67.0510   30.9760   46.6640 O.3       1 AHR        -0.3864
     16 C2'        67.7900   30.6490   48.9480 C.3       1 AHR         0.1341
     17 O2'        69.1650   31.0450   49.0580 O.3       1 AHR        -0.3841
     18 C1'        67.0760   30.7920   50.2650 C.3       1 AHR         0.1882
     19 H1         63.7041   27.0561   54.8517 H         1 EDG         0.2101
     20 H2         66.2479   25.7396   54.6233 H         1 EDG         0.0675
     21 H3         64.0202   25.7844   52.8470 H         1 EDG         0.0840
     22 H4         65.7038   25.2960   52.4550 H         1 EDG         0.0840
     23 H5         64.4032   27.8829   52.1012 H         1 EDG         0.2019
     24 H6         65.4599   27.0998   51.1115 H         1 EDG         0.2019
     25 H7         65.4873   28.6099   54.5953 H         1 EDG         0.0679
     26 H8         67.3207   27.7488   55.7713 H         1 EDG         0.2102
     27 H9         67.3019   27.6117   52.3554 H         1 EDG         0.0900
     28 H10        67.1081   30.0740   52.8486 H         1 EDG         0.0618
     29 H11        65.4061   29.9634   52.2850 H         1 EDG         0.0618
     30 H12        62.6936   32.8839   48.4949 H         1 EDG         0.2095
     31 H13        64.9665   33.3620   48.4581 H         1 EDG         0.0584
     32 H14        64.4553   32.3128   47.0927 H         1 EDG         0.0584
     33 H15        65.1328   30.3299   48.3684 H         1 EDG         0.0647
     34 H16        67.2555   32.5431   48.0308 H         1 EDG         0.0648
     35 H17        66.4350   31.4354   46.1054 H         1 EDG         0.2100
     36 H18        67.7682   29.6008   48.6153 H         1 EDG         0.0671
     37 H19        69.2116   31.9370   49.3817 H         1 EDG         0.2101
     38 H20        67.6677   31.4260   50.9418 H         1 EDG         0.0937
@<TRIPOS>BOND
     1    2    1 1  
     2    2    3 1  
     3    5    2 1  
     4    4    3 1  
     5    7    4 1  
     6    5    6 1  
     7    7    5 1  
     8    8    7 1  
     9    9    8 1  
    10   18    9 1  
    11   11   10 1  
    12   12   11 1  
    13   13   12 1  
    14   12   14 1  
    15   13   18 1  
    16   14   15 1  
    17   14   16 1  
    18   16   17 1  
    19   16   18 1  
    20    1   19 1  
    21    2   20 1  
    22    3   21 1  
    23    3   22 1  
    24    4   23 1  
    25    4   24 1  
    26    5   25 1  
    27    6   26 1  
    28    7   27 1  
    29    8   28 1  
    30    8   29 1  
    31   10   30 1  
    32   11   31 1  
    33   11   32 1  
    34   12   33 1  
    35   14   34 1  
    36   15   35 1  
    37   16   36 1  
    38   17   37 1  
    39   18   38 1  
@<TRIPOS>SUBSTRUCTURE
     1 EDG         1

