### 
### Created by X-TOOL on Mon Sep 10 21:13:08 2018
### 

@<TRIPOS>MOLECULE
2ydv_ligand
   38    40     1     0     0
SMALL
GAST_HUCK


@<TRIPOS>ATOM
      1 C5'        31.7450   11.0290  -14.0960 C.2       1 NEC         0.2080
      2 O5'        31.2020   10.0370  -13.6370 O.2       1 NEC        -0.3941
      3 N5'        32.1080   12.0770  -13.3530 N.am      1 NEC        -0.2850
      4 C51        31.6200   12.2940  -12.0020 C.3       1 NEC         0.0281
      5 C52        32.4570   13.3050  -11.2390 C.3       1 NEC        -0.0449
      6 C4'        32.0610   11.1150  -15.5640 C.3       1 NEC         0.1788
      7 O4'        33.1210   10.2000  -15.8720 O.3       1 NEC        -0.3181
      8 C3'        30.8790   10.7170  -16.4470 C.3       1 NEC         0.1295
      9 O3'        30.1380   11.8500  -16.9170 O.3       1 NEC        -0.3840
     10 C2'        31.5250    9.9700  -17.5960 C.3       1 NEC         0.1408
     11 O2'        31.8890   10.8770  -18.6460 O.3       1 NEC        -0.3834
     12 C1'        32.7870    9.3710  -16.9910 C.3       1 NEC         0.2035
     13 N9         32.4700    7.9670  -16.5920 N.pl3     1 NEC        -0.1918
     14 C8         32.0340    7.5420  -15.3840 C.2       1 NEC         0.1123
     15 N7         31.8240    6.1980  -15.3840 N.2       1 NEC        -0.2958
     16 C5         32.1120    5.7400  -16.6100 C.ar      1 NEC         0.1045
     17 C6         32.1150    4.4230  -17.2890 C.ar      1 NEC         0.1298
     18 N6         31.7530    3.2890  -16.6420 N.pl3     1 NEC        -0.3152
     19 N1         32.5010    4.3890  -18.5880 N.ar      1 NEC        -0.2698
     20 C2         32.8730    5.4990  -19.2510 C.ar      1 NEC         0.0533
     21 N3         32.9020    6.7230  -18.6910 N.ar      1 NEC        -0.2714
     22 C4         32.5370    6.9070  -17.4030 C.ar      1 NEC         0.1613
     23 H          32.7569   12.7556  -13.7516 H         1 NEC         0.1851
     24 H          31.6699   11.3445  -11.4691 H         1 NEC         0.0517
     25 H          30.6030   12.6805  -12.0690 H         1 NEC         0.0517
     26 H          33.4847   12.9479  -11.1728 H         1 NEC         0.0249
     27 H          32.4362   14.2609  -11.7624 H         1 NEC         0.0249
     28 H          32.0489   13.4296  -10.2360 H         1 NEC         0.0249
     29 H          32.3263   12.1533  -15.7632 H         1 NEC         0.0869
     30 H          30.1479   10.1195  -15.9025 H         1 NEC         0.0673
     31 H          29.4092   11.5494  -17.4648 H         1 NEC         0.2102
     32 H          30.8567    9.2248  -18.0275 H         1 NEC         0.0678
     33 H          32.2960   10.3868  -19.3640 H         1 NEC         0.2101
     34 H          33.6353    9.3370  -17.6746 H         1 NEC         0.0998
     35 H          31.8722    8.1913  -14.5236 H         1 NEC         0.1349
     36 H          31.4692    3.3288  -15.6631 H         1 NEC         0.1820
     37 H          31.7643    2.3955  -17.1338 H         1 NEC         0.1820
     38 H          33.1663    5.4023  -20.2963 H         1 NEC         0.0996
@<TRIPOS>BOND
     1    1    2 2  
     2    1    3 am 
     3    1    6 1  
     4    3    4 1  
     5    4    5 1  
     6    6    7 1  
     7    6    8 1  
     8    7   12 1  
     9    8    9 1  
    10    8   10 1  
    11   10   11 1  
    12   10   12 1  
    13   12   13 1  
    14   13   14 1  
    15   13   22 1  
    16   14   15 2  
    17   15   16 1  
    18   16   17 ar 
    19   16   22 ar 
    20   17   18 1  
    21   17   19 ar 
    22   19   20 ar 
    23   20   21 ar 
    24   21   22 ar 
    25    3   23 1  
    26    4   24 1  
    27    4   25 1  
    28    5   26 1  
    29    5   27 1  
    30    5   28 1  
    31    6   29 1  
    32    8   30 1  
    33    9   31 1  
    34   10   32 1  
    35   11   33 1  
    36   12   34 1  
    37   14   35 1  
    38   18   36 1  
    39   18   37 1  
    40   20   38 1  
@<TRIPOS>SUBSTRUCTURE
     1 NEC         1

