### 
### Created by X-TOOL on Mon Sep 10 21:13:07 2018
### 

@<TRIPOS>MOLECULE
2ydw_ligand
   53    57     1     0     0
SMALL
GAST_HUCK


@<TRIPOS>ATOM
      1 C17         7.1390    6.5740   21.5560 C.ar      1 WSH        -0.0555
      2 C10        -2.0150   -2.2200   23.9330 C.ar      1 WSH        -0.0687
      3 C18         6.3820    7.6820   21.2600 C.ar      1 WSH        -0.0541
      4 C16         6.5290    5.3490   21.6970 C.ar      1 WSH        -0.0541
      5 C22         2.4680    7.7580   17.7270 C.ar      1 WSH        -0.0612
      6 C11        -1.6260   -1.4950   25.0370 C.ar      1 WSH        -0.0685
      7 C9         -1.4840   -1.9250   22.6960 C.ar      1 WSH        -0.0685
      8 C23         1.3030    8.4730   17.8980 C.ar      1 WSH        -0.0598
      9 C19         5.0200    7.5640   21.1090 C.ar      1 WSH        -0.0432
     10 C15         5.1630    5.2340   21.5400 C.ar      1 WSH        -0.0432
     11 C21         2.9870    7.0170   18.7650 C.ar      1 WSH        -0.0469
     12 C12        -0.7080   -0.4760   24.8990 C.ar      1 WSH        -0.0578
     13 C8         -0.5660   -0.9040   22.5650 C.ar      1 WSH        -0.0578
     14 C24         0.6530    8.4530   19.1120 C.ar      1 WSH        -0.0188
     15 C14         4.4000    6.3430   21.2470 C.ar      1 WSH         0.0142
     16 C20         2.3410    6.9930   19.9850 C.ar      1 WSH         0.0507
     17 C7         -0.1760   -0.1770   23.6670 C.ar      1 WSH        -0.0130
     18 C25         1.1780    7.7170   20.1530 C.ar      1 WSH         0.1240
     19 C3          0.1790    6.5670   22.1350 C.2       1 WSH         0.1829
     20 C2         -0.2440    8.7040   22.0130 C.2       1 WSH         0.1434
     21 C13         2.9220    6.2020   21.0800 C.2       1 WSH         0.0553
     22 C5          0.6580    2.9520   22.3600 C.2       1 WSH         0.3249
     23 C4          0.8510    5.2780   21.7160 C.3       1 WSH         0.1777
     24 C1         -0.2220   10.1050   21.5610 C.3       1 WSH         0.0168
     25 C6          0.8130    0.9320   23.5350 C.3       1 WSH         0.1113
     26 N2         -0.6650    6.8650   23.0900 N.2       1 WSH        -0.2772
     27 N1         -0.9350    8.2130   23.0110 N.2       1 WSH        -0.2800
     28 N4          2.3030    5.4170   21.8850 N.2       1 WSH        -0.2999
     29 N5          0.4770    7.7090   21.4060 N.pl3     1 WSH        -0.1598
     30 N3          0.3880    4.2450   22.6000 N.am      1 WSH        -0.2319
     31 O1          1.2900    2.5290   21.4020 O.2       1 WSH        -0.3773
     32 O2          0.1190    2.1680   23.3360 O.3       1 WSH        -0.2505
     33 H1          8.2123    6.6648   21.6779 H         1 WSH         0.0670
     34 H2         -2.7376   -3.0214   24.0366 H         1 WSH         0.0559
     35 H3          6.8583    8.6490   21.1455 H         1 WSH         0.0635
     36 H4          7.1224    4.4728   21.9318 H         1 WSH         0.0635
     37 H5          2.9784    7.7788   16.7709 H         1 WSH         0.0573
     38 H6         -2.0405   -1.7249   26.0119 H         1 WSH         0.0599
     39 H7         -1.7879   -2.4955   21.8258 H         1 WSH         0.0599
     40 H8          0.8975    9.0520   17.0762 H         1 WSH         0.0653
     41 H9          4.4282    8.4425   20.8787 H         1 WSH         0.0684
     42 H10         4.6876    4.2658   21.6478 H         1 WSH         0.0684
     43 H11         3.9020    6.4530   18.6245 H         1 WSH         0.0665
     44 H12        -0.4030    0.0943   25.7690 H         1 WSH         0.0557
     45 H13        -0.1502   -0.6732   21.5909 H         1 WSH         0.0557
     46 H14        -0.2655    9.0123   19.2482 H         1 WSH         0.0598
     47 H15         0.6073    5.0354   20.6711 H         1 WSH         0.0924
     48 H16        -0.8784   10.7084   22.2052 H         1 WSH         0.0469
     49 H17        -0.5769   10.1605   20.5213 H         1 WSH         0.0469
     50 H18         0.8057   10.4929   21.6188 H         1 WSH         0.0469
     51 H19         1.4697    0.7374   22.6743 H         1 WSH         0.0776
     52 H20         1.4183    0.9947   24.4513 H         1 WSH         0.0776
     53 H21        -0.1451    4.4934   23.4088 H         1 WSH         0.1912
@<TRIPOS>BOND
     1    3    1 ar 
     2    4    1 ar 
     3    6    2 ar 
     4    7    2 ar 
     5    9    3 ar 
     6   10    4 ar 
     7    5    8 ar 
     8   11    5 ar 
     9   12    6 ar 
    10   13    7 ar 
    11   14    8 ar 
    12   15    9 ar 
    13   15   10 ar 
    14   16   11 ar 
    15   17   12 ar 
    16   17   13 ar 
    17   18   14 ar 
    18   21   15 1  
    19   16   18 ar 
    20   21   16 1  
    21   25   17 1  
    22   29   18 1  
    23   23   19 1  
    24   19   26 2  
    25   19   29 1  
    26   20   24 1  
    27   20   27 2  
    28   29   20 1  
    29   28   21 2  
    30   22   30 am 
    31   22   31 2  
    32   32   22 1  
    33   23   28 1  
    34   30   23 1  
    35   25   32 1  
    36   26   27 1  
    37    1   33 1  
    38    2   34 1  
    39    3   35 1  
    40    4   36 1  
    41    5   37 1  
    42    6   38 1  
    43    7   39 1  
    44    8   40 1  
    45    9   41 1  
    46   10   42 1  
    47   11   43 1  
    48   12   44 1  
    49   13   45 1  
    50   14   46 1  
    51   23   47 1  
    52   24   48 1  
    53   24   49 1  
    54   24   50 1  
    55   25   51 1  
    56   25   52 1  
    57   30   53 1  
@<TRIPOS>SUBSTRUCTURE
     1 WSH         1

