### 
### Created by X-TOOL on Mon Sep 10 21:13:07 2018
### 

@<TRIPOS>MOLECULE
2ye9_ligand
   42    45     1     0     0
SMALL
GAST_HUCK


@<TRIPOS>ATOM
      1 C8         35.4570    7.2770   24.0510 C.2       1 2D4        -0.0518
      2 C11        35.7800    7.6710   22.7990 C.2       1 2D4        -0.0774
      3 C10        35.2060    6.9810   21.7990 C.2       1 2D4        -0.0067
      4 S2         34.2340    5.8030   22.5230 S.3       1 2D4        -0.0173
      5 C1         34.6060    6.2480   24.0920 C.2       1 2D4         0.1656
      6 S1         33.9820    5.4880   25.5530 S.o2      1 2D4         0.0959
      7 O2         34.1600    3.9960   25.4620 O.2       1 2D4        -0.1447
      8 O1         34.7160    6.0230   26.7540 O.2       1 2D4        -0.1447
      9 N          32.4060    5.9030   25.5800 N.am      1 2D4        -0.1937
     10 C9         32.0440    7.1150   25.9910 C.ar      1 2D4         0.0495
     11 C6         32.0790    8.1870   25.1070 C.ar      1 2D4        -0.0495
     12 C16        31.6320    7.3100   27.3040 C.ar      1 2D4        -0.0547
     13 C15        31.2540    8.5770   27.7330 C.ar      1 2D4        -0.0483
     14 C5         31.2880    9.6490   26.8480 C.ar      1 2D4         0.0776
     15 O3         30.9180   10.8890   27.2680 O.3       1 2D4        -0.3424
     16 C2         31.7010    9.4540   25.5360 C.ar      1 2D4        -0.0086
     17 C3         31.7350   10.5260   24.6510 C.ar      1 2D4         0.0107
     18 C4         32.9550   11.0060   24.1880 C.ar      1 2D4        -0.0211
     19 C17        34.1400   10.4140   24.6090 C.ar      1 2D4        -0.0594
     20 C19        35.3590   10.8930   24.1450 C.ar      1 2D4        -0.0653
     21 C20        35.3940   11.9650   23.2610 C.ar      1 2D4        -0.0649
     22 C18        34.2090   12.5580   22.8410 C.ar      1 2D4        -0.0587
     23 C12        32.9890   12.0780   23.3040 C.ar      1 2D4        -0.0252
     24 C14        31.8040   12.6700   22.8830 C.ar      1 2D4        -0.0577
     25 C13        30.5850   12.1900   23.3460 C.ar      1 2D4        -0.0279
     26 C7         30.5500   11.1180   24.2310 C.ar      1 2D4         0.0967
     27 O4         29.3570   10.6490   24.6840 O.3       1 2D4        -0.3309
     28 H1         35.8544    7.7550   24.9451 H         1 2D4         0.0423
     29 H2         36.4640    8.4975   22.6121 H         1 2D4         0.0404
     30 H3         35.3407    7.1481   20.7313 H         1 2D4         0.0711
     31 H4         31.7111    5.2461   25.2875 H         1 2D4         0.2118
     32 H5         32.4010    8.0350   24.0832 H         1 2D4         0.0428
     33 H6         31.6054    6.4740   27.9935 H         1 2D4         0.0447
     34 H7         30.9328    8.7293   28.7571 H         1 2D4         0.0497
     35 H8         30.0165   10.8651   27.5666 H         1 2D4         0.2438
     36 H9         34.1132    9.5786   25.2993 H         1 2D4         0.0594
     37 H10        36.2830   10.4305   24.4726 H         1 2D4         0.0604
     38 H11        36.3451   12.3385   22.8992 H         1 2D4         0.0588
     39 H12        34.2361   13.3948   22.1524 H         1 2D4         0.0614
     40 H13        31.8308   13.5061   22.1935 H         1 2D4         0.0605
     41 H14        29.6609   12.6514   23.0171 H         1 2D4         0.0583
     42 H15        28.8995   11.3427   25.1445 H         1 2D4         0.2497
@<TRIPOS>BOND
     1    1    2 1  
     2    1    5 2  
     3    2    3 2  
     4    3    4 1  
     5    4    5 1  
     6    5    6 1  
     7    6    7 2  
     8    6    8 2  
     9    6    9 am 
    10    9   10 1  
    11   10   11 ar 
    12   10   12 ar 
    13   11   16 ar 
    14   12   13 ar 
    15   13   14 ar 
    16   14   15 1  
    17   14   16 ar 
    18   16   17 1  
    19   17   18 ar 
    20   17   26 ar 
    21   18   19 ar 
    22   18   23 ar 
    23   19   20 ar 
    24   20   21 ar 
    25   21   22 ar 
    26   22   23 ar 
    27   23   24 ar 
    28   24   25 ar 
    29   25   26 ar 
    30   26   27 1  
    31    1   28 1  
    32    2   29 1  
    33    3   30 1  
    34    9   31 1  
    35   11   32 1  
    36   12   33 1  
    37   13   34 1  
    38   15   35 1  
    39   19   36 1  
    40   20   37 1  
    41   21   38 1  
    42   22   39 1  
    43   24   40 1  
    44   25   41 1  
    45   27   42 1  
@<TRIPOS>SUBSTRUCTURE
     1 2D4         1

