### 
### Created by X-TOOL on Mon Sep 10 21:13:05 2018
### 

@<TRIPOS>MOLECULE
2yek_ligand
   52    55     1     0     0
SMALL
GAST_HUCK


@<TRIPOS>ATOM
      1 CL         20.4090   17.3370  -11.3060 Cl        1 EAM        -0.0644
      2 C10        20.3800   15.6030  -11.2500 C.ar      1 EAM         0.0473
      3 C9         19.7700   15.0070  -10.1730 C.ar      1 EAM        -0.0402
      4 C8         19.7580   13.6420  -10.1240 C.ar      1 EAM        -0.0429
      5 C11        20.9640   14.9040  -12.2790 C.ar      1 EAM        -0.0402
      6 C12        20.9270   13.5370  -12.2040 C.ar      1 EAM        -0.0429
      7 C7         20.3390   12.9010  -11.1350 C.ar      1 EAM         0.0138
      8 C6         20.3410   11.4140  -11.1200 C.2       1 EAM         0.0506
      9 N2         21.4520   10.8490  -11.4260 N.2       1 EAM        -0.3205
     10 C13        19.0710   10.7350  -10.7770 C.ar      1 EAM         0.0423
     11 C19        19.0270    9.6320   -9.9320 C.ar      1 EAM         0.1139
     12 C18        17.8110    9.0410   -9.6470 C.ar      1 EAM        -0.0261
     13 C17        16.6360    9.5360  -10.1750 C.ar      1 EAM        -0.0299
     14 C15        16.7020   10.6380  -11.0060 C.ar      1 EAM         0.0910
     15 O2         15.5670   11.2030  -11.5800 O.3       1 EAM        -0.3243
     16 C16        14.2920   10.7650  -11.1250 C.3       1 EAM         0.0580
     17 C14        17.9020   11.2420  -11.3070 C.ar      1 EAM        -0.0185
     18 N3         20.2330    9.0820   -9.3680 N.pl3     1 EAM        -0.1675
     19 C22        21.3880    8.8710  -10.0890 C.2       1 EAM         0.1599
     20 N5         22.2500    8.2170   -9.3500 N.2       1 EAM        -0.2799
     21 N4         21.6820    7.9770   -8.1410 N.2       1 EAM        -0.2812
     22 C20        20.4730    8.4930   -8.1530 C.2       1 EAM         0.1412
     23 C21        19.5270    8.4520   -7.0320 C.3       1 EAM         0.0163
     24 C5         21.5070    9.3850  -11.5080 C.3       1 EAM         0.1085
     25 C4         22.8210    9.0050  -12.2170 C.3       1 EAM         0.0654
     26 C3         22.7420    9.5950  -13.5980 C.2       1 EAM         0.1795
     27 O1         21.6660    9.7380  -14.1600 O.2       1 EAM        -0.3968
     28 N1         23.8990    9.9380  -14.1500 N.am      1 EAM        -0.2870
     29 C2         24.0190   10.4590  -15.4910 C.3       1 EAM         0.0281
     30 C1         25.3570   10.0170  -16.0250 C.3       1 EAM        -0.0449
     31 H1         19.3136   15.5999   -9.3886 H         1 EAM         0.0640
     32 H2         19.2898   13.1371   -9.2868 H         1 EAM         0.0683
     33 H3         21.4334   15.4123  -13.1135 H         1 EAM         0.0640
     34 H4         21.3679   12.9469  -12.9993 H         1 EAM         0.0683
     35 H5         17.7794    8.1737   -8.9975 H         1 EAM         0.0575
     36 H6         15.6843    9.0716   -9.9434 H         1 EAM         0.0587
     37 H7         13.5031   11.3021  -11.6720 H         1 EAM         0.0574
     38 H8         14.1965   10.9701  -10.0485 H         1 EAM         0.0574
     39 H9         14.1906    9.6842  -11.3028 H         1 EAM         0.0574
     40 H10        17.9284   12.1099  -11.9559 H         1 EAM         0.0583
     41 H11        19.9838    7.9173   -6.1862 H         1 EAM         0.0468
     42 H12        18.6108    7.9295   -7.3443 H         1 EAM         0.0468
     43 H13        19.2774    9.4784   -6.7251 H         1 EAM         0.0468
     44 H14        20.6623    9.0022  -12.0996 H         1 EAM         0.0681
     45 H15        22.9196    7.9110  -12.2754 H         1 EAM         0.0542
     46 H16        23.6815    9.4222  -11.6734 H         1 EAM         0.0542
     47 H17        24.7324    9.8298  -13.6080 H         1 EAM         0.1850
     48 H18        23.9645   11.5575  -15.4744 H         1 EAM         0.0517
     49 H19        23.2114   10.0613  -16.1231 H         1 EAM         0.0517
     50 H20        25.4863   10.3961  -17.0495 H         1 EAM         0.0249
     51 H21        25.4041    8.9180  -16.0321 H         1 EAM         0.0249
     52 H22        26.1573   10.4143  -15.3834 H         1 EAM         0.0249
@<TRIPOS>BOND
     1    1    2 1  
     2    2    3 ar 
     3    2    5 ar 
     4    3    4 ar 
     5    4    7 ar 
     6    5    6 ar 
     7    6    7 ar 
     8    7    8 1  
     9    8    9 2  
    10    8   10 1  
    11    9   24 1  
    12   10   11 ar 
    13   10   17 ar 
    14   11   12 ar 
    15   11   18 1  
    16   12   13 ar 
    17   13   14 ar 
    18   14   15 1  
    19   14   17 ar 
    20   15   16 1  
    21   18   19 1  
    22   18   22 1  
    23   19   20 2  
    24   19   24 1  
    25   20   21 1  
    26   21   22 2  
    27   22   23 1  
    28   24   25 1  
    29   25   26 1  
    30   26   27 2  
    31   26   28 am 
    32   28   29 1  
    33   29   30 1  
    34    3   31 1  
    35    4   32 1  
    36    5   33 1  
    37    6   34 1  
    38   12   35 1  
    39   13   36 1  
    40   16   37 1  
    41   16   38 1  
    42   16   39 1  
    43   17   40 1  
    44   23   41 1  
    45   23   42 1  
    46   23   43 1  
    47   24   44 1  
    48   25   45 1  
    49   25   46 1  
    50   28   47 1  
    51   29   48 1  
    52   29   49 1  
    53   30   50 1  
    54   30   51 1  
    55   30   52 1  
@<TRIPOS>SUBSTRUCTURE
     1 EAM         1

