### 
### Created by X-TOOL on Mon Sep 10 21:13:05 2018
### 

@<TRIPOS>MOLECULE
2yel_ligand
   53    57     1     0     0
SMALL
GAST_HUCK


@<TRIPOS>ATOM
      1 C17        -8.2370   -4.7200    5.7940 C.ar      1 WSH        -0.0555
      2 C10        -9.0160  -11.4920    3.7670 C.ar      1 WSH        -0.0687
      3 C18        -7.9280   -4.4380    4.4830 C.ar      1 WSH        -0.0541
      4 C16        -9.3360   -5.4870    6.0820 C.ar      1 WSH        -0.0541
      5 C22        -8.2570   -7.1230   -0.0320 C.ar      1 WSH        -0.0612
      6 C11       -10.0570  -12.3890    3.7020 C.ar      1 WSH        -0.0685
      7 C9         -9.2780  -10.1570    3.9810 C.ar      1 WSH        -0.0685
      8 C23        -8.9100   -6.7120   -1.1740 C.ar      1 WSH        -0.0598
      9 C19        -8.7160   -4.9200    3.4640 C.ar      1 WSH        -0.0432
     10 C15       -10.1280   -5.9680    5.0620 C.ar      1 WSH        -0.0432
     11 C21        -8.8380   -6.9600    1.2010 C.ar      1 WSH        -0.0469
     12 C12       -11.3540  -11.9450    3.8480 C.ar      1 WSH        -0.0578
     13 C8        -10.5700   -9.7180    4.1320 C.ar      1 WSH        -0.0578
     14 C24       -10.1550   -6.1290   -1.0840 C.ar      1 WSH        -0.0188
     15 C14        -9.8250   -5.6880    3.7450 C.ar      1 WSH         0.0142
     16 C20       -10.0870   -6.3740    1.2880 C.ar      1 WSH         0.0507
     17 C7        -11.6140  -10.6120    4.0670 C.ar      1 WSH        -0.0130
     18 C25       -10.7510   -5.9560    0.1480 C.ar      1 WSH         0.1240
     19 C3        -13.1070   -5.7760    0.9330 C.2       1 WSH         0.1829
     20 C2        -12.5660   -4.3120   -0.5840 C.2       1 WSH         0.1434
     21 C13       -10.6920   -6.1960    2.6380 C.2       1 WSH         0.0553
     22 C5        -14.2580   -8.2630    3.3540 C.2       1 WSH         0.3249
     23 C4        -12.8480   -6.8860    1.9300 C.3       1 WSH         0.1777
     24 C1        -11.7760   -3.5100   -1.5520 C.3       1 WSH         0.0168
     25 C6        -13.0080  -10.0990    4.2300 C.3       1 WSH         0.1113
     26 N2        -14.1890   -5.1000    0.6260 N.2       1 WSH        -0.2772
     27 N1        -13.8480   -4.1790   -0.3390 N.2       1 WSH        -0.2800
     28 N4        -11.9230   -6.3800    2.9510 N.2       1 WSH        -0.2999
     29 N5        -12.0460   -5.3230    0.1950 N.pl3     1 WSH        -0.1598
     30 N3        -14.0950   -7.1680    2.5910 N.am      1 WSH        -0.2319
     31 O1        -15.2800   -8.5600    3.9600 O.2       1 WSH        -0.3773
     32 O2        -13.1200   -8.9990    3.3430 O.3       1 WSH        -0.2505
     33 H1         -7.6145   -4.3376    6.5948 H         1 WSH         0.0670
     34 H2         -7.9941  -11.8344    3.6503 H         1 WSH         0.0559
     35 H3         -7.0589   -3.8327    4.2522 H         1 WSH         0.0635
     36 H4         -9.5822   -5.7153    7.1127 H         1 WSH         0.0635
     37 H5         -7.2764   -7.5788   -0.1081 H         1 WSH         0.0573
     38 H6         -9.8581  -13.4417    3.5365 H         1 WSH         0.0599
     39 H7         -8.4591   -9.4485    4.0305 H         1 WSH         0.0599
     40 H8         -8.4439   -6.8475   -2.1433 H         1 WSH         0.0653
     41 H9         -8.4633   -4.6945    2.4343 H         1 WSH         0.0684
     42 H10       -10.9971   -6.5720    5.2963 H         1 WSH         0.0684
     43 H11        -8.3229   -7.2873    2.0969 H         1 WSH         0.0665
     44 H12       -12.1745  -12.6510    3.7898 H         1 WSH         0.0557
     45 H13       -10.7679   -8.6660    4.3026 H         1 WSH         0.0557
     46 H14       -10.6672   -5.8056   -1.9830 H         1 WSH         0.0598
     47 H15       -12.4442   -7.7808    1.4339 H         1 WSH         0.0924
     48 H16       -12.4317   -2.7733   -2.0391 H         1 WSH         0.0469
     49 H17       -11.3436   -4.1759   -2.3133 H         1 WSH         0.0469
     50 H18       -10.9674   -2.9865   -1.0208 H         1 WSH         0.0469
     51 H19       -13.1779   -9.7738    5.2670 H         1 WSH         0.0776
     52 H20       -13.7369  -10.8795    3.9664 H         1 WSH         0.0776
     53 H21       -14.8597   -6.5333    2.4799 H         1 WSH         0.1912
@<TRIPOS>BOND
     1    3    1 ar 
     2    4    1 ar 
     3    6    2 ar 
     4    7    2 ar 
     5    9    3 ar 
     6   10    4 ar 
     7    5    8 ar 
     8   11    5 ar 
     9   12    6 ar 
    10   13    7 ar 
    11   14    8 ar 
    12   15    9 ar 
    13   15   10 ar 
    14   16   11 ar 
    15   17   12 ar 
    16   17   13 ar 
    17   18   14 ar 
    18   21   15 1  
    19   16   18 ar 
    20   21   16 1  
    21   25   17 1  
    22   29   18 1  
    23   23   19 1  
    24   19   26 2  
    25   19   29 1  
    26   20   24 1  
    27   20   27 2  
    28   29   20 1  
    29   28   21 2  
    30   22   30 am 
    31   22   31 2  
    32   32   22 1  
    33   23   28 1  
    34   30   23 1  
    35   25   32 1  
    36   26   27 1  
    37    1   33 1  
    38    2   34 1  
    39    3   35 1  
    40    4   36 1  
    41    5   37 1  
    42    6   38 1  
    43    7   39 1  
    44    8   40 1  
    45    9   41 1  
    46   10   42 1  
    47   11   43 1  
    48   12   44 1  
    49   13   45 1  
    50   14   46 1  
    51   23   47 1  
    52   24   48 1  
    53   24   49 1  
    54   24   50 1  
    55   25   51 1  
    56   25   52 1  
    57   30   53 1  
@<TRIPOS>SUBSTRUCTURE
     1 WSH         1

