### 
### Created by X-TOOL on Mon Sep 10 21:13:06 2018
### 

@<TRIPOS>MOLECULE
2yem_ligand
   53    57     1     0     0
SMALL
GAST_HUCK


@<TRIPOS>ATOM
      1 C17        -9.9170   -7.9800  -19.4890 C.ar      1 WSH        -0.0555
      2 C10        -7.1790  -11.0610  -15.3580 C.ar      1 WSH        -0.0687
      3 C18        -8.8870   -8.8530  -19.2260 C.ar      1 WSH        -0.0541
      4 C16        -9.6850   -6.6200  -19.5140 C.ar      1 WSH        -0.0541
      5 C22        -6.5170   -3.9520  -16.0670 C.ar      1 WSH        -0.0612
      6 C11        -6.1380  -10.4700  -14.6800 C.ar      1 WSH        -0.0685
      7 C9         -7.0110  -11.4760  -16.6580 C.ar      1 WSH        -0.0685
      8 C23        -5.5590   -3.0150  -16.3680 C.ar      1 WSH        -0.0598
      9 C19        -7.6250   -8.3530  -18.9880 C.ar      1 WSH        -0.0432
     10 C15        -8.4230   -6.1250  -19.2780 C.ar      1 WSH        -0.0432
     11 C21        -6.6570   -5.0800  -16.8430 C.ar      1 WSH        -0.0469
     12 C12        -4.9290  -10.2910  -15.3090 C.ar      1 WSH        -0.0578
     13 C8         -5.7950  -11.2970  -17.2740 C.ar      1 WSH        -0.0578
     14 C24        -4.7410   -3.1790  -17.4590 C.ar      1 WSH        -0.0188
     15 C14        -7.3880   -6.9930  -19.0110 C.ar      1 WSH         0.0142
     16 C20        -5.8290   -5.2700  -17.9470 C.ar      1 WSH         0.0507
     17 C7         -4.7440  -10.7030  -16.6110 C.ar      1 WSH        -0.0130
     18 C25        -4.8640   -4.3040  -18.2640 C.ar      1 WSH         0.1240
     19 C3         -3.3280   -5.5550  -19.7750 C.2       1 WSH         0.1829
     20 C2         -3.5370   -3.4300  -20.2610 C.2       1 WSH         0.1434
     21 C13        -6.0020   -6.5060  -18.7610 C.2       1 WSH         0.0553
     22 C5         -2.7010   -9.0820  -19.0490 C.2       1 WSH         0.3249
     23 C4         -3.6650   -6.8330  -19.0350 C.3       1 WSH         0.1777
     24 C1         -4.0020   -2.0270  -20.2470 C.3       1 WSH         0.0168
     25 C6         -3.4290  -10.5110  -17.2970 C.3       1 WSH         0.1113
     26 N2         -2.4810   -5.2730  -20.7370 N.2       1 WSH        -0.2772
     27 N1         -2.6110   -3.9290  -21.0410 N.2       1 WSH        -0.2800
     28 N4         -5.0610   -7.2110  -19.2660 N.2       1 WSH        -0.2999
     29 N5         -4.0240   -4.4050  -19.4250 N.pl3     1 WSH        -0.1598
     30 N3         -2.8350   -7.8670  -19.6180 N.am      1 WSH        -0.2319
     31 O1         -2.0180   -9.9840  -19.5170 O.2       1 WSH        -0.3773
     32 O2         -3.3980   -9.1890  -17.9050 O.3       1 WSH        -0.2505
     33 H1        -10.9140   -8.3616  -19.6772 H         1 WSH         0.0670
     34 H2         -8.1347  -11.1999  -14.8657 H         1 WSH         0.0559
     35 H3         -9.0659   -9.9220  -19.2062 H         1 WSH         0.0635
     36 H4        -10.5016   -5.9377  -19.7207 H         1 WSH         0.0635
     37 H5         -7.1671   -3.8021  -15.2126 H         1 WSH         0.0573
     38 H6         -6.2707  -10.1468  -13.6538 H         1 WSH         0.0599
     39 H7         -7.8311  -11.9408  -17.1932 H         1 WSH         0.0599
     40 H8         -5.4476   -2.1389  -15.7394 H         1 WSH         0.0653
     41 H9         -6.8088   -9.0355  -18.7803 H         1 WSH         0.0684
     42 H10        -8.2444   -5.0561  -19.3022 H         1 WSH         0.0684
     43 H11        -7.4102   -5.8193  -16.5956 H         1 WSH         0.0665
     44 H12        -4.1116   -9.8203  -14.7747 H         1 WSH         0.0557
     45 H13        -5.6613  -11.6285  -18.2974 H         1 WSH         0.0557
     46 H14        -3.9961   -2.4270  -17.6928 H         1 WSH         0.0598
     47 H15        -3.4698   -6.7219  -17.9582 H         1 WSH         0.0924
     48 H16        -3.4563   -1.4523  -21.0098 H         1 WSH         0.0469
     49 H17        -3.8161   -1.5890  -19.2553 H         1 WSH         0.0469
     50 H18        -5.0796   -1.9956  -20.4656 H         1 WSH         0.0469
     51 H19        -3.3043  -11.2777  -18.0759 H         1 WSH         0.0776
     52 H20        -2.6144  -10.5981  -16.5630 H         1 WSH         0.0776
     53 H21        -2.3463   -7.6738  -20.4688 H         1 WSH         0.1912
@<TRIPOS>BOND
     1    3    1 ar 
     2    4    1 ar 
     3    6    2 ar 
     4    7    2 ar 
     5    9    3 ar 
     6   10    4 ar 
     7    5    8 ar 
     8   11    5 ar 
     9   12    6 ar 
    10   13    7 ar 
    11   14    8 ar 
    12   15    9 ar 
    13   15   10 ar 
    14   16   11 ar 
    15   17   12 ar 
    16   17   13 ar 
    17   18   14 ar 
    18   21   15 1  
    19   16   18 ar 
    20   21   16 1  
    21   25   17 1  
    22   29   18 1  
    23   23   19 1  
    24   19   26 2  
    25   19   29 1  
    26   20   24 1  
    27   20   27 2  
    28   29   20 1  
    29   28   21 2  
    30   22   30 am 
    31   22   31 2  
    32   32   22 1  
    33   23   28 1  
    34   30   23 1  
    35   25   32 1  
    36   26   27 1  
    37    1   33 1  
    38    2   34 1  
    39    3   35 1  
    40    4   36 1  
    41    5   37 1  
    42    6   38 1  
    43    7   39 1  
    44    8   40 1  
    45    9   41 1  
    46   10   42 1  
    47   11   43 1  
    48   12   44 1  
    49   13   45 1  
    50   14   46 1  
    51   23   47 1  
    52   24   48 1  
    53   24   49 1  
    54   24   50 1  
    55   25   51 1  
    56   25   52 1  
    57   30   53 1  
@<TRIPOS>SUBSTRUCTURE
     1 WSH         1

