### 
### Created by X-TOOL on Mon Sep 10 21:13:08 2018
### 

@<TRIPOS>MOLECULE
2yer_ligand
   33    36     1     0     0
SMALL
GAST_HUCK


@<TRIPOS>ATOM
      1 C1         -2.4760   35.5230   13.0930 C.2       1 TQ1        -0.0776
      2 C7          1.2590   37.4840   12.5640 C.ar      1 TQ1        -0.0657
      3 C8          2.4260   38.0550   12.2810 C.ar      1 TQ1        -0.0611
      4 C2         -1.3590   36.3040   12.9980 C.2       1 TQ1        -0.0723
      5 C19         1.2870   36.0710   10.5950 C.ar      1 TQ1        -0.0246
      6 C5         -2.3990   34.5430   12.1340 C.2       1 TQ1         0.0187
      7 C6          0.6710   36.4820   11.7160 C.ar      1 TQ1        -0.0127
      8 C9          3.1530   37.6920   11.1090 C.ar      1 TQ1         0.0198
      9 C18         2.5870   36.6630   10.2170 C.ar      1 TQ1         0.1126
     10 C3         -0.5560   35.8430   11.9870 C.2       1 TQ1         0.0559
     11 C11         5.0320   37.7850    9.5660 C.2       1 TQ1        -0.0210
     12 C10         4.3390   38.2110   10.7470 C.2       1 TQ1        -0.0084
     13 C12         4.4590   36.8460    8.8220 C.2       1 TQ1         0.1447
     14 C15         2.9430   35.2690    8.0920 C.2       1 TQ1         0.3454
     15 C20         5.0320   39.2280   11.5750 C.3       1 TQ1         0.0795
     16 N13         4.9320   36.3360    7.7640 N.2       1 TQ1        -0.2299
     17 N4         -1.1860   34.7480   11.4390 N.pl3     1 TQ1        -0.2863
     18 N14         4.0470   35.4030    7.3000 N.am      1 TQ1        -0.1863
     19 N17         3.2400   36.3150    9.1640 N.am      1 TQ1        -0.1408
     20 O16         1.9540   34.5590    8.0990 O.2       1 TQ1        -0.3964
     21 O21         5.5340   38.5430   12.7160 O.3       1 TQ1        -0.3813
     22 H          -3.2887   35.6551   13.8073 H         1 TQ1         0.0312
     23 H           0.7305   37.7852   13.4685 H         1 TQ1         0.0513
     24 H           2.8323   38.8104   12.9536 H         1 TQ1         0.0591
     25 H          -1.1394   37.1640   13.6307 H         1 TQ1         0.0339
     26 H           0.8304   35.3052    9.9679 H         1 TQ1         0.0495
     27 H          -3.1320   33.7586   11.9454 H         1 TQ1         0.0861
     28 H           5.9940   38.2162    9.2891 H         1 TQ1         0.0468
     29 H           4.3492   40.0259   11.8670 H         1 TQ1         0.0738
     30 H           5.8394   39.7024   11.0171 H         1 TQ1         0.0738
     31 H          -0.8372   34.1826   10.6650 H         1 TQ1         0.2328
     32 H           4.1964   34.8618    6.4484 H         1 TQ1         0.2365
     33 H           6.1425   37.8563   12.4335 H         1 TQ1         0.2130
@<TRIPOS>BOND
     1    4    1 1  
     2    6    1 2  
     3    3    2 ar 
     4    7    2 ar 
     5    8    3 ar 
     6   10    4 2  
     7    5    7 ar 
     8    9    5 ar 
     9   17    6 1  
    10    7   10 1  
    11    9    8 ar 
    12    8   12 1  
    13   19    9 1  
    14   10   17 1  
    15   11   12 2  
    16   13   11 1  
    17   12   15 1  
    18   13   16 2  
    19   19   13 1  
    20   14   18 am 
    21   14   19 am 
    22   14   20 2  
    23   15   21 1  
    24   16   18 1  
    25    1   22 1  
    26    2   23 1  
    27    3   24 1  
    28    4   25 1  
    29    5   26 1  
    30    6   27 1  
    31   11   28 1  
    32   15   29 1  
    33   15   30 1  
    34   17   31 1  
    35   18   32 1  
    36   21   33 1  
@<TRIPOS>SUBSTRUCTURE
     1 TQ1         1

