### 
### Created by X-TOOL on Mon Sep 10 21:13:08 2018
### 

@<TRIPOS>MOLECULE
2yex_ligand
   33    36     1     0     0
SMALL
GAST_HUCK


@<TRIPOS>ATOM
      1 C1         -2.4900   36.0680   13.2500 C.2       1 YEX         0.0037
      2 C7          1.2570   38.3050   12.5270 C.ar      1 YEX        -0.0276
      3 C8          2.4230   38.9140   12.1120 C.ar      1 YEX        -0.0373
      4 C2         -1.4160   36.9890   13.2430 C.2       1 YEX         0.0102
      5 C19         1.4080   36.7870   10.7240 C.ar      1 YEX         0.0100
      6 C5         -2.2280   35.1240   12.3000 C.2       1 YEX         0.0926
      7 C6          0.7320   37.2260   11.8460 C.ar      1 YEX         0.0687
      8 C9          3.1080   38.4760   10.9860 C.ar      1 YEX         0.0248
      9 C18         2.5760   37.3970   10.2890 C.ar      1 YEX         0.0661
     10 C3         -0.5160   36.5900   12.2800 C.2       1 YEX         0.1460
     11 C11         4.9480   38.6150    9.4710 C.ar      1 YEX         0.0108
     12 C10         4.2910   39.1030   10.5760 C.ar      1 YEX        -0.0037
     13 C12         4.3940   37.5220    8.8330 C.ar      1 YEX         0.1441
     14 C15         2.9610   35.8730    8.3440 C.2       1 YEX         0.2802
     15 C20         4.8790   40.2920   11.2630 C.3       1 YEX        -0.0174
     16 N13         4.9330   36.9000    7.7660 N.pl3     1 YEX        -0.1982
     17 N4         -1.0360   35.4500   11.7240 N.pl3     1 YEX        -0.2154
     18 N14         4.0120   35.8380    7.4850 N.am      1 YEX        -0.1721
     19 N17         3.2370   36.9520    9.2060 N.ar      1 YEX        -0.2458
     20 O16         1.9880   35.1330    8.3900 O.2       1 YEX        -0.3616
     21 H          -3.3669   36.1056   13.8964 H         1 YEX         0.0639
     22 H           0.7408   38.6832   13.4094 H         1 YEX         0.0645
     23 H           2.8154   39.7574   12.6802 H         1 YEX         0.0729
     24 H          -1.3180   37.8624   13.8877 H         1 YEX         0.0784
     25 H           1.0132   35.9384   10.1653 H         1 YEX         0.1004
     26 H          -2.8550   34.2686   12.0485 H         1 YEX         0.1488
     27 H           5.8700   39.0727    9.1124 H         1 YEX         0.0710
     28 H           5.8836   40.0498   11.6097 H         1 YEX         0.0447
     29 H           4.9259   41.1273   10.5644 H         1 YEX         0.0447
     30 H           4.2550   40.5634   12.1145 H         1 YEX         0.0447
     31 H           5.7956   37.1311    7.2730 H         1 YEX         0.2147
     32 H          -0.5901   34.9162   10.9780 H         1 YEX         0.2546
     33 H           4.1301   35.1500    6.7413 H         1 YEX         0.2189
@<TRIPOS>BOND
     1    4    1 1  
     2    6    1 2  
     3    3    2 ar 
     4    7    2 ar 
     5    8    3 ar 
     6   10    4 2  
     7    5    7 ar 
     8    9    5 ar 
     9   17    6 1  
    10    7   10 1  
    11    9    8 ar 
    12    8   12 ar 
    13   19    9 ar 
    14   10   17 1  
    15   11   12 ar 
    16   13   11 ar 
    17   12   15 1  
    18   13   16 1  
    19   19   13 ar 
    20   14   18 am 
    21   14   19 1  
    22   14   20 2  
    23   16   18 1  
    24    1   21 1  
    25    2   22 1  
    26    3   23 1  
    27    4   24 1  
    28    5   25 1  
    29    6   26 1  
    30   11   27 1  
    31   15   28 1  
    32   15   29 1  
    33   15   30 1  
    34   16   31 1  
    35   17   32 1  
    36   18   33 1  
@<TRIPOS>SUBSTRUCTURE
     1 YEX         1

