### 
### Created by X-TOOL on Mon Sep 10 21:13:11 2018
### 

@<TRIPOS>MOLECULE
2yfa_ligand
   13    12     1     0     0
SMALL
GAST_HUCK


@<TRIPOS>ATOM
      1 C1        -60.1610   27.0270   18.9840 C.2       1 LMR         0.0650
      2 O1A       -59.4130   28.0130   18.7570 O.co2     1 LMR        -0.5662
      3 O1B       -59.6910   25.8870   19.2480 O.co2     1 LMR        -0.5662
      4 C2        -61.6380   27.2250   18.9800 C.3       1 LMR         0.1185
      5 O2        -61.8780   28.5700   19.3340 O.3       1 LMR        -0.3760
      6 C3        -62.2050   26.9160   17.5990 C.3       1 LMR         0.0381
      7 C4        -63.6900   27.1770   17.5900 C.2       1 LMR         0.0389
      8 O4A       -64.2080   27.8760   16.6900 O.co2     1 LMR        -0.5688
      9 O4B       -64.4240   26.6990   18.4840 O.co2     1 LMR        -0.5688
     10 H1        -62.1064   26.5580   19.7188 H         1 LMR         0.0782
     11 H2        -61.5196   28.7378   20.1977 H         1 LMR         0.2125
     12 H3        -62.0178   25.8600   17.3546 H         1 LMR         0.0474
     13 H4        -61.7164   27.5577   16.8510 H         1 LMR         0.0474
@<TRIPOS>BOND
     1    1    2 ar 
     2    1    3 ar 
     3    1    4 1  
     4    4    5 1  
     5    4    6 1  
     6    6    7 1  
     7    7    8 ar 
     8    7    9 ar 
     9    4   10 1  
    10    5   11 1  
    11    6   12 1  
    12    6   13 1  
@<TRIPOS>SUBSTRUCTURE
     1 LMR         1

