### 
### Created by X-TOOL on Mon Sep 10 21:13:07 2018
### 

@<TRIPOS>MOLECULE
2yfx_ligand
   53    56     1     0     0
SMALL
GAST_HUCK


@<TRIPOS>ATOM
      1 CL         33.2070   46.1070    6.4440 Cl        1 VGH        -0.0808
      2 C13        33.6970   45.8390    8.0910 C.ar      1 VGH         0.0403
      3 C3         34.5300   46.8340    8.6780 C.ar      1 VGH        -0.0561
      4 C2         34.9870   46.7120   10.0140 C.ar      1 VGH        -0.0339
      5 C12        34.6210   45.5890   10.8030 C.ar      1 VGH         0.1404
      6 F          35.0760   45.5080   12.0650 F         1 VGH        -0.1842
      7 C17        33.2980   44.6720    8.8630 C.ar      1 VGH         0.0160
      8 C18        33.7800   44.5630   10.2490 C.ar      1 VGH         0.0774
      9 CL2        33.3790   43.2190   11.2970 Cl        1 VGH        -0.0787
     10 C21        32.3850   43.5800    8.2020 C.3       1 VGH         0.1115
     11 C1         33.1000   42.2190    8.1980 C.3       1 VGH        -0.0242
     12 O27        31.0970   43.3550    8.8780 O.3       1 VGH        -0.3010
     13 C15        30.0750   44.2980    9.0310 C.ar      1 VGH         0.1362
     14 C4         29.9670   45.5330    8.3040 C.ar      1 VGH        -0.0252
     15 C19        29.0210   44.0250    9.9640 C.ar      1 VGH         0.1368
     16 N22        29.0600   42.8270   10.7070 N.pl3     1 VGH        -0.3267
     17 N23        27.9640   44.8480   10.1840 N.ar      1 VGH        -0.3009
     18 C5         27.8920   46.0120    9.4790 C.ar      1 VGH        -0.0161
     19 C14        28.8710   46.4160    8.5180 C.ar      1 VGH        -0.0311
     20 C16        28.7630   47.7180    7.7450 C.2       1 VGH        -0.0030
     21 C6         29.8280   48.4300    7.0310 C.2       1 VGH         0.0048
     22 C7         27.6270   48.4950    7.5570 C.2       1 VGH         0.0622
     23 N26        28.0760   49.5740    6.7720 N.pl3     1 VGH        -0.2005
     24 N24        29.3340   49.4940    6.4990 N.2       1 VGH        -0.2139
     25 C20        27.2350   50.6960    6.2910 C.3       1 VGH         0.0923
     26 C8         26.8940   51.6490    7.4550 C.3       1 VGH         0.0204
     27 C10        26.0170   52.8090    6.9290 C.3       1 VGH        -0.0306
     28 N25        24.7880   52.3200    6.2390 N.4       1 VGH         0.2271
     29 C11        25.0880   51.3610    5.1380 C.3       1 VGH        -0.0306
     30 C9         25.9410   50.1670    5.6240 C.3       1 VGH         0.0204
     31 H1         34.8194   47.6994    8.0929 H         1 VGH         0.0597
     32 H2         35.6213   47.4824   10.4374 H         1 VGH         0.0547
     33 H3         32.1862   43.8931    7.1664 H         1 VGH         0.0813
     34 H4         32.4491   41.4643    7.7324 H         1 VGH         0.0281
     35 H5         33.3259   41.9204    9.2323 H         1 VGH         0.0281
     36 H6         34.0365   42.2984    7.6264 H         1 VGH         0.0281
     37 H7         30.7315   45.7961    7.5819 H         1 VGH         0.0567
     38 H8         28.3112   42.6148   11.3816 H         1 VGH         0.1727
     39 H9         29.8373   42.1642   10.5750 H         1 VGH         0.1727
     40 H10        27.0468   46.6672    9.6563 H         1 VGH         0.0640
     41 H11        30.8670   48.1111    6.9619 H         1 VGH         0.0670
     42 H12        26.6207   48.3117    7.9308 H         1 VGH         0.1021
     43 H13        27.8064   51.2587    5.5380 H         1 VGH         0.0683
     44 H14        27.8232   52.0554    7.8808 H         1 VGH         0.0349
     45 H15        26.3450   51.0972    8.2323 H         1 VGH         0.0349
     46 H16        26.6080   53.4057    6.2186 H         1 VGH         0.0815
     47 H17        25.7183   53.4404    7.7787 H         1 VGH         0.0815
     48 H18        24.2989   53.1119    5.8522 H         1 VGH         0.2013
     49 H19        24.1999   51.8597    6.9159 H         1 VGH         0.2013
     50 H20        25.6378   51.8907    4.3461 H         1 VGH         0.0815
     51 H21        24.1398   50.9780    4.7329 H         1 VGH         0.0815
     52 H22        25.3660   49.5785    6.3541 H         1 VGH         0.0349
     53 H23        26.2041   49.5309    4.7661 H         1 VGH         0.0349
@<TRIPOS>BOND
     1    1    2 1  
     2    2    3 ar 
     3    2    7 ar 
     4    3    4 ar 
     5    4    5 ar 
     6    5    6 1  
     7    5    8 ar 
     8    7    8 ar 
     9    7   10 1  
    10    8    9 1  
    11   10   11 1  
    12   10   12 1  
    13   12   13 1  
    14   13   14 ar 
    15   13   15 ar 
    16   14   19 ar 
    17   15   16 1  
    18   15   17 ar 
    19   17   18 ar 
    20   18   19 ar 
    21   19   20 1  
    22   20   21 1  
    23   20   22 2  
    24   21   24 2  
    25   22   23 1  
    26   23   24 1  
    27   23   25 1  
    28   25   26 1  
    29   25   30 1  
    30   26   27 1  
    31   27   28 1  
    32   28   29 1  
    33   29   30 1  
    34    3   31 1  
    35    4   32 1  
    36   10   33 1  
    37   11   34 1  
    38   11   35 1  
    39   11   36 1  
    40   14   37 1  
    41   16   38 1  
    42   16   39 1  
    43   18   40 1  
    44   21   41 1  
    45   22   42 1  
    46   25   43 1  
    47   26   44 1  
    48   26   45 1  
    49   27   46 1  
    50   27   47 1  
    51   28   48 1  
    52   28   49 1  
    53   29   50 1  
    54   29   51 1  
    55   30   52 1  
    56   30   53 1  
@<TRIPOS>SUBSTRUCTURE
     1 VGH         1

