### 
### Created by X-TOOL on Mon Sep 10 21:13:06 2018
### 

@<TRIPOS>MOLECULE
2yg2_ligand
   18    17     1     0     0
SMALL
GAST_HUCK


@<TRIPOS>ATOM
      1 CAC       -34.9690    5.0410   35.4470 C.2       1 FLC         0.0371
      2 CA        -34.4400    3.7060   35.9560 C.3       1 FLC         0.0356
      3 CB        -33.0890    3.2910   35.3510 C.3       1 FLC         0.1328
      4 CBC       -33.2540    3.2380   33.8520 C.2       1 FLC         0.0796
      5 CG        -32.5890    1.9320   35.8370 C.3       1 FLC         0.0356
      6 CGC       -32.2490    1.9150   37.3240 C.2       1 FLC         0.0371
      7 OA1       -36.1130    5.0020   34.8970 O.co2     1 FLC        -0.5690
      8 OA2       -34.3270    6.1040   35.6400 O.co2     1 FLC        -0.5690
      9 OB1       -33.9680    2.3390   33.4120 O.co2     1 FLC        -0.5449
     10 OB2       -32.7200    4.1310   33.1580 O.co2     1 FLC        -0.5449
     11 OG1       -31.0560    1.9810   37.6370 O.co2     1 FLC        -0.5690
     12 OG2       -33.1750    1.8580   38.1500 O.co2     1 FLC        -0.5690
     13 OHB       -32.1320    4.2790   35.6470 O.3       1 FLC        -0.3818
     14 H         -35.1663    2.9438   35.6738 H         1 FLC         0.0452
     15 H         -34.2931    3.8073   37.0313 H         1 FLC         0.0452
     16 H         -31.6776    1.6987   35.2866 H         1 FLC         0.0452
     17 H         -33.3866    1.2077   35.6717 H         1 FLC         0.0452
     18 H         -32.4363    5.1271   35.3158 H         1 FLC         0.2091
@<TRIPOS>BOND
     1    1    2 1  
     2    1    7 ar 
     3    1    8 ar 
     4    2    3 1  
     5    3    4 1  
     6    3    5 1  
     7    3   13 1  
     8    4    9 ar 
     9    4   10 ar 
    10    5    6 1  
    11    6   11 ar 
    12    6   12 ar 
    13    2   14 1  
    14    2   15 1  
    15    5   16 1  
    16    5   17 1  
    17   13   18 1  
@<TRIPOS>SUBSTRUCTURE
     1 FLC         1

