### 
### Created by X-TOOL on Mon Sep 10 21:13:06 2018
### 

@<TRIPOS>MOLECULE
2yga_ligand
   86    87     1     0     0
SMALL
GAST_HUCK


@<TRIPOS>ATOM
      1 C1         26.1920  -34.0760   -5.4050 C.3       1 GDM         0.0814
      2 C2         26.2580  -33.8010   -3.8950 C.2       1 GDM         0.1826
      3 C3         25.5780  -32.5610   -3.3090 C.2       1 GDM         0.1432
      4 C4         24.8710  -31.6240   -4.1700 C.2       1 GDM         0.0101
      5 C5         24.8130  -31.8720   -5.6690 C.2       1 GDM         0.1249
      6 C6         25.4770  -33.1120   -6.2540 C.3       1 GDM         0.1412
      7 C7         26.2470  -35.5490   -5.8650 C.3       1 GDM        -0.0273
      8 C8         24.8360  -36.1000   -5.6250 C.3       1 GDM        -0.0390
      9 C9         24.1370  -36.3360   -6.9740 C.3       1 GDM        -0.0213
     10 C10        22.7590  -36.9830   -6.7570 C.3       1 GDM         0.0857
     11 C11        21.8840  -36.4960   -7.9100 C.3       1 GDM         0.0868
     12 C12        21.2250  -35.1510   -7.5390 C.3       1 GDM        -0.0094
     13 C13        20.4730  -35.1960   -6.1940 C.2       1 GDM        -0.1008
     14 C14        20.4380  -34.0080   -5.3370 C.2       1 GDM        -0.0484
     15 C15        19.6610  -34.0380   -4.0170 C.3       1 GDM         0.1390
     16 C16        20.6330  -34.1340   -2.8450 C.3       1 GDM         0.0970
     17 C17        21.2480  -35.5330   -2.8500 C.3       1 GDM        -0.0219
     18 C18        22.4840  -35.6870   -2.0980 C.3       1 GDM        -0.0481
     19 C19        23.3510  -34.4370   -1.9170 C.3       1 GDM        -0.0327
     20 C20        24.6370  -34.5440   -1.2140 C.3       1 GDM         0.0541
     21 C21        25.3050  -33.2170   -0.8470 C.2       1 GDM         0.2173
     22 N22        25.6210  -32.2550   -1.8830 N.am      1 GDM        -0.2123
     23 O23        26.8190  -34.5720   -3.1740 O.2       1 GDM        -0.3624
     24 O24        24.2350  -31.1060   -6.3820 O.2       1 GDM        -0.4035
     25 O25        25.3970  -33.2890   -7.6620 O.3       1 GDM        -0.3599
     26 C26        26.4840  -32.5600   -8.2440 C.3       1 GDM         0.0398
     27 C27        24.9370  -37.3950   -4.8110 C.3       1 GDM        -0.0622
     28 O28        22.8270  -38.4190   -6.8190 O.3       1 GDM        -0.3771
     29 C29        23.6700  -38.8240   -7.9010 C.3       1 GDM         0.0369
     30 O30        22.7560  -36.2970   -9.0320 O.3       1 GDM        -0.3877
     31 C31        20.1610  -34.8700   -8.6160 C.3       1 GDM        -0.0567
     32 C32        21.1830  -32.7350   -5.7600 C.3       1 GDM        -0.0375
     33 O33        18.9780  -32.8100   -3.8180 O.3       1 GDM        -0.2464
     34 C34        17.7940  -32.7030   -4.5960 C.2       1 GDM         0.3192
     35 O35        17.0680  -31.7510   -4.4570 O.2       1 GDM        -0.3776
     36 N36        17.4660  -33.7250   -5.5760 N.am      1 GDM        -0.2762
     37 O37        19.9250  -33.8990   -1.6170 O.3       1 GDM        -0.3749
     38 C38        18.7510  -34.7160   -1.4890 C.3       1 GDM         0.0371
     39 C39        24.9560  -35.7960   -0.3660 C.3       1 GDM        -0.0446
     40 O40        25.5720  -32.9480    0.2850 O.2       1 GDM        -0.3788
     41 H          27.2062  -33.7795   -5.6724 H         1 GDM         0.0575
     42 H          24.3848  -30.7476   -3.7415 H         1 GDM         0.0362
     43 H          25.6179  -33.9302   -5.5477 H         1 GDM         0.0836
     44 H          26.9980  -36.1142   -5.3130 H         1 GDM         0.0297
     45 H          26.5377  -35.6320   -6.9122 H         1 GDM         0.0297
     46 H          24.2398  -35.3829   -5.0607 H         1 GDM         0.0301
     47 H          24.7507  -37.0022   -7.5804 H         1 GDM         0.0294
     48 H          24.0045  -35.3785   -7.4778 H         1 GDM         0.0294
     49 H          22.3716  -36.7128   -5.7747 H         1 GDM         0.0623
     50 H          21.0978  -37.2174   -8.1327 H         1 GDM         0.0637
     51 H          22.0114  -34.3995   -7.4685 H         1 GDM         0.0398
     52 H          19.9682  -36.1100   -5.8811 H         1 GDM         0.0246
     53 H          18.9773  -34.8856   -4.0653 H         1 GDM         0.0823
     54 H          21.4217  -33.3870   -2.9352 H         1 GDM         0.0647
     55 H          21.4908  -35.7577   -3.8886 H         1 GDM         0.0293
     56 H          20.5179  -36.1908   -2.3783 H         1 GDM         0.0293
     57 H          23.0921  -36.3901   -2.6672 H         1 GDM         0.0268
     58 H          22.1850  -35.9887   -1.0942 H         1 GDM         0.0268
     59 H          22.7509  -33.7716   -1.2963 H         1 GDM         0.0292
     60 H          23.6141  -34.1337   -2.9304 H         1 GDM         0.0292
     61 H          25.2564  -34.8903   -2.0413 H         1 GDM         0.0543
     62 H          25.8882  -31.3121   -1.6001 H         1 GDM         0.2404
     63 H          26.3929  -31.5054   -7.9841 H         1 GDM         0.0526
     64 H          27.4273  -32.9497   -7.8613 H         1 GDM         0.0526
     65 H          26.4560  -32.6722   -9.3279 H         1 GDM         0.0526
     66 H          25.5280  -38.1251   -5.3640 H         1 GDM         0.0232
     67 H          25.4176  -37.1854   -3.8554 H         1 GDM         0.0232
     68 H          23.9370  -37.7921   -4.6368 H         1 GDM         0.0232
     69 H          23.2641  -38.4434   -8.8383 H         1 GDM         0.0524
     70 H          24.6723  -38.4237   -7.7485 H         1 GDM         0.0524
     71 H          23.7138  -39.9125   -7.9380 H         1 GDM         0.0524
     72 H          23.1688  -37.1313   -9.2670 H         1 GDM         0.2101
     73 H          20.6412  -34.8116   -9.5928 H         1 GDM         0.0247
     74 H          19.4266  -35.6755   -8.6183 H         1 GDM         0.0247
     75 H          19.6646  -33.9247   -8.3966 H         1 GDM         0.0247
     76 H          22.2455  -32.9549   -5.8637 H         1 GDM         0.0376
     77 H          20.7884  -32.3846   -6.7137 H         1 GDM         0.0376
     78 H          21.0424  -31.9644   -5.0020 H         1 GDM         0.0376
     79 H          16.6234  -33.6354   -6.1438 H         1 GDM         0.1831
     80 H          18.0784  -34.5318   -5.6960 H         1 GDM         0.1831
     81 H          18.0704  -34.5035   -2.3134 H         1 GDM         0.0524
     82 H          19.0371  -35.7675   -1.5142 H         1 GDM         0.0524
     83 H          18.2575  -34.4950   -0.5426 H         1 GDM         0.0524
     84 H          24.2143  -35.8951    0.4265 H         1 GDM         0.0257
     85 H          24.9300  -36.6806   -1.0024 H         1 GDM         0.0257
     86 H          25.9479  -35.6923    0.0738 H         1 GDM         0.0257
@<TRIPOS>BOND
     1    1    2 1  
     2    1    6 1  
     3    1    7 1  
     4    2    3 1  
     5    2   23 2  
     6    3    4 2  
     7    3   22 1  
     8    4    5 1  
     9    5    6 1  
    10    5   24 2  
    11    6   25 1  
    12    7    8 1  
    13    8    9 1  
    14    8   27 1  
    15    9   10 1  
    16   10   11 1  
    17   10   28 1  
    18   11   12 1  
    19   11   30 1  
    20   12   13 1  
    21   12   31 1  
    22   13   14 2  
    23   14   15 1  
    24   14   32 1  
    25   15   16 1  
    26   15   33 1  
    27   16   17 1  
    28   16   37 1  
    29   17   18 1  
    30   18   19 1  
    31   19   20 1  
    32   20   21 1  
    33   20   39 1  
    34   21   22 am 
    35   21   40 2  
    36   25   26 1  
    37   28   29 1  
    38   33   34 1  
    39   34   35 2  
    40   34   36 am 
    41   37   38 1  
    42    1   41 1  
    43    4   42 1  
    44    6   43 1  
    45    7   44 1  
    46    7   45 1  
    47    8   46 1  
    48    9   47 1  
    49    9   48 1  
    50   10   49 1  
    51   11   50 1  
    52   12   51 1  
    53   13   52 1  
    54   15   53 1  
    55   16   54 1  
    56   17   55 1  
    57   17   56 1  
    58   18   57 1  
    59   18   58 1  
    60   19   59 1  
    61   19   60 1  
    62   20   61 1  
    63   22   62 1  
    64   26   63 1  
    65   26   64 1  
    66   26   65 1  
    67   27   66 1  
    68   27   67 1  
    69   27   68 1  
    70   29   69 1  
    71   29   70 1  
    72   29   71 1  
    73   30   72 1  
    74   31   73 1  
    75   31   74 1  
    76   31   75 1  
    77   32   76 1  
    78   32   77 1  
    79   32   78 1  
    80   36   79 1  
    81   36   80 1  
    82   38   81 1  
    83   38   82 1  
    84   38   83 1  
    85   39   84 1  
    86   39   85 1  
    87   39   86 1  
@<TRIPOS>SUBSTRUCTURE
     1 GDM         1

