### 
### Created by X-TOOL on Mon Sep 10 21:13:06 2018
### 

@<TRIPOS>MOLECULE
2yge_ligand
   80    81     1     0     0
SMALL
GAST_HUCK


@<TRIPOS>ATOM
      1 C1         26.0300  -34.1660   -5.2680 C.2       1 GDM         0.0496
      2 C2         26.0820  -33.8880   -3.7670 C.2       1 GDM         0.1905
      3 C3         25.5010  -32.5830   -3.2040 C.2       1 GDM         0.1367
      4 C4         24.8850  -31.6070   -4.1030 C.2       1 GDM         0.0078
      5 C5         24.8440  -31.8760   -5.6120 C.2       1 GDM         0.1522
      6 C6         25.4150  -33.1840   -6.1650 C.2       1 GDM         0.1484
      7 C7         26.0620  -35.6430   -5.6960 C.3       1 GDM        -0.0163
      8 C8         24.5910  -36.0570   -5.5350 C.3       1 GDM        -0.0344
      9 C9         23.9870  -36.2980   -6.9260 C.3       1 GDM        -0.0200
     10 C10        22.7220  -37.1610   -6.8220 C.3       1 GDM         0.0859
     11 C11        21.6530  -36.6490   -7.8100 C.3       1 GDM         0.0868
     12 C12        21.3060  -35.1790   -7.4850 C.3       1 GDM        -0.0094
     13 C13        20.4200  -35.1370   -6.2350 C.2       1 GDM        -0.1006
     14 C14        20.4830  -34.0080   -5.3080 C.2       1 GDM        -0.0457
     15 C15        19.5580  -34.0120   -4.0960 C.3       1 GDM         0.1504
     16 C16        20.4190  -34.1040   -2.8280 C.3       1 GDM         0.1288
     17 C17        21.0130  -35.5220   -2.7370 C.2       1 GDM        -0.0424
     18 C18        22.3230  -35.6760   -2.0870 C.2       1 GDM        -0.0729
     19 C19        23.2300  -34.4470   -1.9430 C.2       1 GDM        -0.0656
     20 C20        24.5100  -34.6060   -1.2390 C.2       1 GDM         0.0245
     21 C21        25.2120  -33.3270   -0.7890 C.2       1 GDM         0.2316
     22 N22        25.5520  -32.3130   -1.7690 N.am      1 GDM        -0.2158
     23 O23        26.5800  -34.7080   -3.0430 O.2       1 GDM        -0.3575
     24 O24        24.3510  -31.0890   -6.3640 O.2       1 GDM        -0.3865
     25 O25        25.3620  -33.4160   -7.5710 O.3       1 GDM        -0.3151
     26 C26        26.2530  -32.4960   -8.2170 C.3       1 GDM         0.0602
     27 C27        24.4860  -37.2570   -4.5780 C.3       1 GDM        -0.0609
     28 O28        23.0780  -38.5110   -7.1330 O.3       1 GDM        -0.3771
     29 C29        24.0930  -38.5440   -8.1490 C.3       1 GDM         0.0369
     30 O30        22.1550  -36.7280   -9.1450 O.3       1 GDM        -0.3877
     31 C31        20.4700  -34.5870   -8.6320 C.3       1 GDM        -0.0567
     32 C32        21.4400  -32.8250   -5.5390 C.3       1 GDM        -0.0373
     33 O33        18.9090  -32.7520   -4.0990 O.3       1 GDM        -0.2436
     34 C34        17.6350  -32.7490   -4.7530 C.2       1 GDM         0.3194
     35 O35        17.2740  -33.6370   -5.4820 O.2       1 GDM        -0.3776
     36 N36        16.7830  -31.5840   -4.5260 N.am      1 GDM        -0.2762
     37 O37        19.6120  -33.8410   -1.6760 O.3       1 GDM        -0.3598
     38 C38        18.3790  -34.5610   -1.7420 C.3       1 GDM         0.0406
     39 C39        24.7810  -35.8790   -0.4210 C.3       1 GDM        -0.0273
     40 O40        25.4780  -33.1720    0.3660 O.2       1 GDM        -0.3753
     41 H1         24.4560  -30.6904   -3.7009 H         1 GDM         0.0327
     42 H2         26.7173  -36.2347   -5.0399 H         1 GDM         0.0392
     43 H3         26.3947  -35.7493   -6.7391 H         1 GDM         0.0392
     44 H4         24.0423  -35.2218   -5.0753 H         1 GDM         0.0317
     45 H5         24.7259  -36.8138   -7.5568 H         1 GDM         0.0295
     46 H6         23.7284  -35.3304   -7.3807 H         1 GDM         0.0295
     47 H7         22.3229  -37.1111   -5.7982 H         1 GDM         0.0623
     48 H8         20.7479  -37.2678   -7.7213 H         1 GDM         0.0637
     49 H9         22.2260  -34.5958   -7.3318 H         1 GDM         0.0398
     50 H10        19.7344  -35.9590   -6.0346 H         1 GDM         0.0247
     51 H11        18.8347  -34.8394   -4.1434 H         1 GDM         0.0853
     52 H12        21.2328  -33.3658   -2.8798 H         1 GDM         0.0852
     53 H13        20.4806  -36.3820   -3.1406 H         1 GDM         0.0741
     54 H14        22.6443  -36.6472   -1.7137 H         1 GDM         0.0436
     55 H15        22.9330  -33.4823   -2.3517 H         1 GDM         0.0539
     56 H16        25.8286  -31.4051   -1.4541 H         1 GDM         0.2392
     57 H17        26.2251  -32.6607   -9.3042 H         1 GDM         0.0581
     58 H18        27.2767  -32.6566   -7.8480 H         1 GDM         0.0581
     59 H19        25.9404  -31.4651   -7.9943 H         1 GDM         0.0581
     60 H20        24.9414  -36.9960   -3.6113 H         1 GDM         0.0234
     61 H21        25.0144  -38.1190   -5.0114 H         1 GDM         0.0234
     62 H22        23.4272  -37.5140   -4.4270 H         1 GDM         0.0234
     63 H23        24.3528  -39.5890   -8.3739 H         1 GDM         0.0524
     64 H24        24.9873  -38.0127   -7.7913 H         1 GDM         0.0524
     65 H25        23.7162  -38.0557   -9.0598 H         1 GDM         0.0524
     66 H26        22.3696  -37.6308   -9.3485 H         1 GDM         0.2101
     67 H27        20.2219  -33.5402   -8.4024 H         1 GDM         0.0247
     68 H28        19.5424  -35.1669   -8.7469 H         1 GDM         0.0247
     69 H29        21.0477  -34.6303   -9.5671 H         1 GDM         0.0247
     70 H30        22.0229  -32.9985   -6.4556 H         1 GDM         0.0376
     71 H31        22.1232  -32.7333   -4.6818 H         1 GDM         0.0376
     72 H32        20.8579  -31.8977   -5.6448 H         1 GDM         0.0376
     73 H33        15.8831  -31.5308   -4.9588 H         1 GDM         0.1831
     74 H34        17.0998  -30.8399   -3.9379 H         1 GDM         0.1831
     75 H35        17.7783  -34.3421   -0.8469 H         1 GDM         0.0527
     76 H36        18.5866  -35.6402   -1.7893 H         1 GDM         0.0527
     77 H37        17.8232  -34.2547   -2.6405 H         1 GDM         0.0527
     78 H38        24.2163  -36.7189   -0.8519 H         1 GDM         0.0384
     79 H39        24.4642  -35.7201    0.6203 H         1 GDM         0.0384
     80 H40        25.8564  -36.1090   -0.4461 H         1 GDM         0.0384
@<TRIPOS>BOND
     1    1    2 1  
     2    1    6 2  
     3    1    7 1  
     4    2    3 1  
     5    2   23 2  
     6    3    4 2  
     7    3   22 1  
     8    4    5 1  
     9    5    6 1  
    10    5   24 2  
    11    6   25 1  
    12    7    8 1  
    13    8    9 1  
    14    8   27 1  
    15    9   10 1  
    16   10   11 1  
    17   10   28 1  
    18   11   12 1  
    19   11   30 1  
    20   12   13 1  
    21   12   31 1  
    22   13   14 2  
    23   14   15 1  
    24   14   32 1  
    25   15   16 1  
    26   15   33 1  
    27   16   17 1  
    28   16   37 1  
    29   17   18 2  
    30   18   19 1  
    31   19   20 2  
    32   20   21 1  
    33   20   39 1  
    34   21   22 am 
    35   21   40 2  
    36   25   26 1  
    37   28   29 1  
    38   33   34 1  
    39   34   35 2  
    40   34   36 am 
    41   37   38 1  
    42    4   41 1  
    43    7   42 1  
    44    7   43 1  
    45    8   44 1  
    46    9   45 1  
    47    9   46 1  
    48   10   47 1  
    49   11   48 1  
    50   12   49 1  
    51   13   50 1  
    52   15   51 1  
    53   16   52 1  
    54   17   53 1  
    55   18   54 1  
    56   19   55 1  
    57   22   56 1  
    58   26   57 1  
    59   26   58 1  
    60   26   59 1  
    61   27   60 1  
    62   27   61 1  
    63   27   62 1  
    64   29   63 1  
    65   29   64 1  
    66   29   65 1  
    67   30   66 1  
    68   31   67 1  
    69   31   68 1  
    70   31   69 1  
    71   32   70 1  
    72   32   71 1  
    73   32   72 1  
    74   36   73 1  
    75   36   74 1  
    76   38   75 1  
    77   38   76 1  
    78   38   77 1  
    79   39   78 1  
    80   39   79 1  
    81   39   80 1  
@<TRIPOS>SUBSTRUCTURE
     1 GDM         1

