### 
### Created by X-TOOL on Mon Sep 10 21:13:07 2018
### 

@<TRIPOS>MOLECULE
2ygf_ligand
   86    87     1     0     0
SMALL
GAST_HUCK


@<TRIPOS>ATOM
      1 C1         25.8940  -34.1360   -5.6360 C.3       1 GDM         0.0814
      2 C2         26.0240  -33.9190   -4.1290 C.2       1 GDM         0.1826
      3 C3         25.4390  -32.6570   -3.4950 C.2       1 GDM         0.1432
      4 C4         24.7680  -31.6410   -4.3100 C.2       1 GDM         0.0101
      5 C5         24.6500  -31.8480   -5.8220 C.2       1 GDM         0.1249
      6 C6         25.2170  -33.1240   -6.4490 C.3       1 GDM         0.1412
      7 C7         25.9310  -35.5850   -6.1410 C.3       1 GDM        -0.0273
      8 C8         24.4920  -36.0830   -5.9440 C.3       1 GDM        -0.0390
      9 C9         23.7890  -36.1460   -7.3140 C.3       1 GDM        -0.0213
     10 C10        22.5190  -37.0000   -7.1990 C.3       1 GDM         0.0857
     11 C11        21.5500  -36.5240   -8.2950 C.3       1 GDM         0.0868
     12 C12        21.0410  -35.0920   -8.0000 C.3       1 GDM        -0.0094
     13 C13        20.3620  -35.0260   -6.6230 C.2       1 GDM        -0.1008
     14 C14        20.3800  -33.8240   -5.7870 C.2       1 GDM        -0.0484
     15 C15        19.6330  -33.8950   -4.4500 C.3       1 GDM         0.1390
     16 C16        20.6460  -33.8730   -3.2950 C.3       1 GDM         0.0970
     17 C17        21.1130  -35.2980   -2.9900 C.3       1 GDM        -0.0219
     18 C18        22.2140  -35.4480   -2.0290 C.3       1 GDM        -0.0481
     19 C19        23.4980  -34.6670   -2.3080 C.3       1 GDM        -0.0327
     20 C20        24.6510  -34.7500   -1.4020 C.3       1 GDM         0.0541
     21 C21        25.2940  -33.4120   -1.0280 C.2       1 GDM         0.2173
     22 N22        25.5620  -32.4200   -2.0590 N.am      1 GDM        -0.2123
     23 O23        26.5710  -34.7510   -3.4490 O.2       1 GDM        -0.3624
     24 O24        24.1030  -31.0370   -6.5110 O.2       1 GDM        -0.4035
     25 O25        25.1070  -33.2960   -7.8490 O.3       1 GDM        -0.3599
     26 C26        26.2330  -32.6210   -8.4220 C.3       1 GDM         0.0398
     27 C27        24.5120  -37.4340   -5.2220 C.3       1 GDM        -0.0622
     28 O28        22.9080  -38.3660   -7.4420 O.3       1 GDM        -0.3771
     29 C29        21.7750  -39.2360   -7.4850 C.3       1 GDM         0.0369
     30 O30        22.2820  -36.5090   -9.5270 O.3       1 GDM        -0.3877
     31 C31        19.9670  -34.7170   -9.0410 C.3       1 GDM        -0.0567
     32 C32        21.0880  -32.5220   -6.2130 C.3       1 GDM        -0.0375
     33 O33        18.7980  -32.7450   -4.2920 O.3       1 GDM        -0.2464
     34 C34        17.6400  -32.7150   -5.1230 C.2       1 GDM         0.3192
     35 O35        17.3610  -33.6100   -5.8690 O.2       1 GDM        -0.3776
     36 N36        16.7840  -31.5310   -5.0200 N.am      1 GDM        -0.2762
     37 O37        19.9950  -33.3840   -2.1210 O.3       1 GDM        -0.3749
     38 C38        18.9760  -34.3050   -1.7100 C.3       1 GDM         0.0371
     39 C39        24.7920  -35.9220   -0.4250 C.3       1 GDM        -0.0446
     40 O40        25.5600  -33.1450    0.1100 O.2       1 GDM        -0.3788
     41 H1         26.9241  -33.8625   -5.9082 H         1 GDM         0.0575
     42 H2         24.3569  -30.7466   -3.8442 H         1 GDM         0.0362
     43 H3         24.2566  -33.6378   -6.2957 H         1 GDM         0.0836
     44 H4         26.6375  -36.1870   -5.5507 H         1 GDM         0.0297
     45 H5         26.2157  -35.6220   -7.2029 H         1 GDM         0.0297
     46 H6         23.9497  -35.3647   -5.3116 H         1 GDM         0.0301
     47 H7         24.4674  -36.5958   -8.0539 H         1 GDM         0.0294
     48 H8         23.5190  -35.1290   -7.6346 H         1 GDM         0.0294
     49 H9         22.0591  -36.8985   -6.2049 H         1 GDM         0.0623
     50 H10        20.6952  -37.2127   -8.3654 H         1 GDM         0.0637
     51 H11        21.8819  -34.3841   -8.0418 H         1 GDM         0.0398
     52 H12        19.8456  -35.9106   -6.2533 H         1 GDM         0.0246
     53 H13        19.0279  -34.8128   -4.4111 H         1 GDM         0.0823
     54 H14        21.5035  -33.2356   -3.5565 H         1 GDM         0.0647
     55 H15        21.4366  -35.7513   -3.9386 H         1 GDM         0.0293
     56 H16        20.2494  -35.8526   -2.5943 H         1 GDM         0.0293
     57 H17        22.4777  -36.5153   -1.9922 H         1 GDM         0.0268
     58 H18        21.8399  -35.1285   -1.0451 H         1 GDM         0.0268
     59 H19        23.2135  -33.6054   -2.3540 H         1 GDM         0.0292
     60 H20        23.8537  -34.9945   -3.2960 H         1 GDM         0.0292
     61 H21        25.3974  -35.0870   -2.1364 H         1 GDM         0.0543
     62 H22        25.8514  -31.5099   -1.7625 H         1 GDM         0.2404
     63 H23        26.2019  -32.7206   -9.5170 H         1 GDM         0.0526
     64 H24        27.1623  -33.0683   -8.0395 H         1 GDM         0.0526
     65 H25        26.1995  -31.5558   -8.1496 H         1 GDM         0.0526
     66 H26        25.0246  -37.3253   -4.2548 H         1 GDM         0.0232
     67 H27        25.0460  -38.1717   -5.8390 H         1 GDM         0.0232
     68 H28        23.4799  -37.7751   -5.0536 H         1 GDM         0.0232
     69 H29        22.1110  -40.2666   -7.6718 H         1 GDM         0.0524
     70 H30        21.0994  -38.9186   -8.2929 H         1 GDM         0.0524
     71 H31        21.2426  -39.1925   -6.5234 H         1 GDM         0.0524
     72 H32        22.5987  -37.3844   -9.7166 H         1 GDM         0.2101
     73 H33        19.5995  -33.7001   -8.8387 H         1 GDM         0.0247
     74 H34        19.1305  -35.4285   -8.9775 H         1 GDM         0.0247
     75 H35        20.4048  -34.7548  -10.0494 H         1 GDM         0.0247
     76 H36        21.5636  -32.6674   -7.1941 H         1 GDM         0.0376
     77 H37        21.8549  -32.2613   -5.4688 H         1 GDM         0.0376
     78 H38        20.3505  -31.7086   -6.2800 H         1 GDM         0.0376
     79 H39        15.9593  -31.4599   -5.5811 H         1 GDM         0.1831
     80 H40        17.0242  -30.7937   -4.3886 H         1 GDM         0.1831
     81 H41        18.4791  -33.9226   -0.8062 H         1 GDM         0.0524
     82 H42        19.4313  -35.2824   -1.4924 H         1 GDM         0.0524
     83 H43        18.2358  -34.4165   -2.5160 H         1 GDM         0.0524
     84 H44        25.7151  -35.8017    0.1611 H         1 GDM         0.0257
     85 H45        24.8358  -36.8658   -0.9883 H         1 GDM         0.0257
     86 H46        23.9265  -35.9398    0.2537 H         1 GDM         0.0257
@<TRIPOS>BOND
     1    1    2 1  
     2    1    6 1  
     3    1    7 1  
     4    2    3 1  
     5    2   23 2  
     6    3    4 2  
     7    3   22 1  
     8    4    5 1  
     9    5    6 1  
    10    5   24 2  
    11    6   25 1  
    12    7    8 1  
    13    8    9 1  
    14    8   27 1  
    15    9   10 1  
    16   10   11 1  
    17   10   28 1  
    18   11   12 1  
    19   11   30 1  
    20   12   13 1  
    21   12   31 1  
    22   13   14 2  
    23   14   15 1  
    24   14   32 1  
    25   15   16 1  
    26   15   33 1  
    27   16   17 1  
    28   16   37 1  
    29   17   18 1  
    30   18   19 1  
    31   19   20 1  
    32   20   21 1  
    33   20   39 1  
    34   21   22 am 
    35   21   40 2  
    36   25   26 1  
    37   28   29 1  
    38   33   34 1  
    39   34   35 2  
    40   34   36 am 
    41   37   38 1  
    42    1   41 1  
    43    4   42 1  
    44    6   43 1  
    45    7   44 1  
    46    7   45 1  
    47    8   46 1  
    48    9   47 1  
    49    9   48 1  
    50   10   49 1  
    51   11   50 1  
    52   12   51 1  
    53   13   52 1  
    54   15   53 1  
    55   16   54 1  
    56   17   55 1  
    57   17   56 1  
    58   18   57 1  
    59   18   58 1  
    60   19   59 1  
    61   19   60 1  
    62   20   61 1  
    63   22   62 1  
    64   26   63 1  
    65   26   64 1  
    66   26   65 1  
    67   27   66 1  
    68   27   67 1  
    69   27   68 1  
    70   29   69 1  
    71   29   70 1  
    72   29   71 1  
    73   30   72 1  
    74   31   73 1  
    75   31   74 1  
    76   31   75 1  
    77   32   76 1  
    78   32   77 1  
    79   32   78 1  
    80   36   79 1  
    81   36   80 1  
    82   38   81 1  
    83   38   82 1  
    84   38   83 1  
    85   39   84 1  
    86   39   85 1  
    87   39   86 1  
@<TRIPOS>SUBSTRUCTURE
     1 GDM         1

