### 
### Created by X-TOOL on Mon Sep 10 21:13:08 2018
### 

@<TRIPOS>MOLECULE
2ygu_ligand
   23    22     1     0     0
SMALL
GAST_HUCK


@<TRIPOS>ATOM
      1 C20        60.8750   62.7600  -27.2040 C.3       1 HP6        -0.0653
      2 C21        60.3990   63.3170  -28.5710 C.3       1 HP6        -0.0559
      3 C22        61.5630   63.6840  -29.5190 C.3       1 HP6        -0.0533
      4 C23        61.2390   64.9430  -30.3610 C.3       1 HP6        -0.0531
      5 C24        61.6870   66.2050  -29.6140 C.3       1 HP6        -0.0533
      6 C25        62.0690   67.3350  -30.5770 C.3       1 HP6        -0.0559
      7 C26        62.9380   68.4180  -29.9150 C.3       1 HP6        -0.0653
      8 H          61.4647   61.8577  -27.3662 H         1 HP6         0.0230
      9 H          61.4860   63.5093  -26.7007 H         1 HP6         0.0230
     10 H          60.0077   62.5229  -26.5878 H         1 HP6         0.0230
     11 H          59.8321   64.2275  -28.3768 H         1 HP6         0.0263
     12 H          59.8104   62.5391  -29.0572 H         1 HP6         0.0263
     13 H          61.7290   62.8487  -30.1993 H         1 HP6         0.0265
     14 H          62.4460   63.8922  -28.9148 H         1 HP6         0.0265
     15 H          60.1638   64.9916  -30.5332 H         1 HP6         0.0265
     16 H          61.7677   64.8833  -31.3123 H         1 HP6         0.0265
     17 H          62.5634   65.9549  -29.0162 H         1 HP6         0.0265
     18 H          60.8574   66.5487  -28.9961 H         1 HP6         0.0265
     19 H          61.1478   67.8088  -30.9162 H         1 HP6         0.0263
     20 H          62.6460   66.8972  -31.3916 H         1 HP6         0.0263
     21 H          62.3921   68.8612  -29.0821 H         1 HP6         0.0230
     22 H          63.8604   67.9678  -29.5480 H         1 HP6         0.0230
     23 H          63.1751   69.1897  -30.6474 H         1 HP6         0.0230
@<TRIPOS>BOND
     1    1    2 1  
     2    2    3 1  
     3    3    4 1  
     4    4    5 1  
     5    5    6 1  
     6    6    7 1  
     7    1    8 1  
     8    1    9 1  
     9    1   10 1  
    10    2   11 1  
    11    2   12 1  
    12    3   13 1  
    13    3   14 1  
    14    4   15 1  
    15    4   16 1  
    16    5   17 1  
    17    5   18 1  
    18    6   19 1  
    19    6   20 1  
    20    7   21 1  
    21    7   22 1  
    22    7   23 1  
@<TRIPOS>SUBSTRUCTURE
     1 HP6         1

