### 
### Created by X-TOOL on Mon Sep 10 21:13:07 2018
### 

@<TRIPOS>MOLECULE
2yhd_ligand
   35    38     1     0     0
SMALL
GAST_HUCK


@<TRIPOS>ATOM
      1 C1         36.2180    7.8790   18.3740 C.ar      1 AV6         0.0317
      2 C2         36.7990    9.0900   18.9480 C.ar      1 AV6         0.0536
      3 C3         37.8270    9.7420   18.3180 C.ar      1 AV6        -0.0484
      4 C4         38.3090    9.2370   17.1260 C.ar      1 AV6        -0.0814
      5 C5         37.8020    8.0890   16.5360 C.ar      1 AV6        -0.0767
      6 C6         36.7570    7.3820   17.0950 C.ar      1 AV6        -0.0406
      7 C7         36.2160    6.2530   16.5130 C.ar      1 AV6        -0.0767
      8 C8         35.1810    5.6340   17.1940 C.ar      1 AV6        -0.0814
      9 C9         34.6390    6.0660   18.4070 C.ar      1 AV6        -0.0484
     10 C10        35.1240    7.1750   19.0490 C.ar      1 AV6         0.0536
     11 N11        34.6580    7.6400   20.2060 N.pl3     1 AV6        -0.2870
     12 C12        35.2290    8.8680   20.7600 C.3       1 AV6         0.1457
     13 N13        36.3210    9.5460   20.0800 N.pl3     1 AV6        -0.2870
     14 C15        35.1250    9.2720   22.1570 C.ar      1 AV6        -0.0150
     15 C16        36.0870   10.1510   22.6860 C.ar      1 AV6        -0.0359
     16 C17        36.0150   10.5610   24.0110 C.ar      1 AV6         0.1099
     17 C18        34.8950   10.0450   24.8040 C.ar      1 AV6         0.1088
     18 C19        33.9740    9.2000   24.2240 C.ar      1 AV6        -0.0480
     19 C20        34.0800    8.8340   22.9060 C.ar      1 AV6        -0.0759
     20 O21        34.7290   10.3930   26.0940 O.3       1 AV6        -0.3414
     21 O22        36.9390   11.3910   24.5560 O.3       1 AV6        -0.3385
     22 H          38.2575   10.6450   18.7509 H         1 AV6         0.0437
     23 H          39.1229    9.7636   16.6277 H         1 AV6         0.0570
     24 H          38.2417    7.7348   15.6036 H         1 AV6         0.0442
     25 H          36.5858    5.8672   15.5630 H         1 AV6         0.0442
     26 H          34.7543    4.7361   16.7469 H         1 AV6         0.0570
     27 H          33.8138    5.5097   18.8515 H         1 AV6         0.0437
     28 H          36.8955   10.5134   22.0511 H         1 AV6         0.0451
     29 H          33.1476    8.8160   24.8222 H         1 AV6         0.0492
     30 H          33.3232    8.1897   22.4585 H         1 AV6         0.0437
     31 H          34.7422    9.6044   26.6412 H         1 AV6         0.2420
     32 H          37.5912   11.6229   23.8908 H         1 AV6         0.2442
     33 H1         33.9062    7.1425   20.7041 H         1 AV6         0.1841
     34 H2         34.4196    9.5145   20.3900 H         1 AV6         0.0968
     35 H3         36.7252   10.3979   20.4944 H         1 AV6         0.1841
@<TRIPOS>BOND
     1    1    2 ar 
     2    1    6 ar 
     3    1   10 ar 
     4    2    3 ar 
     5    2   13 1  
     6    3    4 ar 
     7    4    5 ar 
     8    5    6 ar 
     9    6    7 ar 
    10    7    8 ar 
    11    8    9 ar 
    12    9   10 ar 
    13   10   11 1  
    14   11   12 1  
    15   12   13 1  
    16   12   14 1  
    17   14   15 ar 
    18   14   19 ar 
    19   15   16 ar 
    20   16   17 ar 
    21   16   21 1  
    22   17   18 ar 
    23   17   20 1  
    24   18   19 ar 
    25    3   22 1  
    26    4   23 1  
    27    5   24 1  
    28    7   25 1  
    29    8   26 1  
    30    9   27 1  
    31   15   28 1  
    32   18   29 1  
    33   19   30 1  
    34   20   31 1  
    35   21   32 1  
    36   11   33 1  
    37   12   34 1  
    38   13   35 1  
@<TRIPOS>SUBSTRUCTURE
     1 AV6         1

