### 
### Created by X-TOOL on Mon Sep 10 21:13:08 2018
### 

@<TRIPOS>MOLECULE
2yhw_ligand
   30    30     1     0     0
SMALL
GAST_HUCK


@<TRIPOS>ATOM
      1 C1        -11.4390   31.2200   17.2280 C.3       1 BM3         0.1823
      2 O1        -12.4770   30.6520   17.9500 O.3       1 BM3        -0.3651
      3 C2        -10.8320   30.1610   16.2990 C.3       1 BM3         0.1208
      4 N2         -9.9050   30.8430   15.3430 N.am      1 BM3        -0.2766
      5 C7         -9.8920   30.6190   14.0410 C.2       1 BM3         0.1733
      6 O7        -10.5960   29.7670   13.4720 O.2       1 BM3        -0.3974
      7 C8         -8.9660   31.5630   13.2470 C.3       1 BM3         0.0257
      8 C3        -10.1930   29.0690   17.1090 C.3       1 BM3         0.1110
      9 O3         -9.5510   28.0780   16.2570 O.3       1 BM3        -0.3867
     10 C4         -9.1920   29.6340   18.0690 C.3       1 BM3         0.1116
     11 O4         -8.6570   28.5870   18.9070 O.3       1 BM3        -0.3865
     12 C5         -9.8020   30.7030   18.9370 C.3       1 BM3         0.1130
     13 C6         -8.8850   31.4500   19.8470 C.3       1 BM3         0.0730
     14 O6         -7.8260   32.1090   19.1850 O.3       1 BM3        -0.3924
     15 O5        -10.4080   31.7220   18.1000 O.3       1 BM3        -0.3410
     16 H1        -11.8353   32.0511   16.6261 H         1 BM3         0.0932
     17 H2        -12.8578   31.3068   18.5235 H         1 BM3         0.2126
     18 H3        -11.6421   29.7042   15.7116 H         1 BM3         0.0633
     19 H4         -9.2561   31.5085   15.7117 H         1 BM3         0.1857
     20 H5         -9.0141   31.3098   12.1776 H         1 BM3         0.0467
     21 H6         -7.9321   31.4487   13.6046 H         1 BM3         0.0467
     22 H7         -9.2914   32.6036   13.3924 H         1 BM3         0.0467
     23 H8        -10.9829   28.5669   17.6868 H         1 BM3         0.0645
     24 H9        -10.1997   27.6872   15.6835 H         1 BM3         0.2100
     25 H10        -8.3698   30.0800   17.4901 H         1 BM3         0.0647
     26 H11        -8.0242   28.9583   19.5105 H         1 BM3         0.2100
     27 H12       -10.5758   30.2206   19.5522 H         1 BM3         0.0647
     28 H13        -8.4531   30.7363   20.5640 H         1 BM3         0.0584
     29 H14        -9.4750   32.2033   20.3896 H         1 BM3         0.0584
     30 H15        -7.2869   32.5605   19.8237 H         1 BM3         0.2095
@<TRIPOS>BOND
     1    1    2 1  
     2    1    3 1  
     3    1   15 1  
     4    3    4 1  
     5    3    8 1  
     6    4    5 am 
     7    5    6 2  
     8    5    7 1  
     9    8    9 1  
    10    8   10 1  
    11   10   11 1  
    12   10   12 1  
    13   12   13 1  
    14   12   15 1  
    15   13   14 1  
    16    1   16 1  
    17    2   17 1  
    18    3   18 1  
    19    4   19 1  
    20    7   20 1  
    21    7   21 1  
    22    7   22 1  
    23    8   23 1  
    24    9   24 1  
    25   10   25 1  
    26   11   26 1  
    27   12   27 1  
    28   13   28 1  
    29   13   29 1  
    30   14   30 1  
@<TRIPOS>SUBSTRUCTURE
     1 BM3         1

