### 
### Created by X-TOOL on Mon Sep 10 21:13:08 2018
### 

@<TRIPOS>MOLECULE
2yhy_ligand
   30    30     1     0     0
SMALL
GAST_HUCK


@<TRIPOS>ATOM
      1 C1        -11.2590   30.9810   17.2800 C.3       1 BM3         0.1823
      2 O1        -12.3060   30.4620   18.0610 O.3       1 BM3        -0.3651
      3 C2        -10.6400   29.9510   16.3990 C.3       1 BM3         0.1208
      4 N2         -9.7360   30.6600   15.4690 N.am      1 BM3        -0.2766
      5 C7         -9.7350   30.5080   14.1000 C.2       1 BM3         0.1733
      6 O7        -10.4080   29.6140   13.5110 O.2       1 BM3        -0.3974
      7 C8         -8.7430   31.4540   13.4030 C.3       1 BM3         0.0257
      8 C3         -9.9750   28.9240   17.2250 C.3       1 BM3         0.1110
      9 O3         -9.3980   27.9910   16.3220 O.3       1 BM3        -0.3867
     10 C4         -9.0070   29.5240   18.1660 C.3       1 BM3         0.1116
     11 O4         -8.4230   28.4830   18.9810 O.3       1 BM3        -0.3865
     12 C5         -9.6070   30.6120   19.0190 C.3       1 BM3         0.1130
     13 C6         -8.6450   31.3310   19.9440 C.3       1 BM3         0.0730
     14 O6         -7.6520   31.9840   19.1760 O.3       1 BM3        -0.3924
     15 O5        -10.2560   31.5520   18.1420 O.3       1 BM3        -0.3410
     16 H1        -11.6693   31.7763   16.6404 H         1 BM3         0.0932
     17 H2        -12.6910   31.1606   18.5770 H         1 BM3         0.2126
     18 H3        -11.4257   29.4553   15.8101 H         1 BM3         0.0633
     19 H4         -9.0751   31.2984   15.8636 H         1 BM3         0.1857
     20 H5         -8.7831   31.2911   12.3159 H         1 BM3         0.0467
     21 H6         -7.7250   31.2507   13.7669 H         1 BM3         0.0467
     22 H7         -9.0113   32.4969   13.6276 H         1 BM3         0.0467
     23 H8        -10.7358   28.4022   17.8241 H         1 BM3         0.0645
     24 H9        -10.0817   27.6061   15.7863 H         1 BM3         0.2100
     25 H10        -8.2031   29.9815   17.5707 H         1 BM3         0.0647
     26 H11        -7.8004   28.8681   19.5864 H         1 BM3         0.2100
     27 H12       -10.3726   30.1447   19.6558 H         1 BM3         0.0647
     28 H13        -8.1685   30.6021   20.6160 H         1 BM3         0.0584
     29 H14        -9.1953   32.0740   20.5399 H         1 BM3         0.0584
     30 H15        -7.0495   32.4343   19.7564 H         1 BM3         0.2095
@<TRIPOS>BOND
     1    1    2 1  
     2    1    3 1  
     3    1   15 1  
     4    3    4 1  
     5    3    8 1  
     6    4    5 am 
     7    5    6 2  
     8    5    7 1  
     9    8    9 1  
    10    8   10 1  
    11   10   11 1  
    12   10   12 1  
    13   12   13 1  
    14   12   15 1  
    15   13   14 1  
    16    1   16 1  
    17    2   17 1  
    18    3   18 1  
    19    4   19 1  
    20    7   20 1  
    21    7   21 1  
    22    7   22 1  
    23    8   23 1  
    24    9   24 1  
    25   10   25 1  
    26   11   26 1  
    27   12   27 1  
    28   13   28 1  
    29   13   29 1  
    30   14   30 1  
@<TRIPOS>SUBSTRUCTURE
     1 BM3         1

