### 
### Created by X-TOOL on Mon Sep 10 21:13:10 2018
### 

@<TRIPOS>MOLECULE
2yi0_ligand
   33    35     1     0     0
SMALL
GAST_HUCK


@<TRIPOS>ATOM
      1 N1         30.1230    9.0240   28.0130 N.2       1 YI0        -0.1418
      2 N2         30.0090    9.9180   27.0770 N.2       1 YI0        -0.1881
      3 C3         30.8210    9.6080   26.0270 C.2       1 YI0         0.0871
      4 C4         31.6090    8.4490   26.1710 C.2       1 YI0         0.0775
      5 C6         30.8820   10.4360   24.8480 C.ar      1 YI0         0.0131
      6 C7         32.5560    7.8240   25.3410 C.ar      1 YI0        -0.0025
      7 C12        32.2050    7.4140   24.0780 C.ar      1 YI0        -0.0552
      8 C13        33.0390    6.8120   23.1840 C.ar      1 YI0        -0.0270
      9 C14        34.3760    6.6920   23.5110 C.ar      1 YI0         0.0970
     10 C15        34.8020    7.0880   24.7700 C.ar      1 YI0        -0.0270
     11 C16        33.8940    7.6470   25.6490 C.ar      1 YI0        -0.0552
     12 C21        29.7440   10.8380   24.1780 C.ar      1 YI0         0.0884
     13 C22        29.7380   11.5920   22.9570 C.ar      1 YI0        -0.0051
     14 C23        31.0040   12.0830   22.5960 C.ar      1 YI0         0.0924
     15 C24        32.1320   11.6890   23.3220 C.ar      1 YI0         0.0548
     16 C25        32.1590   10.9080   24.4240 C.ar      1 YI0        -0.0582
     17 O29        31.1400   12.7290   21.4090 O.3       1 YI0        -0.3355
     18 O30        28.5370   10.4350   24.6060 O.3       1 YI0        -0.3342
     19 O33        35.3390    6.1070   22.7550 O.3       1 YI0        -0.3171
     20 S1         31.1670    7.8150   27.7500 S.3       1 YI0         0.0539
     21 C34        34.9620    5.7450   21.4020 C.3       1 YI0         0.0610
     22 CL         33.7210   12.3740   22.7910 Cl        1 YI0        -0.0884
     23 H1         31.1805    7.5831   23.7668 H         1 YI0         0.0630
     24 H2         32.6626    6.4365   22.2394 H         1 YI0         0.0561
     25 H3         35.8381    6.9602   25.0620 H         1 YI0         0.0561
     26 H4         34.2457    7.9615   26.6249 H         1 YI0         0.0630
     27 H5         28.8434   11.7659   22.3701 H         1 YI0         0.0459
     28 H6         33.0773   10.6602   24.9439 H         1 YI0         0.0545
     29 H7         30.2800   12.9213   21.0541 H         1 YI0         0.2483
     30 H8         27.9866   11.1942   24.7586 H         1 YI0         0.2491
     31 H9         35.8208    5.2826   20.8934 H         1 YI0         0.0581
     32 H10        34.6533    6.6471   20.8535 H         1 YI0         0.0581
     33 H11        34.1261    5.0306   21.4329 H         1 YI0         0.0581
@<TRIPOS>BOND
     1    1    2 2  
     2    1   20 1  
     3    2    3 1  
     4    3    4 2  
     5    3    5 1  
     6    4    6 1  
     7    4   20 1  
     8    5   12 ar 
     9    5   16 ar 
    10    6    7 ar 
    11    6   11 ar 
    12    7    8 ar 
    13    8    9 ar 
    14    9   10 ar 
    15    9   19 1  
    16   10   11 ar 
    17   12   13 ar 
    18   12   18 1  
    19   13   14 ar 
    20   14   15 ar 
    21   14   17 1  
    22   15   16 ar 
    23   15   22 1  
    24   19   21 1  
    25    7   23 1  
    26    8   24 1  
    27   10   25 1  
    28   11   26 1  
    29   13   27 1  
    30   16   28 1  
    31   17   29 1  
    32   18   30 1  
    33   21   31 1  
    34   21   32 1  
    35   21   33 1  
@<TRIPOS>SUBSTRUCTURE
     1 YI0         1

