### 
### Created by X-TOOL on Mon Sep 10 21:13:10 2018
### 

@<TRIPOS>MOLECULE
2yi5_ligand
   39    41     1     0     0
SMALL
GAST_HUCK


@<TRIPOS>ATOM
      1 N1          2.0290   33.2530    7.1110 N.2       1 YI5        -0.1137
      2 N2          2.2330   32.9080    5.9290 N.2       1 YI5        -0.1696
      3 C3          1.7750   33.7170    4.9430 C.3       1 YI5         0.1180
      4 C4          0.8550   34.6420    5.4720 C.3       1 YI5         0.0870
      5 C6          1.7970   33.3460    3.5880 C.ar      1 YI5         0.0040
      6 C7          0.2650   35.7280    4.8310 C.ar      1 YI5        -0.0440
      7 C12        -0.8150   36.4200    5.3540 C.ar      1 YI5        -0.0385
      8 C13        -1.3190   37.5410    4.6900 C.ar      1 YI5         0.1132
      9 C14        -0.6640   38.0390    3.5610 C.ar      1 YI5         0.1122
     10 C15         0.4680   37.3940    3.0910 C.ar      1 YI5        -0.0479
     11 C16         0.9390   36.2690    3.7470 C.ar      1 YI5        -0.0788
     12 C21         2.9590   32.8810    2.9690 C.ar      1 YI5         0.0839
     13 C22         2.9710   32.4880    1.6210 C.ar      1 YI5        -0.0108
     14 C23         1.7770   32.3400    0.9280 C.ar      1 YI5         0.0863
     15 C24         0.5790   32.6500    1.5870 C.ar      1 YI5         0.0493
     16 C25         0.5870   33.1140    2.9160 C.ar      1 YI5        -0.0609
     17 O29         1.7690   31.8950   -0.3720 O.3       1 YI5        -0.3393
     18 O30         4.1380   33.0700    3.6080 O.3       1 YI5        -0.3390
     19 O33        -1.0810   39.1480    2.8910 O.3       1 YI5        -0.3294
     20 S1          1.0890   34.6350    7.1500 S.3       1 YI5         0.0233
     21 C34        -1.6540   40.0970    3.8060 C.3       1 YI5         0.0554
     22 CL         -0.9200   32.4330    0.7220 Cl        1 YI5        -0.0906
     23 CAB        -2.6580   37.8870    6.5900 C.3       1 YI5         0.0568
     24 OAN        -2.4350   38.1480    5.1770 O.3       1 YI5        -0.3266
     25 H           2.6166   34.2894    4.5530 H         1 YI5         0.0703
     26 H          -0.1084   34.3308    5.0681 H         1 YI5         0.0615
     27 H          -1.2728   36.0890    6.2862 H         1 YI5         0.0451
     28 H           0.9858   37.7702    2.2087 H         1 YI5         0.0493
     29 H           1.8602   35.7984    3.4034 H         1 YI5         0.0436
     30 H           3.9192   32.2988    1.1178 H         1 YI5         0.0446
     31 H          -0.3575   33.2952    3.4290 H         1 YI5         0.0507
     32 H           2.6707   31.7332   -0.6592 H         1 YI5         0.2461
     33 H           4.6401   32.2518    3.5994 H         1 YI5         0.2457
     34 H          -2.5070   39.6436    4.3109 H         1 YI5         0.0570
     35 H          -0.9054   40.3863    4.5435 H         1 YI5         0.0570
     36 H          -1.9826   40.9782    3.2550 H         1 YI5         0.0570
     37 H          -2.7707   36.8142    6.7466 H         1 YI5         0.0573
     38 H          -1.8065   38.2519    7.1644 H         1 YI5         0.0573
     39 H          -3.5634   38.4000    6.9145 H         1 YI5         0.0573
@<TRIPOS>BOND
     1    1    2 2  
     2    1   20 1  
     3    2    3 1  
     4    3    4 1  
     5    3    5 1  
     6    4    6 1  
     7    4   20 1  
     8    5   12 ar 
     9    5   16 ar 
    10    6    7 ar 
    11    6   11 ar 
    12    7    8 ar 
    13    8    9 ar 
    14    8   24 1  
    15    9   10 ar 
    16    9   19 1  
    17   10   11 ar 
    18   12   13 ar 
    19   12   18 1  
    20   13   14 ar 
    21   14   15 ar 
    22   14   17 1  
    23   15   16 ar 
    24   15   22 1  
    25   19   21 1  
    26   24   23 1  
    27    3   25 1  
    28    4   26 1  
    29    7   27 1  
    30   10   28 1  
    31   11   29 1  
    32   13   30 1  
    33   16   31 1  
    34   17   32 1  
    35   18   33 1  
    36   21   34 1  
    37   21   35 1  
    38   21   36 1  
    39   23   37 1  
    40   23   38 1  
    41   23   39 1  
@<TRIPOS>SUBSTRUCTURE
     1 YI5         1

