### 
### Created by X-TOOL on Mon Sep 10 21:13:09 2018
### 

@<TRIPOS>MOLECULE
2yi7_ligand
   36    38     1     0     0
SMALL
GAST_HUCK


@<TRIPOS>ATOM
      1 N1         29.9550    9.2310   28.1610 N.2       1 BZ8        -0.1418
      2 N2         29.8940   10.0360   27.1790 N.2       1 BZ8        -0.1881
      3 C3         30.6790    9.6670   26.1280 C.2       1 BZ8         0.0871
      4 C4         31.4010    8.4840   26.3290 C.2       1 BZ8         0.0775
      5 C6         30.7760   10.4410   24.9340 C.ar      1 BZ8         0.0131
      6 C7         32.2820    7.7630   25.5100 C.ar      1 BZ8        -0.0025
      7 C16        33.5610    7.3940   25.9190 C.ar      1 BZ8        -0.0552
      8 C15        34.4230    6.7170   24.9990 C.ar      1 BZ8        -0.0270
      9 C14        33.9660    6.4300   23.6960 C.ar      1 BZ8         0.0974
     10 C13        32.7060    6.7480   23.3680 C.ar      1 BZ8        -0.0270
     11 C12        31.8840    7.4880   24.2010 C.ar      1 BZ8        -0.0552
     12 C21        29.6680   10.8210   24.2350 C.ar      1 BZ8         0.0884
     13 C22        29.6630   11.5160   23.0100 C.ar      1 BZ8        -0.0051
     14 C23        30.9030   11.9560   22.5330 C.ar      1 BZ8         0.0924
     15 C24        31.9960   11.6330   23.2480 C.ar      1 BZ8         0.0548
     16 C25        32.0140   10.9030   24.4280 C.ar      1 BZ8        -0.0582
     17 O29        31.0130   12.5680   21.3180 O.3       1 BZ8        -0.3355
     18 O30        28.4160   10.4180   24.6800 O.3       1 BZ8        -0.3342
     19 O33        34.9240    5.7370   22.9910 O.3       1 BZ8        -0.3141
     20 S1         30.9240    7.9770   27.9530 S.3       1 BZ8         0.0539
     21 C34        34.5470    5.3840   21.6320 C.3       1 BZ8         0.0692
     22 CL         33.5760   12.2560   22.7250 Cl        1 BZ8        -0.0884
     23 CAA        35.7260    4.6000   21.0860 C.3       1 BZ8        -0.0368
     24 H1         33.9002    7.6173   26.9241 H         1 BZ8         0.0630
     25 H2         35.4223    6.4262   25.3021 H         1 BZ8         0.0561
     26 H3         32.3154    6.4130   22.4139 H         1 BZ8         0.0561
     27 H4         30.9310    7.8538   23.8362 H         1 BZ8         0.0630
     28 H5         28.7449   11.7008   22.4641 H         1 BZ8         0.0459
     29 H6         32.9440   10.6940   24.9441 H         1 BZ8         0.0545
     30 H7         30.1456   12.7190   20.9610 H         1 BZ8         0.2483
     31 H8         27.8628   11.1811   24.7993 H         1 BZ8         0.2491
     32 H9         34.3739    6.2893   21.0317 H         1 BZ8         0.0615
     33 H10        33.6380    4.7646   21.6319 H         1 BZ8         0.0615
     34 H11        35.5151    4.2942   20.0506 H         1 BZ8         0.0256
     35 H12        35.8908    3.7064   21.7058 H         1 BZ8         0.0256
     36 H13        36.6267    5.2311   21.1056 H         1 BZ8         0.0256
@<TRIPOS>BOND
     1    1    2 2  
     2    1   20 1  
     3    2    3 1  
     4    3    4 2  
     5    3    5 1  
     6    4    6 1  
     7    4   20 1  
     8    5   12 ar 
     9    5   16 ar 
    10    6    7 ar 
    11    6   11 ar 
    12    7    8 ar 
    13    8    9 ar 
    14    9   10 ar 
    15    9   19 1  
    16   10   11 ar 
    17   12   13 ar 
    18   12   18 1  
    19   13   14 ar 
    20   14   15 ar 
    21   14   17 1  
    22   15   16 ar 
    23   15   22 1  
    24   19   21 1  
    25   21   23 1  
    26    7   24 1  
    27    8   25 1  
    28   10   26 1  
    29   11   27 1  
    30   13   28 1  
    31   16   29 1  
    32   17   30 1  
    33   18   31 1  
    34   21   32 1  
    35   21   33 1  
    36   23   34 1  
    37   23   35 1  
    38   23   36 1  
@<TRIPOS>SUBSTRUCTURE
     1 BZ8         1

