### 
### Created by X-TOOL on Mon Sep 10 21:13:07 2018
### 

@<TRIPOS>MOLECULE
2yiq_ligand
   48    51     1     0     0
SMALL
GAST_HUCK


@<TRIPOS>ATOM
      1 CAU       -38.2950   32.1040    5.1890 C.ar      1 YIQ         0.0477
      2 CAV       -39.0910   31.6650    4.1130 C.ar      1 YIQ         0.1174
      3 NAG       -39.2320   32.1070    2.8640 N.pl3     1 YIQ        -0.2367
      4 CAZ       -40.1290   31.3200    2.2450 C.2       1 YIQ         0.0847
      5 CBA       -40.5590   30.3760    3.0870 C.2       1 YIQ         0.0051
      6 CAW       -39.9320   30.5570    4.2590 C.ar      1 YIQ         0.0326
      7 CAX       -39.9990   29.8770    5.4770 C.ar      1 YIQ        -0.0354
      8 CAY       -39.2140   30.3010    6.5580 C.ar      1 YIQ         0.0015
      9 CAT       -38.3660   31.4200    6.4100 C.ar      1 YIQ         0.1404
     10 NAF       -37.6420   31.7930    7.4840 N.am      1 YIQ        -0.1845
     11 CAS       -37.0360   32.9740    7.6730 C.2       1 YIQ         0.2965
     12 OBB       -37.1350   33.9520    6.9390 O.2       1 YIQ        -0.3473
     13 CAQ       -36.3610   33.0670    9.0440 C.2       1 YIQ         0.1507
     14 NAE       -36.1300   31.9970    9.8170 N.pl3     1 YIQ        -0.2643
     15 CAR       -36.0100   34.2080    9.6640 C.2       1 YIQ        -0.0360
     16 CAO       -35.5040   33.8540   10.8590 C.ar      1 YIQ        -0.0136
     17 CAP       -34.9920   34.6130   11.9150 C.ar      1 YIQ        -0.0583
     18 CAN       -35.5850   32.4650   10.9610 C.ar      1 YIQ         0.0705
     19 CAM       -35.1200   31.8240   12.1190 C.ar      1 YIQ        -0.0374
     20 CAL       -34.6000   32.5840   13.1680 C.ar      1 YIQ        -0.0618
     21 CAK       -34.5300   33.9900   13.0880 C.ar      1 YIQ        -0.0133
     22 CAI       -34.0040   34.7420   14.1750 C.2       1 YIQ         0.0394
     23 CAJ       -33.3120   36.1060   13.9680 C.3       1 YIQ        -0.0161
     24 NAD       -34.1700   34.2370   15.4180 N.2       1 YIQ        -0.2271
     25 NAC       -33.7610   34.7660   16.4790 N.pl3     1 YIQ        -0.2563
     26 CAH       -34.0000   34.1770   17.6550 C.cat     1 YIQ         0.1361
     27 NAB       -33.6230   34.7490   18.7880 N.pl3     1 YIQ        -0.3580
     28 NAA       -34.6910   33.0320   17.7090 N.pl3     1 YIQ        -0.3580
     29 H         -37.6338   32.9628    5.0736 H         1 YIQ         0.0816
     30 H         -38.7452   32.9022    2.4505 H         1 YIQ         0.2452
     31 H         -40.4563   31.4348    1.2116 H         1 YIQ         0.1418
     32 H         -41.2886   29.5981    2.8619 H         1 YIQ         0.0685
     33 H         -40.6607   29.0179    5.5868 H         1 YIQ         0.0764
     34 H         -39.2580   29.7693    7.5085 H         1 YIQ         0.0611
     35 H         -37.5450   31.1051    8.2308 H         1 YIQ         0.2813
     36 H         -36.3266   31.0229    9.5872 H         1 YIQ         0.2271
     37 H         -36.1150   35.2206    9.2745 H         1 YIQ         0.0407
     38 H         -34.9504   35.6988   11.8285 H         1 YIQ         0.0586
     39 H         -35.1645   30.7379   12.1992 H         1 YIQ         0.0559
     40 H         -34.2413   32.0810   14.0660 H         1 YIQ         0.0572
     41 H         -33.8753   36.8805   14.4886 H         1 YIQ         0.0413
     42 H         -32.2985   36.0620   14.3667 H         1 YIQ         0.0413
     43 H         -33.2753   36.3354   12.9031 H         1 YIQ         0.0413
     44 H         -33.2459   35.6457   16.4446 H         1 YIQ         0.2088
     45 H         -33.1442   35.6495   18.7701 H         1 YIQ         0.1633
     46 H         -33.8113   34.2892   19.6788 H         1 YIQ         0.1633
     47 H         -35.0380   32.6047   16.8503 H         1 YIQ         0.1633
     48 H         -34.8706   32.5867   18.6089 H         1 YIQ         0.1633
@<TRIPOS>BOND
     1    1    2 ar 
     2    1    9 ar 
     3    2    3 1  
     4    2    6 ar 
     5    3    4 1  
     6    4    5 2  
     7    5    6 1  
     8    6    7 ar 
     9    7    8 ar 
    10    8    9 ar 
    11    9   10 1  
    12   10   11 am 
    13   11   12 2  
    14   11   13 1  
    15   13   14 1  
    16   13   15 2  
    17   14   18 1  
    18   15   16 1  
    19   16   17 ar 
    20   16   18 ar 
    21   17   21 ar 
    22   18   19 ar 
    23   19   20 ar 
    24   20   21 ar 
    25   21   22 1  
    26   22   23 1  
    27   22   24 2  
    28   24   25 1  
    29   25   26 ar 
    30   26   27 ar 
    31   26   28 ar 
    32    1   29 1  
    33    3   30 1  
    34    4   31 1  
    35    5   32 1  
    36    7   33 1  
    37    8   34 1  
    38   10   35 1  
    39   14   36 1  
    40   15   37 1  
    41   17   38 1  
    42   19   39 1  
    43   20   40 1  
    44   23   41 1  
    45   23   42 1  
    46   23   43 1  
    47   25   44 1  
    48   27   45 1  
    49   27   46 1  
    50   28   47 1  
    51   28   48 1  
@<TRIPOS>SUBSTRUCTURE
     1 YIQ         1

