### 
### Created by X-TOOL on Mon Sep 10 21:13:06 2018
### 

@<TRIPOS>MOLECULE
2yir_ligand
   47    50     1     0     0
SMALL
GAST_HUCK


@<TRIPOS>ATOM
      1 NAA        49.1170   16.7440  -11.8510 N.2       1 YIR        -0.1977
      2 NAB        48.2680   15.7750   -9.1980 N.pl3     1 YIR        -0.1979
      3 NAC        47.1390   14.6600   -5.8880 N.am      1 YIR        -0.1227
      4 NAD        47.1910   12.2110   -0.1030 N.2       1 YIR        -0.1334
      5 NAE        47.2880   11.6590    1.0070 N.2       1 YIR        -0.2315
      6 NAF        46.2540   13.4850    1.9420 N.pl3     1 YIR        -0.2546
      7 NAG        46.9070   11.7760    3.2980 N.pl3     1 YIR        -0.2546
      8 CAH        47.5190   18.5610  -11.7640 C.ar      1 YIR         0.0115
      9 CAI        46.5510   19.1430  -10.9470 C.ar      1 YIR        -0.0152
     10 CAJ        46.2120   18.6470   -9.6950 C.ar      1 YIR        -0.0066
     11 CAK        46.8180   17.5080   -9.1680 C.ar      1 YIR         0.0844
     12 CAL        47.8210   16.8400   -9.8730 C.ar      1 YIR         0.1678
     13 CAM        48.1760   17.3420  -11.1270 C.ar      1 YIR         0.1574
     14 CAN        46.5910   16.7740   -7.8700 C.2       1 YIR         0.0739
     15 CAO        47.6240   15.6990   -8.0280 C.2       1 YIR         0.2675
     16 CAP        47.9270   14.6500   -6.9710 C.2       1 YIR         0.4010
     17 CAQ        47.2660   13.8980   -4.7960 C.ar      1 YIR         0.2536
     18 CAR        48.2690   12.9260   -4.6450 C.ar      1 YIR         0.1345
     19 CAS        48.3720   12.1950   -3.4530 C.ar      1 YIR         0.1282
     20 CAT        47.4810   12.4410   -2.4100 C.ar      1 YIR         0.1052
     21 CAU        46.4950   13.4320   -2.5540 C.ar      1 YIR         0.0111
     22 CAV        46.3880   14.1550   -3.7400 C.ar      1 YIR         0.0637
     23 CAW        49.4750   11.1280   -3.3300 C.ar      1 YIR         0.0412
     24 CAX        49.0250    9.9330   -2.4800 C.ar      1 YIR         0.0316
     25 CAY        48.4020   10.3530   -1.1540 C.ar      1 YIR         0.0521
     26 CAZ        47.6420   11.6910   -1.2400 C.ar      1 YIR         0.1741
     27 CBA        46.8260   12.3010    2.0790 C.cat     1 YIR         0.3320
     28 OBB        49.7960   15.5800  -11.4230 O.2       1 YIR        -0.4837
     29 OBC        49.4440   17.2530  -13.1210 O.2       1 YIR        -0.4837
     30 OBD        48.8920   13.7480   -7.2290 O.2       1 YIR        -0.2870
     31 H          48.9843   15.1257   -9.5230 H         1 YIR         0.2590
     32 H          46.3598   15.3182   -5.8969 H         1 YIR         0.3354
     33 H          47.7118   10.7354    1.0948 H         1 YIR         0.1931
     34 H          45.8882   13.9724    2.7600 H         1 YIR         0.3198
     35 H          46.1785   13.9111    1.0183 H         1 YIR         0.3198
     36 H          46.5328   12.2854    4.0986 H         1 YIR         0.3198
     37 H          47.3433   10.8639    3.4325 H         1 YIR         0.3198
     38 H          47.7785   18.9377  -12.7534 H         1 YIR         0.1004
     39 H          46.0343   20.0319  -11.3090 H         1 YIR         0.0682
     40 H          45.4514   19.1625   -9.1086 H         1 YIR         0.1038
     41 H          45.8873   16.9671   -7.0603 H         1 YIR         0.1140
     42 H          48.9703   12.7393   -5.4582 H         1 YIR         0.1851
     43 H          45.8091   13.6364   -1.7319 H         1 YIR         0.1082
     44 H          45.6195   14.9210   -3.8441 H         1 YIR         0.0779
     45 H          50.4587   11.2118   -3.7920 H         1 YIR         0.1377
     46 H          49.1386    8.8945   -2.7911 H         1 YIR         0.0912
     47 H          48.4854    9.7671   -0.2386 H         1 YIR         0.1243
@<TRIPOS>BOND
     1   13    1 1  
     2    1   28 2  
     3    1   29 2  
     4    2   12 1  
     5   15    2 1  
     6    3   16 am 
     7   17    3 1  
     8    4    5 2  
     9   26    4 1  
    10    5   27 ar 
    11   27    6 ar 
    12   27    7 ar 
    13    9    8 ar 
    14   13    8 ar 
    15   10    9 ar 
    16   11   10 ar 
    17   11   12 ar 
    18   14   11 1  
    19   12   13 ar 
    20   15   14 2  
    21   16   15 1  
    22   16   30 2  
    23   18   17 ar 
    24   17   22 ar 
    25   19   18 ar 
    26   20   19 ar 
    27   19   23 ar 
    28   20   21 ar 
    29   20   26 ar 
    30   21   22 ar 
    31   23   24 ar 
    32   24   25 ar 
    33   25   26 ar 
    34    2   31 1  
    35    3   32 1  
    36    5   33 1  
    37    6   34 1  
    38    6   35 1  
    39    7   36 1  
    40    7   37 1  
    41    8   38 1  
    42    9   39 1  
    43   10   40 1  
    44   14   41 1  
    45   18   42 1  
    46   21   43 1  
    47   22   44 1  
    48   23   45 1  
    49   24   46 1  
    50   25   47 1  
@<TRIPOS>SUBSTRUCTURE
     1 YIR         1

