### 
### Created by X-TOOL on Mon Sep 10 21:13:07 2018
### 

@<TRIPOS>MOLECULE
2yis_ligand
   82    87     1     0     0
SMALL
GAST_HUCK


@<TRIPOS>ATOM
      1 C1          2.8970    1.4920   10.6400 C.3       1 YIS        -0.0864
      2 C2          3.4050    2.4620   11.7260 C.3       1 YIS        -0.0473
      3 C3          4.1840    1.6750   12.7640 C.3       1 YIS        -0.0864
      4 C4          4.3610    3.4680   11.0190 C.3       1 YIS        -0.0864
      5 C5          2.2060    3.1680   12.3750 C.2       1 YIS        -0.0054
      6 C6          1.2600    2.7070   13.3310 C.2       1 YIS        -0.0199
      7 C7          0.3640    3.7380   13.5830 C.2       1 YIS         0.2177
      8 N8         -0.7110    3.7980   14.4690 N.am      1 YIS        -0.1849
      9 C9         -1.0660    2.9900   15.4640 C.2       1 YIS         0.2950
     10 O10        -0.2830    2.0660   15.8190 O.2       1 YIS        -0.3888
     11 N11        -2.1990    3.2950   16.1560 N.am      1 YIS        -0.2569
     12 C12        -2.5530    2.4960   17.3140 C.3       1 YIS         0.0641
     13 C13        -3.7870    1.6260   17.3140 C.ar      1 YIS        -0.0069
     14 C14        -4.5910    1.4220   16.2060 C.ar      1 YIS        -0.0639
     15 C15        -5.7190    0.5920   16.2960 C.ar      1 YIS        -0.0753
     16 C16        -6.0550   -0.0260   17.5210 C.ar      1 YIS        -0.0745
     17 C17        -5.2400    0.1610   18.6240 C.ar      1 YIS        -0.0545
     18 C18        -4.0760    0.9950   18.5420 C.ar      1 YIS         0.0312
     19 S19        -2.9680    1.2780   19.9460 S.3       1 YIS        -0.0519
     20 C20        -2.6680   -0.3900   20.5020 C.2       1 YIS         0.0688
     21 C21        -2.6440   -1.4410   19.5470 C.2       1 YIS        -0.0374
     22 C22        -2.4300   -2.7530   19.8980 C.2       1 YIS        -0.0109
     23 C23        -2.1780   -3.0740   21.2610 C.2       1 YIS         0.1507
     24 N24        -1.9040   -4.2080   21.8790 N.2       1 YIS        -0.2800
     25 N25        -1.7110   -3.9890   23.1080 N.2       1 YIS        -0.2661
     26 C26        -1.9040   -2.7130   23.3700 C.2       1 YIS         0.1713
     27 C27        -1.7290   -2.0720   24.6990 C.ar      1 YIS         0.0414
     28 C28        -2.6580   -2.2240   25.7710 C.ar      1 YIS        -0.0557
     29 C29        -2.4000   -1.5810   26.9890 C.ar      1 YIS        -0.0683
     30 C30        -1.2480   -0.8060   27.1640 C.ar      1 YIS        -0.0681
     31 C31        -0.3210   -0.6460   26.1400 C.ar      1 YIS        -0.0489
     32 C32        -0.5350   -1.2760   24.8830 C.ar      1 YIS         0.0288
     33 S33         0.6400   -1.0840   23.5380 S.3       1 YIS        -0.0969
     34 C34         1.3680    0.5570   23.6560 C.3       1 YIS         0.0308
     35 C35         0.4020    1.5860   23.0500 C.3       1 YIS         0.0554
     36 O36        -0.9290    1.5290   23.6360 O.3       1 YIS        -0.3940
     37 N37        -2.1900   -2.0650   22.2040 N.pl3     1 YIS        -0.1763
     38 C38        -2.4600   -0.7160   21.8290 C.2       1 YIS         0.1013
     39 N39         0.7060    4.7750   12.7870 N.pl3     1 YIS        -0.1090
     40 N40         1.8640    4.3990   12.1040 N.2       1 YIS        -0.1686
     41 C41         0.1960    6.1190   12.7400 C.ar      1 YIS         0.1200
     42 C42         0.2300    6.9360   11.5670 C.ar      1 YIS        -0.0276
     43 C43        -0.2540    8.2530   11.5910 C.ar      1 YIS        -0.0321
     44 C44        -0.7340    8.7630   12.8280 C.ar      1 YIS         0.0994
     45 O45        -1.2020   10.0240   12.9220 O.3       1 YIS        -0.3338
     46 C46        -0.7390    7.9740   13.9890 C.ar      1 YIS         0.0682
     47 CL         -1.3210    8.5620   15.4940 Cl        1 YIS        -0.0791
     48 C48        -0.2620    6.6780   13.9490 C.ar      1 YIS        -0.0139
     49 H           2.2388    0.7518   11.0949 H         1 YIS         0.0129
     50 H           2.3480    2.0517    9.8827 H         1 YIS         0.0129
     51 H           3.7464    0.9893   10.1775 H         1 YIS         0.0129
     52 H           4.5471    2.3539   13.5356 H         1 YIS         0.0129
     53 H           3.5326    0.9261   13.2144 H         1 YIS         0.0129
     54 H           5.0297    1.1818   12.2848 H         1 YIS         0.0129
     55 H           3.8151    3.9995   10.2395 H         1 YIS         0.0129
     56 H           4.7402    4.1820   11.7501 H         1 YIS         0.0129
     57 H           5.1944    2.9241   10.5743 H         1 YIS         0.0129
     58 H           1.2412    1.7170   13.7867 H         1 YIS         0.0220
     59 H          -1.3300    4.5968   14.3306 H         1 YIS         0.2335
     60 H          -2.7898    4.0737   15.8643 H         1 YIS         0.1878
     61 H          -2.7505    3.2332   18.0922 H         1 YIS         0.0667
     62 H          -1.7306    1.7866   17.4058 H         1 YIS         0.0667
     63 H          -4.3474    1.9074   15.2609 H         1 YIS         0.0538
     64 H          -6.3393    0.4233   15.4158 H         1 YIS         0.0542
     65 H          -6.9489   -0.6451   17.5970 H         1 YIS         0.0542
     66 H          -5.4855   -0.3309   19.5652 H         1 YIS         0.0548
     67 H          -2.8012   -1.1983   18.4961 H         1 YIS         0.0672
     68 H          -2.4531   -3.5374   19.1415 H         1 YIS         0.0598
     69 H          -3.5546   -2.8309   25.6446 H         1 YIS         0.0602
     70 H          -3.1068   -1.6860   27.8121 H         1 YIS         0.0560
     71 H          -1.0738   -0.3177   28.1228 H         1 YIS         0.0596
     72 H           0.5693   -0.0380   26.3006 H         1 YIS         0.0563
     73 H           2.3117    0.5774   23.1109 H         1 YIS         0.0425
     74 H           1.5509    0.8005   24.7026 H         1 YIS         0.0425
     75 H           0.3067    1.3665   21.9866 H         1 YIS         0.0567
     76 H           0.8086    2.5784   23.2445 H         1 YIS         0.0567
     77 H          -1.4883    2.1903   23.2220 H         1 YIS         0.2094
     78 H          -2.5025    0.0613   22.5920 H         1 YIS         0.1152
     79 H           0.6376    6.5301   10.6411 H         1 YIS         0.0590
     80 H          -0.2616    8.8656   10.6895 H         1 YIS         0.0539
     81 H          -1.4809   10.1941   13.8247 H         1 YIS         0.2480
     82 H          -0.2399    6.0825   14.8617 H         1 YIS         0.0592
@<TRIPOS>BOND
     1    1    2 1  
     2    2    3 1  
     3    2    4 1  
     4    2    5 1  
     5    5    6 1  
     6    5   40 2  
     7    6    7 2  
     8    7    8 1  
     9    7   39 1  
    10    8    9 am 
    11    9   10 2  
    12    9   11 am 
    13   11   12 1  
    14   12   13 1  
    15   13   14 ar 
    16   13   18 ar 
    17   14   15 ar 
    18   15   16 ar 
    19   16   17 ar 
    20   17   18 ar 
    21   18   19 1  
    22   19   20 1  
    23   20   21 1  
    24   20   38 2  
    25   21   22 2  
    26   22   23 1  
    27   23   24 2  
    28   23   37 1  
    29   24   25 1  
    30   25   26 2  
    31   26   27 1  
    32   26   37 1  
    33   27   28 ar 
    34   27   32 ar 
    35   28   29 ar 
    36   29   30 ar 
    37   30   31 ar 
    38   31   32 ar 
    39   32   33 1  
    40   33   34 1  
    41   34   35 1  
    42   35   36 1  
    43   37   38 1  
    44   39   40 1  
    45   39   41 1  
    46   41   42 ar 
    47   41   48 ar 
    48   42   43 ar 
    49   43   44 ar 
    50   44   45 1  
    51   44   46 ar 
    52   46   47 1  
    53   46   48 ar 
    54    1   49 1  
    55    1   50 1  
    56    1   51 1  
    57    3   52 1  
    58    3   53 1  
    59    3   54 1  
    60    4   55 1  
    61    4   56 1  
    62    4   57 1  
    63    6   58 1  
    64    8   59 1  
    65   11   60 1  
    66   12   61 1  
    67   12   62 1  
    68   14   63 1  
    69   15   64 1  
    70   16   65 1  
    71   17   66 1  
    72   21   67 1  
    73   22   68 1  
    74   28   69 1  
    75   29   70 1  
    76   30   71 1  
    77   31   72 1  
    78   34   73 1  
    79   34   74 1  
    80   35   75 1  
    81   35   76 1  
    82   36   77 1  
    83   38   78 1  
    84   42   79 1  
    85   43   80 1  
    86   45   81 1  
    87   48   82 1  
@<TRIPOS>SUBSTRUCTURE
     1 YIS         1

