### 
### Created by X-TOOL on Mon Sep 10 21:13:06 2018
### 

@<TRIPOS>MOLECULE
2yit_ligand
   54    56     1     0     0
SMALL
GAST_HUCK


@<TRIPOS>ATOM
      1 NAA        46.9850  -16.9060   -7.7150 N.pl3     1 YIT        -0.2702
      2 CAI        47.0020  -17.6790   -6.6340 C.ar      1 YIT         0.0591
      3 CAH        46.4080  -18.9010   -6.3730 C.ar      1 YIT        -0.0452
      4 CAG        46.5960  -19.5170   -5.1390 C.ar      1 YIT        -0.0425
      5 CAL        47.3840  -18.9320   -4.1560 C.ar      1 YIT         0.0755
      6 OBB        47.5120  -19.6420   -2.9810 O.3       1 YIT        -0.3291
      7 CAO        48.1120  -18.9770   -1.8380 C.3       1 YIT         0.0570
      8 CAK        48.0010  -17.6900   -4.4150 C.ar      1 YIT        -0.0449
      9 CAJ        47.8090  -17.0640   -5.6730 C.ar      1 YIT        -0.0269
     10 CAN        48.2450  -15.9220   -6.2270 C.2       1 YIT        -0.0413
     11 CAM        47.7330  -15.8310   -7.4650 C.2       1 YIT         0.1465
     12 CAP        48.0110  -14.6880   -8.4710 C.2       1 YIT         0.2923
     13 OBC        48.8490  -13.8340   -8.2030 O.2       1 YIT        -0.3496
     14 NAB        47.3860  -14.7720   -9.6620 N.am      1 YIT        -0.1856
     15 CAQ        47.5380  -13.9470  -10.7130 C.ar      1 YIT         0.1410
     16 CAV        46.6590  -14.1350  -11.7810 C.ar      1 YIT         0.0138
     17 CAU        46.7430  -13.3930  -12.9470 C.ar      1 YIT        -0.0154
     18 CAR        48.5240  -12.9780  -10.8290 C.ar      1 YIT         0.0138
     19 CAS        48.6130  -12.2030  -12.0000 C.ar      1 YIT        -0.0154
     20 CAT        47.7160  -12.3960  -13.0690 C.ar      1 YIT         0.0534
     21 CAW        47.7950  -11.6060  -14.2310 C.2       1 YIT         0.1322
     22 CAX        48.3530  -10.1870  -14.2140 C.3       1 YIT         0.0206
     23 CAZ        49.6710  -10.0900  -15.0070 C.3       1 YIT        -0.0395
     24 CBA        50.2010   -8.6410  -14.9860 C.3       1 YIT        -0.0627
     25 NAC        47.3480  -12.1120  -15.3940 N.2       1 YIT        -0.1106
     26 NAD        47.3720  -11.5010  -16.4900 N.pl3     1 YIT        -0.1953
     27 CAY        46.9450  -12.1090  -17.6190 C.cat     1 YIT         0.1648
     28 NAF        46.9640  -11.5300  -18.8110 N.pl3     1 YIT        -0.3516
     29 NAE        46.5130  -13.3380  -17.5860 N.pl3     1 YIT        -0.3516
     30 H          46.4870  -17.1010   -8.5836 H         1 YIT         0.2241
     31 H          45.7927  -19.3814   -7.1338 H         1 YIT         0.0535
     32 H          46.1163  -20.4755   -4.9405 H         1 YIT         0.0504
     33 H          49.1257  -18.6663   -2.0909 H         1 YIT         0.0573
     34 H          47.5174  -18.1022   -1.5749 H         1 YIT         0.0573
     35 H          48.1417  -19.6652   -0.9932 H         1 YIT         0.0573
     36 H          48.6205  -17.2152   -3.6541 H         1 YIT         0.0451
     37 H          48.9023  -15.1930   -5.7530 H         1 YIT         0.0390
     38 H          46.7282  -15.5428   -9.7786 H         1 YIT         0.2768
     39 H          45.8796  -14.8920  -11.6940 H         1 YIT         0.0742
     40 H          46.0523  -13.5856  -13.7679 H         1 YIT         0.0791
     41 H          49.2292  -12.8171  -10.0136 H         1 YIT         0.0742
     42 H          49.3883  -11.4412  -12.0813 H         1 YIT         0.0791
     43 H          48.5504   -9.9056  -13.1796 H         1 YIT         0.0519
     44 H          47.6223   -9.5227  -14.6754 H         1 YIT         0.0519
     45 H          49.4886  -10.3880  -16.0395 H         1 YIT         0.0294
     46 H          50.4111  -10.7470  -14.5502 H         1 YIT         0.0294
     47 H          49.4626   -7.9788  -15.4381 H         1 YIT         0.0232
     48 H          50.3812   -8.3363  -13.9551 H         1 YIT         0.0232
     49 H          51.1322   -8.5879  -15.5500 H         1 YIT         0.0232
     50 H          47.7153  -10.5413  -16.5289 H         1 YIT         0.2462
     51 H          47.3139  -10.5770  -18.9095 H         1 YIT         0.1655
     52 H          46.6287  -12.0374  -19.6299 H         1 YIT         0.1655
     53 H          46.4953  -13.8488  -16.7033 H         1 YIT         0.1655
     54 H          46.1926  -13.7891  -18.4429 H         1 YIT         0.1655
@<TRIPOS>BOND
     1    1    2 1  
     2    1   11 1  
     3    2    3 ar 
     4    2    9 ar 
     5    3    4 ar 
     6    4    5 ar 
     7    5    6 1  
     8    5    8 ar 
     9    6    7 1  
    10    8    9 ar 
    11    9   10 1  
    12   10   11 2  
    13   11   12 1  
    14   12   13 2  
    15   12   14 am 
    16   14   15 1  
    17   15   16 ar 
    18   15   18 ar 
    19   16   17 ar 
    20   17   20 ar 
    21   18   19 ar 
    22   19   20 ar 
    23   20   21 1  
    24   21   22 1  
    25   21   25 2  
    26   22   23 1  
    27   23   24 1  
    28   25   26 1  
    29   26   27 ar 
    30   27   28 ar 
    31   27   29 ar 
    32    1   30 1  
    33    3   31 1  
    34    4   32 1  
    35    7   33 1  
    36    7   34 1  
    37    7   35 1  
    38    8   36 1  
    39   10   37 1  
    40   14   38 1  
    41   16   39 1  
    42   17   40 1  
    43   18   41 1  
    44   19   42 1  
    45   22   43 1  
    46   22   44 1  
    47   23   45 1  
    48   23   46 1  
    49   24   47 1  
    50   24   48 1  
    51   24   49 1  
    52   26   50 1  
    53   28   51 1  
    54   28   52 1  
    55   29   53 1  
    56   29   54 1  
@<TRIPOS>SUBSTRUCTURE
     1 YIT         1

