### 
### Created by X-TOOL on Mon Sep 10 21:13:08 2018
### 

@<TRIPOS>MOLECULE
2yiu_ligand
   79    80     1     0     0
SMALL
GAST_HUCK


@<TRIPOS>ATOM
      1 C2          3.5990  -39.4940  -40.1990 C.2       1 SMA         0.1149
      2 C3          3.1510  -38.8960  -41.3970 C.2       1 SMA         0.0096
      3 C3M         2.5660  -39.7300  -42.5270 C.3       1 SMA        -0.0457
      4 C4          3.2310  -37.5110  -41.5880 C.2       1 SMA         0.0925
      5 C4A         3.8100  -36.7450  -40.5900 C.ar      1 SMA         0.0681
      6 C5          4.0470  -35.3670  -40.7580 C.ar      1 SMA         0.0850
      7 C5M         4.3530  -33.3520  -42.0850 C.3       1 SMA         0.0583
      8 C6          4.6470  -34.6990  -39.6860 C.ar      1 SMA        -0.0162
      9 C7          5.0220  -35.3360  -38.5150 C.ar      1 SMA         0.1092
     10 C7M         5.7730  -33.1980  -37.5220 C.3       1 SMA         0.0573
     11 C8          4.7830  -36.6870  -38.3730 C.ar      1 SMA         0.1456
     12 C8A         4.1980  -37.3790  -39.4150 C.ar      1 SMA         0.1575
     13 C9          3.6570  -41.0010  -39.8190 C.3       1 SMA         0.0191
     14 C10         2.3540  -41.6460  -39.3720 C.3       1 SMA        -0.0329
     15 C11         2.5890  -42.9780  -38.5740 C.3       1 SMA        -0.0147
     16 C12         1.2580  -43.6810  -38.2520 C.3       1 SMA         0.0683
     17 C13         0.1920  -42.9900  -37.3530 C.3       1 SMA         0.0204
     18 C14        -0.9770  -43.9330  -37.0680 C.3       1 SMA         0.0937
     19 C15        -1.9830  -43.0930  -36.6000 C.2       1 SMA        -0.0493
     20 C16        -2.3660  -43.0760  -35.2590 C.2       1 SMA        -0.0775
     21 C17        -3.3440  -42.1800  -34.8320 C.2       1 SMA        -0.0867
     22 C18        -3.7530  -42.1510  -33.5010 C.2       1 SMA        -0.0816
     23 C19        -4.7300  -41.2580  -33.0480 C.2       1 SMA        -0.0682
     24 C20        -5.0970  -41.2760  -31.7290 C.2       1 SMA        -0.0889
     25 C21        -6.1780  -40.2890  -31.3180 C.3       1 SMA        -0.0438
     26 C22         3.4530  -44.0220  -39.2730 C.3       1 SMA        -0.0599
     27 C23         0.4130  -45.3460  -39.6080 C.3       1 SMA         0.0368
     28 C24         0.7610  -42.5050  -36.0350 C.3       1 SMA        -0.0553
     29 C25        -1.4910  -46.0120  -36.1170 C.3       1 SMA         0.0402
     30 C26        -5.4570  -40.2470  -33.9380 C.3       1 SMA        -0.0420
     31 O1          4.0790  -38.6940  -39.2220 O.3       1 SMA        -0.2495
     32 O4          2.8420  -36.9680  -42.6240 O.2       1 SMA        -0.4325
     33 O5          3.6870  -34.6520  -41.9230 O.3       1 SMA        -0.3278
     34 O7          5.6200  -34.6760  -37.4710 O.3       1 SMA        -0.3275
     35 O8          5.1750  -37.3500  -37.2440 O.3       1 SMA        -0.3472
     36 O12         0.7430  -43.9440  -39.5930 O.3       1 SMA        -0.3789
     37 O14        -0.4990  -44.9720  -36.1340 O.3       1 SMA        -0.3648
     38 H           3.3102  -40.4494  -42.8688 H         1 SMA         0.0290
     39 H           1.6846  -40.2605  -42.1666 H         1 SMA         0.0290
     40 H           2.2855  -39.0755  -43.3523 H         1 SMA         0.0290
     41 H           4.1087  -32.7119  -41.2372 H         1 SMA         0.0577
     42 H           5.4318  -33.5010  -42.1304 H         1 SMA         0.0577
     43 H           4.0107  -32.8822  -43.0071 H         1 SMA         0.0577
     44 H           4.8278  -33.6279  -39.7762 H         1 SMA         0.0375
     45 H           6.3753  -32.9261  -38.3888 H         1 SMA         0.0574
     46 H           4.7896  -32.7347  -37.6015 H         1 SMA         0.0574
     47 H           6.2659  -32.8535  -36.6129 H         1 SMA         0.0574
     48 H           4.3326  -41.0689  -38.9663 H         1 SMA         0.0496
     49 H           3.9558  -41.5271  -40.7257 H         1 SMA         0.0496
     50 H           1.7725  -41.8843  -40.2626 H         1 SMA         0.0297
     51 H           1.8387  -40.9454  -38.7150 H         1 SMA         0.0297
     52 H           3.1152  -42.6334  -37.6838 H         1 SMA         0.0325
     53 H           1.4623  -44.5322  -37.6026 H         1 SMA         0.0604
     54 H          -0.1546  -42.1220  -37.9138 H         1 SMA         0.0377
     55 H          -1.3729  -44.4927  -37.9154 H         1 SMA         0.0798
     56 H          -2.4866  -42.4287  -37.3023 H         1 SMA         0.0713
     57 H          -1.9025  -43.7603  -34.5484 H         1 SMA         0.0433
     58 H          -3.7945  -41.4933  -35.5486 H         1 SMA         0.0499
     59 H          -3.2991  -42.8436  -32.7922 H         1 SMA         0.0481
     60 H          -4.6398  -41.9596  -31.0137 H         1 SMA         0.0512
     61 H          -5.8377  -39.2737  -31.5217 H         1 SMA         0.0383
     62 H          -7.0865  -40.4899  -31.8858 H         1 SMA         0.0383
     63 H          -6.3821  -40.3983  -30.2529 H         1 SMA         0.0383
     64 H           2.9850  -44.3072  -40.2152 H         1 SMA         0.0233
     65 H           4.4401  -43.6031  -39.4683 H         1 SMA         0.0233
     66 H           3.5493  -44.8993  -38.6334 H         1 SMA         0.0233
     67 H           1.3094  -45.9312  -39.4025 H         1 SMA         0.0524
     68 H          -0.3381  -45.5493  -38.8447 H         1 SMA         0.0524
     69 H           0.0189  -45.6147  -40.5881 H         1 SMA         0.0524
     70 H           1.1656  -43.3524  -35.4816 H         1 SMA         0.0236
     71 H           1.5544  -41.7827  -36.2271 H         1 SMA         0.0236
     72 H          -0.0291  -42.0322  -35.4516 H         1 SMA         0.0236
     73 H          -2.4422  -45.5996  -35.7806 H         1 SMA         0.0527
     74 H          -1.6053  -46.4198  -37.1214 H         1 SMA         0.0527
     75 H          -1.1752  -46.8025  -35.4362 H         1 SMA         0.0527
     76 H          -6.5265  -40.4570  -33.9256 H         1 SMA         0.0347
     77 H          -5.2788  -39.2396  -33.5618 H         1 SMA         0.0347
     78 H          -5.0815  -40.3270  -34.9582 H         1 SMA         0.0347
     79 H           5.5593  -36.7253  -36.6246 H         1 SMA         0.2369
@<TRIPOS>BOND
     1    1    2 2  
     2    1   13 1  
     3    1   31 1  
     4    2    3 1  
     5    2    4 1  
     6    4    5 1  
     7    4   32 2  
     8    5    6 ar 
     9    5   12 ar 
    10    6    8 ar 
    11    6   33 1  
    12   33    7 1  
    13    8    9 ar 
    14    9   11 ar 
    15    9   34 1  
    16   34   10 1  
    17   11   12 ar 
    18   11   35 1  
    19   12   31 1  
    20   13   14 1  
    21   14   15 1  
    22   15   16 1  
    23   15   26 1  
    24   16   17 1  
    25   16   36 1  
    26   17   18 1  
    27   17   28 1  
    28   18   19 1  
    29   18   37 1  
    30   19   20 2  
    31   20   21 1  
    32   21   22 2  
    33   22   23 1  
    34   23   24 2  
    35   23   30 1  
    36   24   25 1  
    37   36   27 1  
    38   37   29 1  
    39    3   38 1  
    40    3   39 1  
    41    3   40 1  
    42    7   41 1  
    43    7   42 1  
    44    7   43 1  
    45    8   44 1  
    46   10   45 1  
    47   10   46 1  
    48   10   47 1  
    49   13   48 1  
    50   13   49 1  
    51   14   50 1  
    52   14   51 1  
    53   15   52 1  
    54   16   53 1  
    55   17   54 1  
    56   18   55 1  
    57   19   56 1  
    58   20   57 1  
    59   21   58 1  
    60   22   59 1  
    61   24   60 1  
    62   25   61 1  
    63   25   62 1  
    64   25   63 1  
    65   26   64 1  
    66   26   65 1  
    67   26   66 1  
    68   27   67 1  
    69   27   68 1  
    70   27   69 1  
    71   28   70 1  
    72   28   71 1  
    73   28   72 1  
    74   29   73 1  
    75   29   74 1  
    76   29   75 1  
    77   30   76 1  
    78   30   77 1  
    79   30   78 1  
    80   35   79 1  
@<TRIPOS>SUBSTRUCTURE
     1 SMA         1

