### 
### Created by X-TOOL on Mon Sep 10 21:13:08 2018
### 

@<TRIPOS>MOLECULE
2yiv_ligand
   17    16     1     0     0
SMALL
GAST_HUCK


@<TRIPOS>ATOM
      1 C          56.3270    5.3160   35.4000 C.2       1 NBN        -0.0116
      2 N          57.2480    6.2230   35.2670 N.2       1 NBN        -0.3253
      3 C1         58.6160    6.6310   35.5190 C.3       1 NBN         0.0149
      4 C2         59.8390    6.0250   34.8440 C.3       1 NBN        -0.0406
      5 C3         59.7980    5.6050   33.3820 C.3       1 NBN        -0.0549
      6 C4         61.1440    5.0040   32.9980 C.3       1 NBN        -0.0652
      7 H1         55.3316    5.4869   34.9927 H         1 NBN         0.1109
      8 H2         56.5506    4.3849   35.9187 H         1 NBN         0.1109
      9 H3         58.7728    6.4863   36.5981 H         1 NBN         0.0421
     10 H4         58.6514    7.7050   35.2840 H         1 NBN         0.0421
     11 H5         60.1015    5.1258   35.4207 H         1 NBN         0.0276
     12 H6         60.6461    6.7670   34.9340 H         1 NBN         0.0276
     13 H7         59.5937    6.4833   32.7520 H         1 NBN         0.0263
     14 H8         59.0053    4.8565   33.2359 H         1 NBN         0.0263
     15 H9         61.1210    4.6981   31.9416 H         1 NBN         0.0230
     16 H10        61.3473    4.1265   33.6294 H         1 NBN         0.0230
     17 H11        61.9357    5.7533   33.1456 H         1 NBN         0.0230
@<TRIPOS>BOND
     1    1    2 2  
     2    2    3 1  
     3    3    4 1  
     4    4    5 1  
     5    5    6 1  
     6    1    7 1  
     7    1    8 1  
     8    3    9 1  
     9    3   10 1  
    10    4   11 1  
    11    4   12 1  
    12    5   13 1  
    13    5   14 1  
    14    6   15 1  
    15    6   16 1  
    16    6   17 1  
@<TRIPOS>SUBSTRUCTURE
     1 NBN         1

