### 
### Created by X-TOOL on Mon Sep 10 21:13:07 2018
### 

@<TRIPOS>MOLECULE
2yiw_ligand
   72    76     1     0     0
SMALL
GAST_HUCK


@<TRIPOS>ATOM
      1 C1         -2.6770   -1.1470   25.0570 C.3       1 YIW        -0.0475
      2 C2         -1.3830   -1.7130   24.5010 C.3       1 YIW         0.0328
      3 C3         -0.9370   -2.6450   25.6400 C.3       1 YIW        -0.0475
      4 C4         -1.6540   -2.4960   23.2180 C.2       1 YIW         0.1518
      5 N5         -1.5330   -3.8040   23.0350 N.2       1 YIW        -0.2800
      6 N6         -1.8140   -4.1260   21.8200 N.2       1 YIW        -0.2972
      7 C7         -2.1250   -3.0540   21.1500 C.2       1 YIW         0.1433
      8 C8         -2.4840   -2.8420   19.8000 C.2       1 YIW        -0.0152
      9 C9         -2.7370   -1.5210   19.3970 C.2       1 YIW        -0.0408
     10 C10        -2.6330   -0.4500   20.2920 C.2       1 YIW         0.0652
     11 S11        -2.9340    1.2000   19.8170 S.3       1 YIW        -0.0536
     12 C12        -4.0860    0.9890   18.4730 C.ar      1 YIW         0.0309
     13 C13        -5.3060    0.2330   18.5950 C.ar      1 YIW        -0.0545
     14 C14        -6.1450    0.0570   17.5230 C.ar      1 YIW        -0.0745
     15 C15        -5.8020    0.6300   16.3000 C.ar      1 YIW        -0.0753
     16 C16        -4.6510    1.4270   16.1550 C.ar      1 YIW        -0.0639
     17 C17        -3.8050    1.5850   17.2370 C.ar      1 YIW        -0.0069
     18 C18        -2.5320    2.3300   17.0920 C.3       1 YIW         0.0641
     19 N19        -2.3170    3.1240   15.8490 N.am      1 YIW        -0.2568
     20 C20        -1.2080    2.8960   15.1390 C.2       1 YIW         0.2952
     21 O21        -0.2930    2.0510   15.4610 O.2       1 YIW        -0.3887
     22 N22        -0.9340    3.7040   14.1640 N.am      1 YIW        -0.1845
     23 C23         0.1940    3.6330   13.3190 C.2       1 YIW         0.2193
     24 C24         1.0930    2.6260   13.0600 C.2       1 YIW        -0.0188
     25 C25         2.0640    3.1380   12.1530 C.2       1 YIW        -0.0024
     26 N26         1.7550    4.3570   11.9740 N.2       1 YIW        -0.1653
     27 N27         0.5570    4.6740   12.5920 N.pl3     1 YIW        -0.1032
     28 C28         0.0260    5.9980   12.6040 C.ar      1 YIW         0.1285
     29 C29        -0.0110    6.7690   11.4050 C.ar      1 YIW        -0.0207
     30 C30        -0.5200    8.0700   11.4390 C.ar      1 YIW        -0.0631
     31 C31        -0.9460    8.6100   12.6350 C.ar      1 YIW        -0.0662
     32 C32        -0.9140    7.8790   13.8190 C.ar      1 YIW        -0.0631
     33 C33        -0.3960    6.5720   13.7820 C.ar      1 YIW        -0.0207
     34 C34         3.2540    2.4380   11.5470 C.3       1 YIW        -0.0451
     35 C35         2.7650    1.4970   10.4460 C.3       1 YIW        -0.0851
     36 C36         4.2970    3.4070   10.9790 C.3       1 YIW        -0.0851
     37 C37         3.9230    1.5920   12.5560 C.3       1 YIW        -0.0851
     38 C38        -2.2920   -0.6770   21.5810 C.2       1 YIW         0.0990
     39 N39        -2.0250   -1.9860   22.0160 N.pl3     1 YIW        -0.1765
     40 H1         -2.4655   -0.5866   25.9796 H         1 YIW         0.0258
     41 H2         -3.3718   -1.9703   25.2792 H         1 YIW         0.0258
     42 H3         -3.1314   -0.4738   24.3152 H         1 YIW         0.0258
     43 H4         -0.6409   -0.9241   24.3087 H         1 YIW         0.0517
     44 H5          0.0101   -3.1325   25.3653 H         1 YIW         0.0258
     45 H6         -1.7078   -3.4111   25.8101 H         1 YIW         0.0258
     46 H7         -0.7941   -2.0582   26.5593 H         1 YIW         0.0258
     47 H8         -2.5615   -3.6716   19.0988 H         1 YIW         0.0583
     48 H9         -3.0208   -1.3252   18.3640 H         1 YIW         0.0653
     49 H10        -5.5665   -0.2053   19.5516 H         1 YIW         0.0548
     50 H11        -7.0584   -0.5176   17.6260 H         1 YIW         0.0542
     51 H12        -6.4374    0.4576   15.4389 H         1 YIW         0.0542
     52 H13        -4.4312    1.9095   15.2095 H         1 YIW         0.0538
     53 H14        -1.7155    1.5956   17.1548 H         1 YIW         0.0667
     54 H15        -2.4640    3.0273   17.9400 H         1 YIW         0.0667
     55 H16        -2.9841    3.8083   15.5545 H         1 YIW         0.1878
     56 H17        -1.5818    4.4467   13.9945 H         1 YIW         0.2338
     57 H18         1.0673    1.6189   13.4736 H         1 YIW         0.0221
     58 H19         0.3529    6.3491   10.4742 H         1 YIW         0.0608
     59 H20        -0.5800    8.6537   10.5276 H         1 YIW         0.0607
     60 H21        -1.3149    9.6292   12.6530 H         1 YIW         0.0578
     61 H22        -1.2790    8.3062   14.7460 H         1 YIW         0.0607
     62 H23        -0.3274    6.0034   14.7024 H         1 YIW         0.0608
     63 H24         3.6257    0.9803    9.9963 H         1 YIW         0.0133
     64 H25         2.2413    2.0782    9.6727 H         1 YIW         0.0133
     65 H26         2.0762    0.7553   10.8767 H         1 YIW         0.0133
     66 H27         4.6442    4.0806   11.7763 H         1 YIW         0.0133
     67 H28         3.8450    3.9992   10.1697 H         1 YIW         0.0133
     68 H29         5.1504    2.8367   10.5835 H         1 YIW         0.0133
     69 H30         3.1960    0.8847   12.9817 H         1 YIW         0.0133
     70 H31         4.3283    2.2277   13.3570 H         1 YIW         0.0133
     71 H32         4.7429    1.0334   12.0808 H         1 YIW         0.0133
     72 H33        -2.2244    0.1543   22.2812 H         1 YIW         0.1127
@<TRIPOS>BOND
     1    1    2 1  
     2    2    3 1  
     3    2    4 1  
     4    4    5 2  
     5    4   39 1  
     6    5    6 1  
     7    6    7 2  
     8    7    8 1  
     9    7   39 1  
    10    8    9 2  
    11    9   10 1  
    12   10   11 1  
    13   10   38 2  
    14   11   12 1  
    15   12   13 ar 
    16   12   17 ar 
    17   13   14 ar 
    18   14   15 ar 
    19   15   16 ar 
    20   16   17 ar 
    21   17   18 1  
    22   18   19 1  
    23   19   20 am 
    24   20   21 2  
    25   20   22 am 
    26   22   23 1  
    27   23   24 2  
    28   23   27 1  
    29   24   25 1  
    30   25   26 2  
    31   25   34 1  
    32   26   27 1  
    33   27   28 1  
    34   28   29 ar 
    35   28   33 ar 
    36   29   30 ar 
    37   30   31 ar 
    38   31   32 ar 
    39   32   33 ar 
    40   34   35 1  
    41   34   36 1  
    42   34   37 1  
    43   38   39 1  
    44    1   40 1  
    45    1   41 1  
    46    1   42 1  
    47    2   43 1  
    48    3   44 1  
    49    3   45 1  
    50    3   46 1  
    51    8   47 1  
    52    9   48 1  
    53   13   49 1  
    54   14   50 1  
    55   15   51 1  
    56   16   52 1  
    57   18   53 1  
    58   18   54 1  
    59   19   55 1  
    60   22   56 1  
    61   24   57 1  
    62   29   58 1  
    63   30   59 1  
    64   31   60 1  
    65   32   61 1  
    66   33   62 1  
    67   35   63 1  
    68   35   64 1  
    69   35   65 1  
    70   36   66 1  
    71   36   67 1  
    72   36   68 1  
    73   37   69 1  
    74   37   70 1  
    75   37   71 1  
    76   38   72 1  
@<TRIPOS>SUBSTRUCTURE
     1 YIW         1

