### 
### Created by X-TOOL on Mon Sep 10 21:13:06 2018
### 

@<TRIPOS>MOLECULE
2yix_ligand
   49    51     1     0     0
SMALL
GAST_HUCK


@<TRIPOS>ATOM
      1 C1          8.5280   17.2300   36.3980 C.3       1 YIX        -0.0451
      2 C2          7.1460   16.5010   36.3100 C.3       1 YIX         0.0284
      3 N3          6.9180   16.2210   34.8940 N.am      1 YIX        -0.2733
      4 C4          5.9700   15.3700   34.3970 C.2       1 YIX         0.2591
      5 O5          5.2290   14.7830   35.1330 O.2       1 YIX        -0.4007
      6 N6          5.8650   15.2070   33.0480 N.am      1 YIX        -0.2629
      7 C7          4.8920   14.3470   32.3640 C.3       1 YIX         0.0634
      8 C8          5.4110   13.4900   31.1850 C.ar      1 YIX        -0.0070
      9 C9          6.8000   13.1650   31.0270 C.ar      1 YIX        -0.0639
     10 C10         7.2070   12.3470   29.9600 C.ar      1 YIX        -0.0753
     11 C11         6.2480   11.8430   29.0460 C.ar      1 YIX        -0.0745
     12 C12         4.8890   12.1440   29.1880 C.ar      1 YIX        -0.0545
     13 C13         4.4470   12.9680   30.2620 C.ar      1 YIX         0.0309
     14 S14         2.6740   13.3220   30.4940 S.3       1 YIX        -0.0536
     15 C15         2.1030   11.7270   30.9540 C.2       1 YIX         0.0652
     16 C16         2.9500   10.7500   31.6200 C.2       1 YIX        -0.0408
     17 C17         2.4100    9.4980   31.9660 C.2       1 YIX        -0.0152
     18 C18         1.0220    9.1850   31.6420 C.2       1 YIX         0.1433
     19 N19         0.2130    8.1030   31.8050 N.2       1 YIX        -0.2972
     20 N20        -0.9520    8.3870   31.3210 N.2       1 YIX        -0.2800
     21 C21        -0.9800    9.6140   30.8150 C.2       1 YIX         0.1518
     22 C22        -2.1310   10.3600   30.1590 C.3       1 YIX         0.0328
     23 C23        -2.3640    9.9260   28.7240 C.3       1 YIX        -0.0475
     24 C24        -3.4370   10.1460   30.8860 C.3       1 YIX        -0.0475
     25 N25         0.2480   10.1580   30.9960 N.pl3     1 YIX        -0.1765
     26 C26         0.7710   11.4140   30.6720 C.2       1 YIX         0.0990
     27 H1          8.7517   17.4661   37.4488 H         1 YIX         0.0249
     28 H2          8.4894   18.1609   35.8132 H         1 YIX         0.0249
     29 H3          9.3143   16.5754   35.9939 H         1 YIX         0.0249
     30 H4          6.3484   17.1484   36.7032 H         1 YIX         0.0514
     31 H5          7.1732   15.5630   36.8839 H         1 YIX         0.0514
     32 H6          7.5039   16.6907   34.2336 H         1 YIX         0.1845
     33 H7          6.5061   15.7173   32.4748 H         1 YIX         0.1870
     34 H8          4.0932   14.9955   31.9750 H         1 YIX         0.0666
     35 H9          4.4737   13.6594   33.1137 H         1 YIX         0.0666
     36 H10         7.5320   13.5492   31.7282 H         1 YIX         0.0538
     37 H11         8.2554   12.1010   29.8355 H         1 YIX         0.0542
     38 H12         6.5725   11.2147   28.2244 H         1 YIX         0.0542
     39 H13         4.1708   11.7490   28.4787 H         1 YIX         0.0548
     40 H14         3.9887   10.9847   31.8478 H         1 YIX         0.0653
     41 H15         3.0286    8.7613   32.4764 H         1 YIX         0.0583
     42 H16        -1.8863   11.4324   30.1715 H         1 YIX         0.0517
     43 H17        -3.2044   10.4956   28.3005 H         1 YIX         0.0258
     44 H18        -2.5998    8.8519   28.6994 H         1 YIX         0.0258
     45 H19        -1.4569   10.1159   28.1316 H         1 YIX         0.0258
     46 H20        -3.3244   10.4465   31.9382 H         1 YIX         0.0258
     47 H21        -3.7146    9.0828   30.8360 H         1 YIX         0.0258
     48 H22        -4.2234   10.7529   30.4135 H         1 YIX         0.0258
     49 H23         0.1329   12.1562   30.1946 H         1 YIX         0.1127
@<TRIPOS>BOND
     1    1    2 1  
     2    2    3 1  
     3    3    4 am 
     4    4    5 2  
     5    4    6 am 
     6    6    7 1  
     7    7    8 1  
     8    8    9 ar 
     9    8   13 ar 
    10    9   10 ar 
    11   10   11 ar 
    12   11   12 ar 
    13   12   13 ar 
    14   13   14 1  
    15   14   15 1  
    16   15   16 1  
    17   15   26 2  
    18   16   17 2  
    19   17   18 1  
    20   18   19 2  
    21   18   25 1  
    22   19   20 1  
    23   20   21 2  
    24   21   22 1  
    25   21   25 1  
    26   22   23 1  
    27   22   24 1  
    28   25   26 1  
    29    1   27 1  
    30    1   28 1  
    31    1   29 1  
    32    2   30 1  
    33    2   31 1  
    34    3   32 1  
    35    6   33 1  
    36    7   34 1  
    37    7   35 1  
    38    9   36 1  
    39   10   37 1  
    40   11   38 1  
    41   12   39 1  
    42   16   40 1  
    43   17   41 1  
    44   22   42 1  
    45   23   43 1  
    46   23   44 1  
    47   23   45 1  
    48   24   46 1  
    49   24   47 1  
    50   24   48 1  
    51   26   49 1  
@<TRIPOS>SUBSTRUCTURE
     1 YIX         1

