### 
### Created by X-TOOL on Mon Sep 10 21:13:07 2018
### 

@<TRIPOS>MOLECULE
2yjq_ligand
   64    66     1     0     0
SMALL
GAST_HUCK


@<TRIPOS>ATOM
      1 C6         12.3840  -24.1220   12.3620 C.3       1 OXZ         0.0782
      2 C5         12.8440  -25.5200   11.9400 C.3       1 OXZ         0.1538
      3 C4         14.3950  -25.7150   11.9840 C.3       1 OXZ         0.1259
      4 C3         14.8370  -27.0570   11.4010 C.3       1 OXZ         0.1245
      5 C2         14.2970  -27.2940    9.9620 C.3       1 OXZ         0.0256
      6 O6         13.0750  -23.1640   11.5160 O.3       1 OXZ        -0.3922
      7 O5         12.4930  -25.6950   10.5610 O.3       1 OXZ        -0.3215
      8 O4         14.8410  -25.6310   13.3380 O.3       1 OXZ        -0.3398
      9 O3         16.2760  -27.2530   11.4410 O.3       1 OXZ        -0.3838
     10 N1         12.8670  -26.9110    9.9740 N.4       1 OXZ         0.3939
     11 C2         16.0740  -24.2390   14.9090 C.3       1 BGC         0.1341
     12 C3         17.4230  -23.6090   15.2250 C.3       1 BGC         0.1144
     13 C4         18.4820  -24.7140   15.2030 C.3       1 BGC         0.1184
     14 C5         18.4210  -25.6250   13.9800 C.3       1 BGC         0.1134
     15 C6         19.3160  -26.8360   14.1700 C.3       1 BGC         0.0730
     16 C1         16.1340  -25.0090   13.5740 C.3       1 BGC         0.1884
     17 O2         15.0670  -23.2310   14.8120 O.3       1 BGC        -0.3841
     18 O3         17.3630  -23.2110   16.5930 O.3       1 BGC        -0.3864
     19 O4         19.7460  -24.1800   15.1250 O.3       1 BGC        -0.3401
     20 O5         17.0810  -26.0790   13.7470 O.3       1 BGC        -0.3405
     21 O6         19.2080  -27.5500   12.9320 O.3       1 BGC        -0.3924
     22 C2         21.9130  -23.7940   15.8750 C.3       1 BGC         0.1341
     23 C3         22.8480  -23.7740   17.1070 C.3       1 BGC         0.1141
     24 C4         22.2100  -23.0390   18.2740 C.3       1 BGC         0.1119
     25 C5         20.8510  -23.6740   18.5120 C.3       1 BGC         0.1130
     26 C6         20.2820  -23.0830   19.7980 C.3       1 BGC         0.0730
     27 C1         20.5610  -24.3310   16.2790 C.3       1 BGC         0.1884
     28 O2         22.4420  -24.5910   14.8060 O.3       1 BGC        -0.3841
     29 O3         24.0730  -23.1230   16.8200 O.3       1 BGC        -0.3864
     30 O4         23.0090  -23.3270   19.4160 O.3       1 BGC        -0.3865
     31 O5         20.1000  -23.4680   17.3040 O.3       1 BGC        -0.3405
     32 O6         19.1000  -22.3200   19.5760 O.3       1 BGC        -0.3924
     33 H          12.6177  -23.9433   13.4116 H         1 OXZ         0.0586
     34 H          11.3045  -24.0241   12.2476 H         1 OXZ         0.0586
     35 H          12.3749  -26.2200   12.6314 H         1 OXZ         0.0702
     36 H          14.8374  -24.9278   11.3735 H         1 OXZ         0.0654
     37 H          14.3886  -27.8050   12.0549 H         1 OXZ         0.0674
     38 H          14.4166  -28.3373    9.6699 H         1 OXZ         0.0850
     39 H          14.8518  -26.6988    9.2367 H         1 OXZ         0.0850
     40 H          12.8504  -23.3295   10.5974 H         1 OXZ         0.2095
     41 H          16.5935  -27.1033   12.3345 H         1 OXZ         0.2101
     42 H          12.4086  -27.6265   10.5382 H         1 OXZ         0.2348
     43 H          12.6125  -26.8168    8.9908 H         1 OXZ         0.2348
     44 H          15.8292  -24.9292   15.7164 H         1 OXZ         0.0671
     45 H          17.6463  -22.8004   14.5290 H         1 OXZ         0.0648
     46 H          18.2783  -25.2707   16.1177 H         1 OXZ         0.0651
     47 H          18.7629  -25.0445   13.1231 H         1 OXZ         0.0647
     48 H          19.0118  -27.4428   15.0229 H         1 OXZ         0.0584
     49 H          20.3451  -26.5559   14.3951 H         1 OXZ         0.0584
     50 H          16.4025  -24.3411   12.7555 H         1 OXZ         0.0938
     51 H          15.2865  -22.6287   14.0974 H         1 OXZ         0.2101
     52 H          18.2246  -22.8910   16.8701 H         1 OXZ         0.2100
     53 H          19.7519  -28.3401   12.9711 H         1 OXZ         0.2095
     54 H          21.8244  -22.7702   15.5116 H         1 OXZ         0.0671
     55 H          23.0270  -24.8175   17.3663 H         1 OXZ         0.0648
     56 H          22.1261  -21.9682   18.0886 H         1 OXZ         0.0647
     57 H          20.8519  -24.7499   18.6868 H         1 OXZ         0.0647
     58 H          21.0345  -22.4186   20.2227 H         1 OXZ         0.0584
     59 H          20.0275  -23.9090   20.4621 H         1 OXZ         0.0584
     60 H          20.5643  -25.3652   16.6232 H         1 OXZ         0.0938
     61 H          21.8446  -24.5547   14.0554 H         1 OXZ         0.2101
     62 H          24.6414  -23.1580   17.5928 H         1 OXZ         0.2100
     63 H          23.8800  -22.9397   19.3017 H         1 OXZ         0.2100
     64 H          18.7834  -21.9717   20.4128 H         1 OXZ         0.2095
@<TRIPOS>BOND
     1    2    1 1  
     2    1    6 1  
     3    3    2 1  
     4    2    7 1  
     5    3    4 1  
     6    8    3 1  
     7    4    5 1  
     8    4    9 1  
     9    5   10 1  
    10    7   10 1  
    11   16    8 1  
    12   12   11 1  
    13   11   16 1  
    14   11   17 1  
    15   13   12 1  
    16   12   18 1  
    17   13   14 1  
    18   19   13 1  
    19   14   15 1  
    20   14   20 1  
    21   15   21 1  
    22   20   16 1  
    23   27   19 1  
    24   22   23 1  
    25   22   27 1  
    26   22   28 1  
    27   23   24 1  
    28   23   29 1  
    29   24   25 1  
    30   24   30 1  
    31   25   26 1  
    32   25   31 1  
    33   26   32 1  
    34   27   31 1  
    35    1   33 1  
    36    1   34 1  
    37    2   35 1  
    38    3   36 1  
    39    4   37 1  
    40    5   38 1  
    41    5   39 1  
    42    6   40 1  
    43    9   41 1  
    44   10   42 1  
    45   10   43 1  
    46   11   44 1  
    47   12   45 1  
    48   13   46 1  
    49   14   47 1  
    50   15   48 1  
    51   15   49 1  
    52   16   50 1  
    53   17   51 1  
    54   18   52 1  
    55   21   53 1  
    56   22   54 1  
    57   23   55 1  
    58   24   56 1  
    59   25   57 1  
    60   26   58 1  
    61   26   59 1  
    62   27   60 1  
    63   28   61 1  
    64   29   62 1  
    65   30   63 1  
    66   32   64 1  
@<TRIPOS>SUBSTRUCTURE
     1 OXZ         1

