### 
### Created by X-TOOL on Mon Sep 10 21:13:06 2018
### 

@<TRIPOS>MOLECULE
2yjw_ligand
   33    35     1     0     0
SMALL
GAST_HUCK


@<TRIPOS>ATOM
      1 N2          2.4800   34.4780   27.0150 N.2       1 YJW        -0.1584
      2 C3          1.6850   34.7600   25.9700 C.2       1 YJW         0.0447
      3 C4          0.9950   35.9710   26.1200 C.2       1 YJW         0.0213
      4 C5          1.3410   36.4930   27.3210 C.2       1 YJW         0.1505
      5 C6          1.6100   33.9110   24.8230 C.ar      1 YJW         0.0074
      6 C7          0.0730   36.6500   25.2550 C.ar      1 YJW        -0.0390
      7 C8          0.8550   37.7570   27.8960 C.3       1 YJW         0.0140
      8 C12         0.6070   37.1520   24.0620 C.ar      1 YJW        -0.0651
      9 C13        -0.2350   37.8600   23.1200 C.ar      1 YJW        -0.0690
     10 C14        -1.6020   38.0390   23.3830 C.ar      1 YJW        -0.0687
     11 C15        -2.1870   37.5500   24.6040 C.ar      1 YJW        -0.0690
     12 C16        -1.3330   36.8560   25.5630 C.ar      1 YJW        -0.0651
     13 C21         2.8770   33.4960   24.1770 C.ar      1 YJW         0.0902
     14 C22         2.7760   32.7210   22.9910 C.ar      1 YJW        -0.0035
     15 C23         1.4540   32.3860   22.4810 C.ar      1 YJW         0.0805
     16 C24         0.2170   32.7550   23.1130 C.ar      1 YJW        -0.0426
     17 C25         0.3310   33.5830   24.2690 C.ar      1 YJW        -0.0695
     18 O29         1.4220   31.6850   21.3160 O.3       1 YJW        -0.3349
     19 O11         2.2360   35.6750   27.9430 O.3       1 YJW        -0.1659
     20 O30         4.0900   33.8750   24.7420 O.3       1 YJW        -0.3331
     21 H1          1.3155   37.9118   28.8829 H         1 YJW         0.0470
     22 H2         -0.2388   37.7139   28.0045 H         1 YJW         0.0470
     23 H3          1.1250   38.5903   27.2307 H         1 YJW         0.0470
     24 H4          1.6588   37.0096   23.8417 H         1 YJW         0.0556
     25 H5          0.1935   38.2543   22.2057 H         1 YJW         0.0599
     26 H6         -2.2244   38.5514   22.6583 H         1 YJW         0.0559
     27 H7         -3.2419   37.6944   24.8074 H         1 YJW         0.0599
     28 H8         -1.7445   36.4964   26.4992 H         1 YJW         0.0556
     29 H9          3.6677   32.3847   22.4745 H         1 YJW         0.0465
     30 H10        -0.7435   32.4244   22.7345 H         1 YJW         0.0460
     31 H11        -0.5668   33.9709   24.7365 H         1 YJW         0.0567
     32 H12         2.3104   31.5174   21.0240 H         1 YJW         0.2486
     33 H13         3.9269   34.3856   25.5263 H         1 YJW         0.2494
@<TRIPOS>BOND
     1    1    2 2  
     2    1   19 1  
     3    2    3 1  
     4    2    5 1  
     5    3    4 2  
     6    3    6 1  
     7    4    7 1  
     8    4   19 1  
     9    5   13 ar 
    10    5   17 ar 
    11    6    8 ar 
    12    6   12 ar 
    13    8    9 ar 
    14    9   10 ar 
    15   10   11 ar 
    16   11   12 ar 
    17   13   14 ar 
    18   13   20 1  
    19   14   15 ar 
    20   15   16 ar 
    21   15   18 1  
    22   16   17 ar 
    23    7   21 1  
    24    7   22 1  
    25    7   23 1  
    26    8   24 1  
    27    9   25 1  
    28   10   26 1  
    29   11   27 1  
    30   12   28 1  
    31   14   29 1  
    32   16   30 1  
    33   17   31 1  
    34   18   32 1  
    35   20   33 1  
@<TRIPOS>SUBSTRUCTURE
     1 YJW         1

