### 
### Created by X-TOOL on Mon Sep 10 21:13:06 2018
### 

@<TRIPOS>MOLECULE
2yjx_ligand
   37    41     1     0     0
SMALL
GAST_HUCK


@<TRIPOS>ATOM
      1 C15         8.5930   10.3540  -26.1000 C.ar      1 YJX        -0.0573
      2 C19         7.4600    9.7000  -26.6960 C.ar      1 YJX        -0.0568
      3 C8          8.5970   11.5500  -25.3120 C.ar      1 YJX        -0.0476
      4 C14         6.2220   10.3510  -26.5000 C.ar      1 YJX        -0.0430
      5 C20        12.3170   14.3420  -23.9350 C.ar      1 YJX        -0.0167
      6 C22        13.3010   14.5510  -22.9340 C.ar      1 YJX        -0.0077
      7 C21        11.6170   14.7500  -21.1430 C.ar      1 YJX         0.0060
      8 C3          7.3230   12.2160  -25.1160 C.ar      1 YJX         0.0270
      9 C7          6.1160   11.5930  -25.7120 C.ar      1 YJX         0.0625
     10 C17        10.9060   14.3590  -23.4610 C.ar      1 YJX         0.0944
     11 C18        10.6260   14.5770  -22.0740 C.ar      1 YJX         0.0486
     12 C5          8.8370   14.3080  -23.2510 C.2       1 YJX         0.1208
     13 C1          6.8490   13.3440  -24.3510 C.2       1 YJX         0.0969
     14 C9          4.9360   12.3660  -25.3640 C.2       1 YJX         0.2379
     15 C2          7.4370   14.2420  -23.5200 C.2       1 YJX         0.0323
     16 C6          6.5130   15.2610  -22.7520 C.3       1 YJX        -0.0194
     17 C13         5.2180   15.6320  -23.4950 C.3       1 YJX        -0.0202
     18 C10         4.4790   14.4090  -24.0040 C.3       1 YJX         0.0587
     19 N23        12.9900   14.7400  -21.5420 N.ar      1 YJX        -0.3193
     20 N11         9.7730   14.2050  -24.2000 N.pl3     1 YJX        -0.2500
     21 N12         9.2760   14.5380  -21.9430 N.2       1 YJX        -0.3162
     22 N4          5.4220   13.3660  -24.5740 N.am      1 YJX        -0.2149
     23 O16         3.7100   12.2050  -25.6800 O.2       1 YJX        -0.3684
     24 H1          9.5572    9.8873  -26.2665 H         1 YJX         0.0645
     25 H2          7.5492    8.7753  -27.2547 H         1 YJX         0.0627
     26 H3          9.5118   11.9405  -24.8809 H         1 YJX         0.0645
     27 H4          5.3268    9.9268  -26.9401 H         1 YJX         0.0670
     28 H5         12.5756   14.1807  -24.9753 H         1 YJX         0.0625
     29 H6         14.3425   14.5692  -23.2341 H         1 YJX         0.0708
     30 H7         11.3588   14.8950  -20.1002 H         1 YJX         0.0744
     31 H8          7.0870   16.1835  -22.5803 H         1 YJX         0.0381
     32 H9          6.2385   14.8146  -21.7849 H         1 YJX         0.0381
     33 H10         5.4723   16.2740  -24.3512 H         1 YJX         0.0308
     34 H11         4.5599   16.1825  -22.8066 H         1 YJX         0.0308
     35 H12         3.7779   14.7211  -24.7921 H         1 YJX         0.0597
     36 H13         3.9180   13.9615  -23.1703 H         1 YJX         0.0597
     37 H14         9.6662   14.0512  -25.2128 H         1 YJX         0.2290
@<TRIPOS>BOND
     1    1    2 ar 
     2    3    1 ar 
     3    4    2 ar 
     4    8    3 ar 
     5    9    4 ar 
     6    5    6 ar 
     7   10    5 ar 
     8   19    6 ar 
     9   11    7 ar 
    10    7   19 ar 
    11    8    9 ar 
    12   13    8 1  
    13    9   14 1  
    14   11   10 ar 
    15   20   10 1  
    16   21   11 1  
    17   15   12 1  
    18   12   20 1  
    19   12   21 2  
    20   13   15 2  
    21   13   22 1  
    22   14   22 am 
    23   14   23 2  
    24   15   16 1  
    25   16   17 1  
    26   17   18 1  
    27   18   22 1  
    28    1   24 1  
    29    2   25 1  
    30    3   26 1  
    31    4   27 1  
    32    5   28 1  
    33    6   29 1  
    34    7   30 1  
    35   16   31 1  
    36   16   32 1  
    37   17   33 1  
    38   17   34 1  
    39   18   35 1  
    40   18   36 1  
    41   20   37 1  
@<TRIPOS>SUBSTRUCTURE
     1 YJX         1

