### 
### Created by X-TOOL on Mon Sep 10 21:13:07 2018
### 

@<TRIPOS>MOLECULE
2yk1_ligand
   27    28     1     0     0
SMALL
GAST_HUCK


@<TRIPOS>ATOM
      1 N1        -20.4710    5.1740   -0.2320 N.ar      1 NCT        -0.3042
      2 C1        -20.2640    3.8980    0.0490 C.ar      1 NCT         0.0179
      3 C2        -21.3020    3.0360    0.3630 C.ar      1 NCT         0.0324
      4 C3        -22.6140    3.5480    0.3990 C.ar      1 NCT        -0.0351
      5 C4        -22.8070    4.8910    0.1100 C.ar      1 NCT        -0.0403
      6 C5        -21.7010    5.6960   -0.2000 C.ar      1 NCT         0.0042
      7 N2        -21.9710    0.8160    1.4390 N.4       1 NCT         0.2482
      8 C6        -20.9690    1.5820    0.6460 C.3       1 NCT         0.0189
      9 C7        -20.9020    0.7260   -0.6510 C.3       1 NCT         0.0064
     10 C8        -20.7680   -0.6920   -0.0430 C.3       1 NCT        -0.0054
     11 C9        -21.4880   -0.5700    1.3220 C.3       1 NCT        -0.0300
     12 C10       -21.8490    1.1890    2.8630 C.3       1 NCT        -0.0413
     13 H1        -19.2501    3.5148    0.0331 H         1 NCT         0.0767
     14 H2        -23.4529    2.9077    0.6467 H         1 NCT         0.0680
     15 H3        -23.8046    5.3149    0.1236 H         1 NCT         0.0693
     16 H4        -21.8448    6.7487   -0.4151 H         1 NCT         0.0767
     17 H5        -22.9117    0.9383    1.0981 H         1 NCT         0.2049
     18 H6        -19.9995    1.5640    1.1654 H         1 NCT         0.1033
     19 H7        -20.0291    0.9885   -1.2668 H         1 NCT         0.0346
     20 H8        -21.8180    0.8258   -1.2518 H         1 NCT         0.0346
     21 H9        -19.7107   -0.9630    0.0932 H         1 NCT         0.0320
     22 H10       -21.2594   -1.4413   -0.6810 H         1 NCT         0.0320
     23 H11       -22.3361   -1.2692    1.3641 H         1 NCT         0.0815
     24 H12       -20.7866   -0.7946    2.1391 H         1 NCT         0.0815
     25 H13       -22.1996    2.2222    3.0027 H         1 NCT         0.0778
     26 H14       -20.7962    1.1140    3.1728 H         1 NCT         0.0778
     27 H15       -22.4604    0.5086    3.4740 H         1 NCT         0.0778
@<TRIPOS>BOND
     1    1    2 ar 
     2    1    6 ar 
     3    2    3 ar 
     4    3    4 ar 
     5    3    8 1  
     6    4    5 ar 
     7    5    6 ar 
     8    8    7 1  
     9    7   11 1  
    10    7   12 1  
    11    8    9 1  
    12    9   10 1  
    13   10   11 1  
    14    2   13 1  
    15    4   14 1  
    16    5   15 1  
    17    6   16 1  
    18    7   17 1  
    19    8   18 1  
    20    9   19 1  
    21    9   20 1  
    22   10   21 1  
    23   10   22 1  
    24   11   23 1  
    25   11   24 1  
    26   12   25 1  
    27   12   26 1  
    28   12   27 1  
@<TRIPOS>SUBSTRUCTURE
     1 NCT         1

