### 
### Created by X-TOOL on Mon Sep 10 21:13:06 2018
### 

@<TRIPOS>MOLECULE
2yk9_ligand
   34    38     1     0     0
SMALL
GAST_HUCK


@<TRIPOS>ATOM
      1 C15         8.5650   10.3360   23.4420 C.ar      1 YK9        -0.0562
      2 C19         7.4890    9.7420   22.7970 C.ar      1 YK9        -0.0556
      3 C8          8.4020   11.5240   24.1480 C.ar      1 YK9        -0.0487
      4 C14         6.2270   10.3040   22.8680 C.ar      1 YK9        -0.0437
      5 C20        11.5690   14.6830   28.1450 C.ar      1 YK9        -0.0356
      6 C22        12.8560   14.7080   27.6500 C.ar      1 YK9        -0.0068
      7 C21        12.1460   14.4460   25.4870 C.ar      1 YK9         0.0320
      8 C3          7.1370   12.1100   24.2230 C.ar      1 YK9         0.0015
      9 C7          6.0390   11.4810   23.5950 C.ar      1 YK9         0.0408
     10 C17        10.5450   14.5280   27.2130 C.ar      1 YK9         0.0515
     11 C18        10.8000   14.3880   25.8500 C.ar      1 YK9         0.1095
     12 C5          8.6590   14.3160   26.0820 C.2       1 YK9         0.1481
     13 C1          6.6390   13.3040   24.9400 C.ar      1 YK9         0.0157
     14 C9          4.7970   12.2440   23.8900 C.2       1 YK9         0.1711
     15 C2          7.2080   14.2690   25.7920 C.ar      1 YK9         0.0482
     16 C6          6.4000   15.2490   26.3950 C.ar      1 YK9        -0.0389
     17 C13         5.0280   15.2860   26.1720 C.ar      1 YK9        -0.0509
     18 C10         4.4410   14.3620   25.3290 C.ar      1 YK9        -0.0403
     19 N23        13.1530   14.5980   26.3500 N.ar      1 YK9        -0.3143
     20 N11         9.1650   14.4930   27.3340 N.2       1 YK9        -0.2939
     21 C30         5.2310   13.3810   24.7390 C.ar      1 YK9         0.0449
     22 N12         9.6050   14.2430   25.1550 N.pl3     1 YK9        -0.2415
     23 O16         3.6480   11.9920   23.5050 O.2       1 YK9        -0.3470
     24 H1          9.5424    9.8696   23.3953 H         1 YK9         0.0652
     25 H2          7.6391    8.8290   22.2322 H         1 YK9         0.0634
     26 H3          9.2502   11.9906   24.6357 H         1 YK9         0.0648
     27 H4          5.3906    9.8342   22.3632 H         1 YK9         0.0675
     28 H5         11.3645   14.7791   29.2052 H         1 YK9         0.0644
     29 H6         13.6726   14.8232   28.3535 H         1 YK9         0.0705
     30 H7         12.3902   14.3620   24.4342 H         1 YK9         0.0763
     31 H8          6.8543   15.9882   27.0448 H         1 YK9         0.0702
     32 H9          4.4194   16.0392   26.6592 H         1 YK9         0.0639
     33 H10         3.3762   14.4012   25.1296 H         1 YK9         0.0708
     34 H11         9.4811   14.1083   24.1414 H         1 YK9         0.2330
@<TRIPOS>BOND
     1    1    2 ar 
     2    3    1 ar 
     3    4    2 ar 
     4    8    3 ar 
     5    9    4 ar 
     6    5    6 ar 
     7   10    5 ar 
     8   19    6 ar 
     9   11    7 ar 
    10    7   19 ar 
    11    8    9 ar 
    12   13    8 1  
    13    9   14 1  
    14   11   10 ar 
    15   20   10 1  
    16   22   11 1  
    17   15   12 1  
    18   12   20 2  
    19   12   22 1  
    20   13   15 ar 
    21   13   21 ar 
    22   14   21 1  
    23   14   23 2  
    24   15   16 ar 
    25   16   17 ar 
    26   17   18 ar 
    27   18   21 ar 
    28    1   24 1  
    29    2   25 1  
    30    3   26 1  
    31    4   27 1  
    32    5   28 1  
    33    6   29 1  
    34    7   30 1  
    35   16   31 1  
    36   17   32 1  
    37   18   33 1  
    38   22   34 1  
@<TRIPOS>SUBSTRUCTURE
     1 YK9         1

