### 
### Created by X-TOOL on Mon Sep 10 21:13:07 2018
### 

@<TRIPOS>MOLECULE
2ykb_ligand
   49    53     1     0     0
SMALL
GAST_HUCK


@<TRIPOS>ATOM
      1 C1          8.2200   35.1260  -23.4230 C.ar      1 YKB        -0.0681
      2 C2          7.0120   35.7570  -22.8600 C.ar      1 YKB        -0.0680
      3 C3          5.8640   34.9580  -23.1320 C.ar      1 YKB        -0.0554
      4 C4          8.2580   33.9250  -24.2090 C.ar      1 YKB        -0.0611
      5 C5          6.9960   33.2260  -24.4240 C.ar      1 YKB        -0.0131
      6 C6          5.8490   33.7790  -23.8610 C.ar      1 YKB         0.0020
      7 C7          4.6470   32.9740  -24.1270 C.3       1 YKB         0.1115
      8 C8          6.5690   31.9700  -25.1500 C.ar      1 YKB         0.0009
      9 C9          5.2020   31.8060  -24.9920 C.ar      1 YKB         0.0060
     10 C10         4.4060   30.7670  -25.5010 C.ar      1 YKB        -0.0515
     11 C11         5.0520   29.7250  -26.2950 C.ar      1 YKB        -0.0627
     12 C12         6.5000   29.9160  -26.4800 C.ar      1 YKB        -0.0503
     13 C13         7.2510   30.9760  -25.9230 C.ar      1 YKB         0.0352
     14 C14         8.7520   30.9720  -26.1890 C.2       1 YKB         0.1434
     15 N15         9.6750   31.0700  -25.2800 N.pl3     1 YKB        -0.2417
     16 N16         9.2610   30.8090  -27.5130 N.2       1 YKB        -0.2961
     17 C17        10.5360   30.8030  -27.4640 C.ar      1 YKB         0.0602
     18 C18        10.8100   30.9530  -26.0730 C.ar      1 YKB         0.1005
     19 C19        12.2090   30.9840  -25.6030 C.ar      1 YKB        -0.0137
     20 C20        13.1580   30.8320  -26.4940 C.ar      1 YKB        -0.0050
     21 N21        12.8530   30.7030  -27.8620 N.ar      1 YKB        -0.3159
     22 C22        11.6090   30.6970  -28.3740 C.ar      1 YKB         0.0105
     23 N23         3.4680   33.4420  -24.7570 N.am      1 YKB        -0.2594
     24 C24         2.2520   33.6730  -24.1110 C.2       1 YKB         0.1827
     25 C25         1.0500   34.1750  -24.9400 C.3       1 YKB         0.0544
     26 O26         2.1630   33.4940  -22.8890 O.2       1 YKB        -0.3965
     27 C27        -0.1400   34.6140  -24.1480 C.3       1 YKB         0.0538
     28 C28        -1.4250   34.4990  -24.8330 C.2       1 YKB         0.1757
     29 O29        -1.5400   34.7230  -26.1600 O.2       1 YKB        -0.3971
     30 N30        -2.3200   34.0430  -24.1240 N.am      1 YKB        -0.3007
     31 H1          9.1674   35.6142  -23.2251 H         1 YKB         0.0563
     32 H2          6.9992   36.6949  -22.3167 H         1 YKB         0.0597
     33 H3          4.9171   35.3032  -22.7329 H         1 YKB         0.0566
     34 H4          9.1869   33.5529  -24.6257 H         1 YKB         0.0603
     35 H5          4.3178   32.5897  -23.1503 H         1 YKB         0.0919
     36 H6          3.3394   30.7390  -25.3095 H         1 YKB         0.0603
     37 H7          4.5115   28.8831  -26.7123 H         1 YKB         0.0605
     38 H8          7.0288   29.1907  -27.0878 H         1 YKB         0.0616
     39 H9          9.5897   31.1980  -24.2615 H         1 YKB         0.2335
     40 H10        12.4439   31.1279  -24.5546 H         1 YKB         0.0639
     41 H11        14.1929   30.8052  -26.1727 H         1 YKB         0.0725
     42 H12        11.4381   30.6142  -29.4412 H         1 YKB         0.0771
     43 H13         3.5097   33.6207  -25.7400 H         1 YKB         0.1916
     44 H14         0.7321   33.3583  -25.6047 H         1 YKB         0.0527
     45 H15         1.3885   35.0293  -25.5447 H         1 YKB         0.0527
     46 H16         0.0052   35.6693  -23.8738 H         1 YKB         0.0527
     47 H17        -0.1856   34.0010  -23.2358 H         1 YKB         0.0527
     48 H18        -3.2404   33.9230  -24.4960 H         1 YKB         0.1814
     49 H19        -2.1275   33.7921  -23.1753 H         1 YKB         0.1814
@<TRIPOS>BOND
     1    1    2 ar 
     2    1    4 ar 
     3    2    3 ar 
     4    3    6 ar 
     5    4    5 ar 
     6    5    6 ar 
     7    5    8 1  
     8    6    7 1  
     9    7    9 1  
    10    7   23 1  
    11    8    9 ar 
    12    8   13 ar 
    13    9   10 ar 
    14   10   11 ar 
    15   11   12 ar 
    16   12   13 ar 
    17   13   14 1  
    18   14   15 1  
    19   14   16 2  
    20   15   18 1  
    21   16   17 1  
    22   17   18 ar 
    23   17   22 ar 
    24   18   19 ar 
    25   19   20 ar 
    26   20   21 ar 
    27   21   22 ar 
    28   23   24 am 
    29   24   25 1  
    30   24   26 2  
    31   25   27 1  
    32   27   28 1  
    33   28   29 2  
    34   28   30 am 
    35    1   31 1  
    36    2   32 1  
    37    3   33 1  
    38    4   34 1  
    39    7   35 1  
    40   10   36 1  
    41   11   37 1  
    42   12   38 1  
    43   15   39 1  
    44   19   40 1  
    45   20   41 1  
    46   22   42 1  
    47   23   43 1  
    48   25   44 1  
    49   25   45 1  
    50   27   46 1  
    51   27   47 1  
    52   30   48 1  
    53   30   49 1  
@<TRIPOS>SUBSTRUCTURE
     1 YKB         1

