### 
### Created by X-TOOL on Mon Sep 10 21:13:06 2018
### 

@<TRIPOS>MOLECULE
2ykc_ligand
   48    53     1     0     0
SMALL
GAST_HUCK


@<TRIPOS>ATOM
      1 C1          8.0450   10.2400   23.4430 C.ar      1 YKC        -0.0680
      2 C2          6.8490    9.6260   22.9020 C.ar      1 YKC        -0.0680
      3 C3          5.6070   10.2990   23.1110 C.ar      1 YKC        -0.0553
      4 C4          8.0570   11.5060   24.1960 C.ar      1 YKC        -0.0610
      5 C5          6.7960   12.1870   24.3800 C.ar      1 YKC        -0.0129
      6 C6          5.5640   11.5270   23.7950 C.ar      1 YKC         0.0021
      7 C7          4.4300   12.4130   24.1190 C.3       1 YKC         0.1114
      8 C8          6.3680   13.3690   25.0490 C.ar      1 YKC         0.0013
      9 C9          4.9710   13.5210   24.8870 C.ar      1 YKC         0.0063
     10 C10         4.2600   14.6530   25.4940 C.ar      1 YKC        -0.0512
     11 C11         4.9870   15.6060   26.2720 C.ar      1 YKC        -0.0623
     12 C12         6.3990   15.4440   26.4370 C.ar      1 YKC        -0.0499
     13 C13         7.0920   14.3470   25.8280 C.ar      1 YKC         0.0361
     14 C14         8.5440   14.3430   26.0510 C.2       1 YKC         0.1441
     15 N15         9.4940   14.1550   25.1230 N.2       1 YKC        -0.2951
     16 N16         9.0590   14.5150   27.3110 N.pl3     1 YKC        -0.2421
     17 C17        10.3920   14.5020   27.1630 C.ar      1 YKC         0.1092
     18 C18        10.6940   14.2780   25.7560 C.ar      1 YKC         0.0509
     19 C19        12.0150   14.2150   25.2850 C.ar      1 YKC        -0.0358
     20 C20        12.9960   14.4320   26.2470 C.ar      1 YKC        -0.0069
     21 N21        12.7270   14.6150   27.6080 N.ar      1 YKC        -0.3145
     22 C22        11.4290   14.6570   28.0620 C.ar      1 YKC         0.0318
     23 N23         3.2480   11.9200   24.7620 N.am      1 YKC        -0.2571
     24 C24         2.1080   11.6650   24.0310 C.2       1 YKC         0.2195
     25 C25         0.8960   11.2280   24.7890 C.ar      1 YKC         0.0700
     26 O26         2.1010   11.8230   22.8070 O.2       1 YKC        -0.3789
     27 C27        -0.3950   11.6650   24.2140 C.ar      1 YKC        -0.0141
     28 C28        -1.5650   11.3290   24.9430 C.ar      1 YKC         0.0169
     29 C40         0.9930   10.5200   26.0470 C.ar      1 YKC        -0.0141
     30 N30        -1.4590   10.6080   26.1560 N.ar      1 YKC        -0.2918
     31 C60        -0.2360   10.1910   26.7380 C.ar      1 YKC         0.0169
     32 H1          8.9911    9.7355   23.2834 H         1 YKC         0.0563
     33 H2          6.8955    8.6894   22.3582 H         1 YKC         0.0597
     34 H3          4.6887    9.8592   22.7389 H         1 YKC         0.0566
     35 H4          8.9784   11.9120   24.5975 H         1 YKC         0.0603
     36 H5          4.0828   12.8085   23.1531 H         1 YKC         0.0919
     37 H6          3.1911   14.7651   25.3530 H         1 YKC         0.0605
     38 H7          4.4742   16.4428   26.7323 H         1 YKC         0.0605
     39 H8          6.9529   16.1616   27.0314 H         1 YKC         0.0619
     40 H9          8.5316   14.6302   28.1882 H         1 YKC         0.2328
     41 H10        12.2532   14.0120   24.2472 H         1 YKC         0.0643
     42 H11        14.0301   14.4611   25.9232 H         1 YKC         0.0705
     43 H12        11.2222   14.8102   29.1150 H         1 YKC         0.0763
     44 H13         3.2505   11.7597   25.7491 H         1 YKC         0.1913
     45 H14        -0.4447   12.2151   23.2813 H         1 YKC         0.0762
     46 H15        -2.5394   11.6244   24.5710 H         1 YKC         0.0837
     47 H16         1.9567   10.2442   26.4597 H         1 YKC         0.0762
     48 H17        -0.2211    9.6421   27.6726 H         1 YKC         0.0837
@<TRIPOS>BOND
     1    1    2 ar 
     2    1    4 ar 
     3    2    3 ar 
     4    3    6 ar 
     5    4    5 ar 
     6    5    6 ar 
     7    5    8 1  
     8    6    7 1  
     9    7    9 1  
    10    7   23 1  
    11    8    9 ar 
    12    8   13 ar 
    13    9   10 ar 
    14   10   11 ar 
    15   11   12 ar 
    16   12   13 ar 
    17   13   14 1  
    18   14   15 2  
    19   14   16 1  
    20   15   18 1  
    21   16   17 1  
    22   17   18 ar 
    23   17   22 ar 
    24   18   19 ar 
    25   19   20 ar 
    26   20   21 ar 
    27   21   22 ar 
    28   23   24 am 
    29   24   25 1  
    30   24   26 2  
    31   25   27 ar 
    32   25   29 ar 
    33   27   28 ar 
    34   28   30 ar 
    35   29   31 ar 
    36   30   31 ar 
    37    1   32 1  
    38    2   33 1  
    39    3   34 1  
    40    4   35 1  
    41    7   36 1  
    42   10   37 1  
    43   11   38 1  
    44   12   39 1  
    45   16   40 1  
    46   19   41 1  
    47   20   42 1  
    48   22   43 1  
    49   23   44 1  
    50   27   45 1  
    51   28   46 1  
    52   29   47 1  
    53   31   48 1  
@<TRIPOS>SUBSTRUCTURE
     1 YKC         1

