### 
### Created by X-TOOL on Mon Sep 10 21:13:05 2018
### 

@<TRIPOS>MOLECULE
2yke_ligand
   54    60     1     0     0
SMALL
GAST_HUCK


@<TRIPOS>ATOM
      1 C1          8.4630   10.4070   23.5140 C.ar      1 YKE        -0.0680
      2 C2          7.3650    9.7460   22.9790 C.ar      1 YKE        -0.0680
      3 C3          6.0960   10.2860   23.1210 C.ar      1 YKE        -0.0553
      4 C4          8.3350   11.5930   24.2370 C.ar      1 YKE        -0.0610
      5 C5          7.0630   12.1610   24.3720 C.ar      1 YKE        -0.0129
      6 C6          5.9700   11.5320   23.7090 C.ar      1 YKE         0.0020
      7 C7          4.8690   12.1990   24.4130 C.3       1 YKE         0.1111
      8 C8          6.5840   13.3880   25.0870 C.ar      1 YKE         0.0013
      9 C9          5.2130   13.5490   24.8690 C.ar      1 YKE         0.0062
     10 C10         4.4610   14.5390   25.4730 C.ar      1 YKE        -0.0512
     11 C11         5.1110   15.4900   26.2490 C.ar      1 YKE        -0.0623
     12 C12         6.4770   15.4050   26.4540 C.ar      1 YKE        -0.0499
     13 C13         7.2310   14.3760   25.8720 C.ar      1 YKE         0.0361
     14 C14         8.6730   14.3890   26.1500 C.2       1 YKE         0.1441
     15 N15         9.2020   14.5590   27.3600 N.2       1 YKE        -0.2951
     16 N16         9.6390   14.2750   25.2150 N.pl3     1 YKE        -0.2421
     17 C17        10.8470   14.4230   25.8780 C.ar      1 YKE         0.1092
     18 C18        10.5500   14.5960   27.2480 C.ar      1 YKE         0.0509
     19 C19        11.6000   14.7550   28.1760 C.ar      1 YKE        -0.0358
     20 C20        12.8870   14.7720   27.6800 C.ar      1 YKE        -0.0069
     21 N21        13.1230   14.6260   26.3780 N.ar      1 YKE        -0.3145
     22 C22        12.1760   14.4240   25.4690 C.ar      1 YKE         0.0318
     23 N23         3.5190   11.7230   24.6080 N.am      1 YKE        -0.2590
     24 C24         2.7750   10.6720   24.2640 C.2       1 YKE         0.2109
     25 C25         1.6740   10.3720   25.2240 C.ar      1 YKE         0.0644
     26 O26         2.8840   10.1230   23.1770 O.2       1 YKE        -0.3844
     27 C27         2.0090    9.6510   26.3830 C.ar      1 YKE        -0.0354
     28 C28        -0.2850    9.6100   27.1520 C.ar      1 YKE        -0.0337
     29 C29         1.0350    9.2810   27.3250 C.ar      1 YKE        -0.0487
     30 C30         0.3090   10.7340   25.0010 C.ar      1 YKE         0.0247
     31 C31        -0.6630   10.3320   25.9690 C.ar      1 YKE         0.0523
     32 N32        -1.9420   10.6700   25.7710 N.ar      1 YKE        -0.2931
     33 C33        -2.3260   11.2620   24.6640 C.ar      1 YKE         0.0119
     34 C34        -1.4630   11.7010   23.6730 C.ar      1 YKE        -0.0306
     35 C35        -0.1060   11.4660   23.8600 C.ar      1 YKE        -0.0323
     36 H1          9.4514    9.9877   23.3649 H         1 YKE         0.0563
     37 H2          7.5000    8.8090   22.4510 H         1 YKE         0.0597
     38 H3          5.2218    9.7439   22.7789 H         1 YKE         0.0566
     39 H4          9.2022   12.0647   24.6848 H         1 YKE         0.0603
     40 H5          5.1696   11.7374   25.3651 H         1 YKE         0.0918
     41 H6          3.3853   14.5725   25.3436 H         1 YKE         0.0605
     42 H7          4.5468   16.3010   26.6953 H         1 YKE         0.0605
     43 H8          6.9712   16.1446   27.0735 H         1 YKE         0.0619
     44 H9          9.5051   14.1104   24.2071 H         1 YKE         0.2328
     45 H10        11.4035   14.8597   29.2369 H         1 YKE         0.0643
     46 H11        13.7194   14.9064   28.3612 H         1 YKE         0.0705
     47 H12        12.4341   14.2630   24.4285 H         1 YKE         0.0763
     48 H13         2.9905   12.3678   25.1601 H         1 YKE         0.1908
     49 H14         3.0430    9.3740   26.5539 H         1 YKE         0.0709
     50 H15        -1.0269    9.3314   27.8917 H         1 YKE         0.0691
     51 H16         1.3327    8.7243   28.2062 H         1 YKE         0.0667
     52 H17        -3.3884   11.4176   24.5155 H         1 YKE         0.0868
     53 H18        -1.8312   12.2071   22.7879 H         1 YKE         0.0704
     54 H19         0.6217   11.8356   23.1466 H         1 YKE         0.0771
@<TRIPOS>BOND
     1    1    2 ar 
     2    1    4 ar 
     3    2    3 ar 
     4    3    6 ar 
     5    4    5 ar 
     6    5    6 ar 
     7    5    8 1  
     8    6    7 1  
     9    7    9 1  
    10    7   23 1  
    11    8    9 ar 
    12    8   13 ar 
    13    9   10 ar 
    14   10   11 ar 
    15   11   12 ar 
    16   12   13 ar 
    17   13   14 1  
    18   14   15 2  
    19   14   16 1  
    20   15   18 1  
    21   16   17 1  
    22   17   18 ar 
    23   17   22 ar 
    24   18   19 ar 
    25   19   20 ar 
    26   20   21 ar 
    27   21   22 ar 
    28   23   24 am 
    29   24   25 1  
    30   24   26 2  
    31   25   27 ar 
    32   25   30 ar 
    33   27   29 ar 
    34   29   28 ar 
    35   28   31 ar 
    36   30   31 ar 
    37   30   35 ar 
    38   31   32 ar 
    39   32   33 ar 
    40   33   34 ar 
    41   34   35 ar 
    42    1   36 1  
    43    2   37 1  
    44    3   38 1  
    45    4   39 1  
    46    7   40 1  
    47   10   41 1  
    48   11   42 1  
    49   12   43 1  
    50   16   44 1  
    51   19   45 1  
    52   20   46 1  
    53   22   47 1  
    54   23   48 1  
    55   27   49 1  
    56   28   50 1  
    57   29   51 1  
    58   33   52 1  
    59   34   53 1  
    60   35   54 1  
@<TRIPOS>SUBSTRUCTURE
     1 YKE         1

