### 
### Created by X-TOOL on Mon Sep 10 21:13:08 2018
### 

@<TRIPOS>MOLECULE
2yki_ligand
   52    58     1     0     0
SMALL
GAST_HUCK


@<TRIPOS>ATOM
      1 C1         13.3100   14.4050   26.4850 C.ar      1 YKI        -0.0069
      2 N1         13.0260   14.6140   27.8340 N.ar      1 YKI        -0.3145
      3 C2         11.7160   14.6960   28.2950 C.ar      1 YKI         0.0318
      4 N2          9.2910   14.5930   27.4880 N.pl3     1 YKI        -0.2421
      5 C3         12.2830   14.2610   25.5220 C.ar      1 YKI        -0.0358
      6 N3          9.7400   14.2580   25.3430 N.2       1 YKI        -0.2951
      7 C4          8.7580   14.4110   26.2680 C.2       1 YKI         0.1441
      8 N4          3.5690   11.9560   24.6550 N.am      1 YKI        -0.2584
      9 C5         10.9530   14.3440   25.9690 C.ar      1 YKI         0.0509
     10 N5         -1.1620   10.2670   26.1340 N.ar      1 YKI        -0.2805
     11 C6         10.6580   14.5590   27.3740 C.ar      1 YKI         0.1092
     12 N6         -2.3590   11.5620   24.3860 N.pl3     1 YKI        -0.2631
     13 C7          7.3310   14.4050   26.0300 C.ar      1 YKI         0.0361
     14 C8          4.4750   14.5760   25.6390 C.ar      1 YKI        -0.0512
     15 C9          5.1590   15.5770   26.3920 C.ar      1 YKI        -0.0623
     16 C10         6.5780   15.4750   26.5770 C.ar      1 YKI        -0.0499
     17 C11         2.4440   11.4850   24.0790 C.2       1 YKI         0.2116
     18 C12         1.2430   11.0110   24.8590 C.ar      1 YKI         0.0544
     19 O13         2.4240   11.4800   22.8390 O.2       1 YKI        -0.3825
     20 C14         1.2920   10.1820   26.0380 C.ar      1 YKI        -0.0315
     21 C15         0.0470    9.8260   26.6640 C.ar      1 YKI         0.0006
     22 C16         4.5710   12.3870   24.2720 C.3       1 YKI         0.1112
     23 C17         5.1960   13.4650   25.0650 C.ar      1 YKI         0.0062
     24 C18         6.5850   13.3350   25.2300 C.ar      1 YKI         0.0013
     25 C19         5.8240   11.5170   23.9560 C.ar      1 YKI         0.0020
     26 C20         7.0090   12.1050   24.5250 C.ar      1 YKI        -0.0129
     27 C21         8.2930   11.4330   24.3260 C.ar      1 YKI        -0.0610
     28 C22         8.3700   10.2140   23.5750 C.ar      1 YKI        -0.0680
     29 C23         7.1600    9.6370   23.0090 C.ar      1 YKI        -0.0680
     30 C24         5.8960   10.2880   23.1980 C.ar      1 YKI        -0.0553
     31 C25        -0.0800   11.4560   24.3250 C.ar      1 YKI         0.0172
     32 C26        -1.2240   11.0730   24.9920 C.ar      1 YKI         0.1409
     33 C27        -1.9350   12.2990   23.2940 C.2       1 YKI         0.0293
     34 C28        -0.5270   12.2640   23.2210 C.2       1 YKI        -0.0523
     35 H1         14.3445   14.3514   26.1655 H         1 YKI         0.0705
     36 H2         11.5121   14.8627   29.3465 H         1 YKI         0.0763
     37 H3          8.7628   14.7341   28.3609 H         1 YKI         0.2328
     38 H4         12.5140   14.0926   24.4764 H         1 YKI         0.0643
     39 H5          3.5260   11.9249   25.6536 H         1 YKI         0.1910
     40 H6         -3.3324   11.4094   24.6862 H         1 YKI         0.2313
     41 H7          3.4030   14.6508   25.4967 H         1 YKI         0.0605
     42 H8          4.6106   16.4079   26.8208 H         1 YKI         0.0605
     43 H9          7.0897   16.2384   27.1519 H         1 YKI         0.0619
     44 H10         2.2380    9.8378   26.4400 H         1 YKI         0.0656
     45 H11         0.0503    9.2094   27.5556 H         1 YKI         0.0758
     46 H12         4.2780   12.8333   23.3103 H         1 YKI         0.0919
     47 H13         9.1944   11.8604   24.7501 H         1 YKI         0.0603
     48 H14         9.3260    9.7241   23.4294 H         1 YKI         0.0563
     49 H15         7.2140    8.7137   22.4436 H         1 YKI         0.0597
     50 H16         4.9958    9.8590   22.7730 H         1 YKI         0.0566
     51 H17        -2.5877   12.8247   22.5986 H         1 YKI         0.0983
     52 H18         0.0990   12.7524   22.4757 H         1 YKI         0.0310
@<TRIPOS>BOND
     1    1    2 ar 
     2    5    1 ar 
     3    3    2 ar 
     4   11    3 ar 
     5    7    4 1  
     6    4   11 1  
     7    9    5 ar 
     8    7    6 2  
     9    6    9 1  
    10   13    7 1  
    11    8   17 am 
    12   22    8 1  
    13    9   11 ar 
    14   21   10 ar 
    15   10   32 ar 
    16   32   12 1  
    17   12   33 1  
    18   16   13 ar 
    19   13   24 ar 
    20   14   15 ar 
    21   23   14 ar 
    22   15   16 ar 
    23   17   18 1  
    24   17   19 2  
    25   18   20 ar 
    26   18   31 ar 
    27   20   21 ar 
    28   22   23 1  
    29   22   25 1  
    30   23   24 ar 
    31   24   26 1  
    32   25   26 ar 
    33   25   30 ar 
    34   26   27 ar 
    35   27   28 ar 
    36   28   29 ar 
    37   29   30 ar 
    38   31   32 ar 
    39   31   34 1  
    40   33   34 2  
    41    1   35 1  
    42    3   36 1  
    43    4   37 1  
    44    5   38 1  
    45    8   39 1  
    46   12   40 1  
    47   14   41 1  
    48   15   42 1  
    49   16   43 1  
    50   20   44 1  
    51   21   45 1  
    52   22   46 1  
    53   27   47 1  
    54   28   48 1  
    55   29   49 1  
    56   30   50 1  
    57   33   51 1  
    58   34   52 1  
@<TRIPOS>SUBSTRUCTURE
     1 YKI         1

