### 
### Created by X-TOOL on Mon Sep 10 21:13:08 2018
### 

@<TRIPOS>MOLECULE
2ykj_ligand
   50    55     1     0     0
SMALL
GAST_HUCK


@<TRIPOS>ATOM
      1 C1         13.1630   14.5080   26.3330 C.ar      1 YKJ        -0.0069
      2 N1         12.9200   14.6840   27.6900 N.ar      1 YKJ        -0.3145
      3 C2         11.5990   14.7380   28.1430 C.ar      1 YKJ         0.0318
      4 N2          9.1460   14.6310   27.3570 N.pl3     1 YKJ        -0.2421
      5 C3         12.1340   14.3720   25.3770 C.ar      1 YKJ        -0.0358
      6 N3          9.6160   14.3480   25.2220 N.2       1 YKJ        -0.2951
      7 C4          8.6090   14.4700   26.1120 C.2       1 YKJ         0.1441
      8 N4          3.3120   11.8590   24.7590 N.am      1 YKJ        -0.2573
      9 C5         10.8140   14.4330   25.8440 C.ar      1 YKJ         0.0509
     10 N5         -1.4130   10.5800   26.2210 N.ar      1 YKJ        -0.2811
     11 C6         10.5250   14.6120   27.2460 C.ar      1 YKJ         0.1092
     12 N6         -0.0740    9.5580   27.8070 N.pl3     1 YKJ        -0.3214
     13 C7          7.2530   14.4660   25.8850 C.ar      1 YKJ         0.0361
     14 C8          4.3870   14.7330   25.5160 C.ar      1 YKJ        -0.0512
     15 C9          5.0990   15.7030   26.2880 C.ar      1 YKJ        -0.0623
     16 C10         6.5120   15.5570   26.4570 C.ar      1 YKJ        -0.0499
     17 C11         2.2180   11.7290   24.0010 C.2       1 YKJ         0.2160
     18 C12         0.8680   11.3390   24.7660 C.ar      1 YKJ         0.0579
     19 O13         2.1940   11.8880   22.7780 O.2       1 YKJ        -0.3792
     20 C14        -0.4190   11.6970   24.2800 C.ar      1 YKJ        -0.0288
     21 C15        -1.5390   11.2950   25.0410 C.ar      1 YKJ         0.0010
     22 C16         4.5710   12.6170   24.1690 C.3       1 YKJ         0.1114
     23 C17         5.0980   13.6430   24.9460 C.ar      1 YKJ         0.0063
     24 C18         6.5020   13.4600   25.0980 C.ar      1 YKJ         0.0013
     25 C19         5.6260   11.6830   23.7870 C.ar      1 YKJ         0.0021
     26 C20         6.8450   12.2630   24.3910 C.ar      1 YKJ        -0.0129
     27 C21         8.0800   11.5530   24.1790 C.ar      1 YKJ        -0.0610
     28 C22         8.1310   10.3300   23.4080 C.ar      1 YKJ        -0.0680
     29 C23         6.9300    9.7960   22.8360 C.ar      1 YKJ        -0.0680
     30 C24         5.6890   10.4860   23.0320 C.ar      1 YKJ        -0.0553
     31 C25         1.0380   10.5970   25.9870 C.ar      1 YKJ         0.0031
     32 C26        -0.1470   10.2460   26.6690 C.ar      1 YKJ         0.1140
     33 H          14.1974   14.4734   25.9910 H         1 YKJ         0.0705
     34 H          11.3995   14.8796   29.2052 H         1 YKJ         0.0763
     35 H           8.6193   14.7459   28.2229 H         1 YKJ         0.2328
     36 H          12.3564   14.2257   24.3200 H         1 YKJ         0.0643
     37 H           3.3352   11.4754   25.7038 H         1 YKJ         0.1913
     38 H           0.8352    9.2872   28.1818 H         1 YKJ         0.1766
     39 H          -0.9273    9.3019   28.3037 H         1 YKJ         0.1766
     40 H           3.3115   14.8285   25.3665 H         1 YKJ         0.0605
     41 H           4.5723   16.5425   26.7417 H         1 YKJ         0.0605
     42 H           7.0485   16.3031   27.0432 H         1 YKJ         0.0619
     43 H          -0.5372   12.2607   23.3546 H         1 YKJ         0.0644
     44 H          -2.5366   11.5562   24.6878 H         1 YKJ         0.0791
     45 H           4.1679   13.1175   23.2886 H         1 YKJ         0.0919
     46 H           9.0000   11.9473   24.6106 H         1 YKJ         0.0603
     47 H           9.0809    9.8156   23.2623 H         1 YKJ         0.0563
     48 H           6.9602    8.8731   22.2569 H         1 YKJ         0.0597
     49 H           4.7771   10.0823   22.5921 H         1 YKJ         0.0566
     50 H           2.0235   10.3222   26.3631 H         1 YKJ         0.0661
@<TRIPOS>BOND
     1    1    2 ar 
     2    5    1 ar 
     3    3    2 ar 
     4   11    3 ar 
     5    7    4 1  
     6    4   11 1  
     7    9    5 ar 
     8    7    6 2  
     9    6    9 1  
    10   13    7 1  
    11    8   17 am 
    12   22    8 1  
    13    9   11 ar 
    14   21   10 ar 
    15   10   32 ar 
    16   32   12 1  
    17   16   13 ar 
    18   13   24 ar 
    19   14   15 ar 
    20   23   14 ar 
    21   15   16 ar 
    22   17   18 1  
    23   17   19 2  
    24   18   20 ar 
    25   18   31 ar 
    26   20   21 ar 
    27   22   23 1  
    28   22   25 1  
    29   23   24 ar 
    30   24   26 1  
    31   25   26 ar 
    32   25   30 ar 
    33   26   27 ar 
    34   27   28 ar 
    35   28   29 ar 
    36   29   30 ar 
    37   31   32 ar 
    38    1   33 1  
    39    3   34 1  
    40    4   35 1  
    41    5   36 1  
    42    8   37 1  
    43   12   38 1  
    44   12   39 1  
    45   14   40 1  
    46   15   41 1  
    47   16   42 1  
    48   20   43 1  
    49   21   44 1  
    50   22   45 1  
    51   27   46 1  
    52   28   47 1  
    53   29   48 1  
    54   30   49 1  
    55   31   50 1  
@<TRIPOS>SUBSTRUCTURE
     1 YKJ         1

