### 
### Created by X-TOOL on Fri Sep 26 17:34:49 2014
### 

@<TRIPOS>MOLECULE
2yln_ligand
   14    13     1     0     0
SMALL
GAST_HUCK


@<TRIPOS>ATOM
      1 N           8.9780    2.6370   -2.0130 N.4       1 CYS         0.2333
      2 CA          7.5870    2.8690   -1.5720 C.3       1 CYS         0.0372
      3 C           7.3350    4.3570   -1.3250 C.2       1 CYS         0.0852
      4 O           8.3200    5.0330   -0.9570 O.co2     1 CYS        -0.5642
      5 CB          7.2870    2.1000   -0.2820 C.3       1 CYS         0.0457
      6 SG          7.4230    0.3220   -0.4480 S.3       1 CYS        -0.1708
      7 OXT         6.1700    4.7800   -1.4640 O.co2     1 CYS        -0.5642
      8 H1          9.1209    1.6515   -2.1694 H         1 CYS         0.2010
      9 H2          9.6145    2.9599   -1.3012 H         1 CYS         0.2010
     10 H3          9.1476    3.1412   -2.8692 H         1 CYS         0.2010
     11 H4          6.9073    2.5183   -2.3626 H         1 CYS         0.1032
     12 H5          6.2613    2.3407    0.0340 H         1 CYS         0.0448
     13 H6          7.9961    2.4308    0.4912 H         1 CYS         0.0448
     14 H7          7.2126   -0.1139    0.4362 H         1 CYS         0.1019
@<TRIPOS>BOND
     1    1    2 1  
     2    2    3 1  
     3    2    5 1  
     4    3    4 ar 
     5    3    7 ar 
     6    5    6 1  
     7    1    8 1  
     8    1    9 1  
     9    1   10 1  
    10    2   11 1  
    11    5   12 1  
    12    5   13 1  
    13    6   14 1  
@<TRIPOS>SUBSTRUCTURE
     1 CYS         1

