### 
### Created by X-TOOL on Mon Sep 10 21:13:07 2018
### 

@<TRIPOS>MOLECULE
2ylo_ligand
   53    56     1     0     0
SMALL
GAST_HUCK


@<TRIPOS>ATOM
      1 C01       -25.4820   19.6610  -27.7480 C.3       1 YLO        -0.0363
      2 C02       -24.4000   19.3000  -28.7640 C.ar      1 YLO        -0.0568
      3 C03       -23.9660   20.2130  -29.7310 C.ar      1 YLO        -0.0690
      4 C04       -22.9970   19.9350  -30.6880 C.ar      1 YLO        -0.0396
      5 C05       -22.4310   18.6860  -30.7340 C.ar      1 YLO         0.0842
      6 C06       -22.8600   17.7590  -29.7610 C.ar      1 YLO        -0.0396
      7 C07       -23.8260   18.0440  -28.7870 C.ar      1 YLO        -0.0690
      8 O08       -21.4640   18.3890  -31.7080 O.3       1 YLO        -0.3198
      9 C09       -20.8830   17.1320  -31.7450 C.3       1 YLO         0.0954
     10 C10       -19.5040   17.1470  -31.1800 C.3       1 YLO         0.0854
     11 N11       -18.7550   16.0240  -30.5940 N.pl3     1 YLO        -0.2206
     12 C12       -18.0020   16.1000  -29.4370 C.ar      1 YLO         0.0820
     13 C13       -17.7530   17.1060  -28.5190 C.ar      1 YLO        -0.0420
     14 C14       -16.9520   16.9330  -27.4310 C.ar      1 YLO        -0.0766
     15 C15       -16.3650   15.7180  -27.2160 C.ar      1 YLO        -0.0786
     16 C16       -16.6010   14.7160  -28.1310 C.ar      1 YLO        -0.0655
     17 C17       -17.4230   14.9030  -29.2500 C.ar      1 YLO         0.0217
     18 N18       -17.8030   14.0750  -30.2940 N.2       1 YLO        -0.3080
     19 C19       -18.6060   14.7750  -31.0920 C.2       1 YLO         0.1877
     20 S20       -19.2730   14.1180  -32.5060 S.3       1 YLO        -0.0334
     21 C21       -20.4160   12.7880  -32.2870 C.3       1 YLO         0.0442
     22 C22       -20.3470   11.8000  -33.4460 C.3       1 YLO         0.0823
     23 O23       -21.4760   11.6320  -34.2440 O.3       1 YLO        -0.3170
     24 C24       -21.7260   12.4660  -35.3130 C.ar      1 YLO         0.0911
     25 C25       -20.8520   12.5700  -36.3660 C.ar      1 YLO        -0.0331
     26 C26       -21.1240   13.4000  -37.4420 C.ar      1 YLO        -0.0706
     27 C27       -22.2970   14.1240  -37.4630 C.ar      1 YLO        -0.0729
     28 C28       -23.1700   14.0250  -36.4160 C.ar      1 YLO        -0.0706
     29 C29       -22.8990   13.1920  -35.3540 C.ar      1 YLO        -0.0331
     30 H         -25.1507   20.5122  -27.1533 H         1 YLO         0.0370
     31 H         -26.4010   19.9194  -28.2741 H         1 YLO         0.0370
     32 H         -25.6637   18.8080  -27.0941 H         1 YLO         0.0370
     33 H         -24.4164   21.2056  -29.7342 H         1 YLO         0.0530
     34 H         -22.6890   20.7037  -31.3968 H         1 YLO         0.0525
     35 H         -22.4145   16.7642  -29.7673 H         1 YLO         0.0525
     36 H         -24.1196   17.2872  -28.0596 H         1 YLO         0.0530
     37 H         -20.8252   16.8102  -32.7848 H         1 YLO         0.0638
     38 H         -21.4922   16.4537  -31.1475 H         1 YLO         0.0638
     39 H         -19.6411   17.7862  -30.3078 H         1 YLO         0.0629
     40 H         -18.9131   17.3506  -32.0730 H         1 YLO         0.0629
     41 H         -18.2185   18.0794  -28.6737 H         1 YLO         0.0541
     42 H         -16.7808   17.7566  -26.7379 H         1 YLO         0.0528
     43 H         -15.7295   15.5470  -26.3471 H         1 YLO         0.0516
     44 H         -16.1320   13.7438  -27.9793 H         1 YLO         0.0535
     45 H         -21.4238   13.2009  -32.2432 H         1 YLO         0.0438
     46 H         -20.1625   12.2612  -31.3671 H         1 YLO         0.0438
     47 H         -20.1786   10.8280  -32.9823 H         1 YLO         0.0624
     48 H         -19.5825   12.1970  -34.1138 H         1 YLO         0.0624
     49 H         -19.9289   11.9904  -36.3559 H         1 YLO         0.0542
     50 H         -20.4152   13.4798  -38.2662 H         1 YLO         0.0589
     51 H         -22.5268   14.7714  -38.3093 H         1 YLO         0.0523
     52 H         -24.0891   14.6109  -36.4220 H         1 YLO         0.0589
     53 H         -23.6170   13.1051  -34.5385 H         1 YLO         0.0542
@<TRIPOS>BOND
     1    1    2 1  
     2    2    3 ar 
     3    2    7 ar 
     4    3    4 ar 
     5    4    5 ar 
     6    5    6 ar 
     7    5    8 1  
     8    6    7 ar 
     9    8    9 1  
    10    9   10 1  
    11   10   11 1  
    12   11   12 1  
    13   11   19 1  
    14   12   13 ar 
    15   12   17 ar 
    16   13   14 ar 
    17   14   15 ar 
    18   15   16 ar 
    19   16   17 ar 
    20   17   18 1  
    21   18   19 2  
    22   19   20 1  
    23   20   21 1  
    24   21   22 1  
    25   22   23 1  
    26   23   24 1  
    27   24   25 ar 
    28   24   29 ar 
    29   25   26 ar 
    30   26   27 ar 
    31   27   28 ar 
    32   28   29 ar 
    33    1   30 1  
    34    1   31 1  
    35    1   32 1  
    36    3   33 1  
    37    4   34 1  
    38    6   35 1  
    39    7   36 1  
    40    9   37 1  
    41    9   38 1  
    42   10   39 1  
    43   10   40 1  
    44   13   41 1  
    45   14   42 1  
    46   15   43 1  
    47   16   44 1  
    48   21   45 1  
    49   21   46 1  
    50   22   47 1  
    51   22   48 1  
    52   25   49 1  
    53   26   50 1  
    54   27   51 1  
    55   28   52 1  
    56   29   53 1  
@<TRIPOS>SUBSTRUCTURE
     1 YLO         1

