### 
### Created by X-TOOL on Mon Sep 10 21:13:06 2018
### 

@<TRIPOS>MOLECULE
2ylp_ligand
   31    32     1     0     0
SMALL
GAST_HUCK


@<TRIPOS>ATOM
      1 O17        15.2720  -17.5170  -27.2950 O.co2     1 056        -0.5607
      2 C16        16.3300  -17.9240  -27.8080 C.2       1 056         0.0613
      3 O18        16.6260  -19.1370  -27.9140 O.co2     1 056        -0.5607
      4 C12        17.2520  -16.8630  -28.2850 C.ar      1 056         0.0035
      5 C11        17.9540  -16.9460  -29.4880 C.ar      1 056        -0.0455
      6 C10        18.7890  -15.8990  -29.8430 C.ar      1 056        -0.0296
      7 C15        18.8740  -14.8050  -29.0190 C.ar      1 056        -0.0570
      8 C14        18.1700  -14.7350  -27.8340 C.ar      1 056        -0.0649
      9 C13        17.3460  -15.7650  -27.4640 C.ar      1 056        -0.0545
     10 S8         19.4740  -14.1710  -31.6550 S.3       1 056        -0.1330
     11 C6         19.9340  -12.2450  -35.7860 C.ar      1 056        -0.0406
     12 C9         19.5990  -15.8520  -31.1140 C.3       1 056         0.0300
     13 C1         19.9070  -13.0510  -34.6470 C.ar      1 056         0.0426
     14 CL1        18.6430  -14.3410  -34.5580 Cl        1 056        -0.0771
     15 C2         20.9110  -12.7870  -33.5580 C.ar      1 056        -0.0187
     16 C7         21.0130  -13.5780  -32.2690 C.3       1 056         0.0302
     17 C3         21.8350  -11.7650  -33.7380 C.ar      1 056        -0.0583
     18 C4         21.8060  -11.0040  -34.8990 C.ar      1 056        -0.0544
     19 C5         20.8750  -11.2240  -35.9160 C.ar      1 056         0.0335
     20 CL2        20.8870  -10.1860  -37.3970 Cl        1 056        -0.0770
     21 H          17.8476  -17.8166  -30.1351 H         1 056         0.0590
     22 H          19.5133  -13.9707  -29.3075 H         1 056         0.0578
     23 H          18.2697  -13.8597  -27.1921 H         1 056         0.0606
     24 H          16.7759  -15.7146  -26.5363 H         1 056         0.0593
     25 H          19.2109  -12.4156  -36.5836 H         1 056         0.0612
     26 H          19.2268  -16.5515  -31.8625 H         1 056         0.0540
     27 H          20.6337  -16.1535  -30.9511 H         1 056         0.0540
     28 H          21.6314  -14.4509  -32.4779 H         1 056         0.0542
     29 H          21.4211  -12.9066  -31.5135 H         1 056         0.0542
     30 H          22.5808  -11.5612  -32.9697 H         1 056         0.0557
     31 H          22.5373  -10.2050  -35.0210 H         1 056         0.0607
@<TRIPOS>BOND
     1    2    1 ar 
     2    2    3 ar 
     3    4    2 1  
     4    5    4 ar 
     5    4    9 ar 
     6    6    5 ar 
     7    6    7 ar 
     8   12    6 1  
     9    7    8 ar 
    10    8    9 ar 
    11   10   12 1  
    12   16   10 1  
    13   13   11 ar 
    14   11   19 ar 
    15   13   14 1  
    16   15   13 ar 
    17   15   16 1  
    18   15   17 ar 
    19   17   18 ar 
    20   18   19 ar 
    21   19   20 1  
    22    5   21 1  
    23    7   22 1  
    24    8   23 1  
    25    9   24 1  
    26   11   25 1  
    27   12   26 1  
    28   12   27 1  
    29   16   28 1  
    30   16   29 1  
    31   17   30 1  
    32   18   31 1  
@<TRIPOS>SUBSTRUCTURE
     1 056         1

