### 
### Created by X-TOOL on Mon Sep 10 21:13:07 2018
### 

@<TRIPOS>MOLECULE
2ylq_ligand
   44    46     1     0     0
SMALL
GAST_HUCK


@<TRIPOS>ATOM
      1 C01        11.5980  -13.1890  -33.5290 C.3       1 YLQ        -0.0363
      2 C02        12.6370  -14.2550  -33.5740 C.ar      1 YLQ        -0.0568
      3 C03        12.4600  -15.4180  -32.8830 C.ar      1 YLQ        -0.0690
      4 C04        13.4700  -16.4470  -32.9520 C.ar      1 YLQ        -0.0396
      5 C05        14.6460  -16.2530  -33.7150 C.ar      1 YLQ         0.0842
      6 O06        15.6080  -17.2140  -33.7800 O.3       1 YLQ        -0.3198
      7 C07        16.1260  -17.8270  -32.6480 C.3       1 YLQ         0.0954
      8 C08        17.4860  -17.3990  -32.2430 C.3       1 YLQ         0.0854
      9 N09        17.7230  -16.6840  -30.9540 N.pl3     1 YLQ        -0.2206
     10 C10        18.6970  -15.7680  -30.7000 C.2       1 YLQ         0.1877
     11 S11        19.8340  -15.1870  -31.8810 S.3       1 YLQ        -0.0343
     12 C12        19.6500  -13.3830  -31.7530 C.3       1 YLQ         0.0279
     13 C13        20.1360  -12.4770  -32.8130 C.3       1 YLQ         0.0122
     14 C14        21.5840  -12.1500  -32.9290 C.2       1 YLQ         0.0358
     15 O15        22.4260  -12.7080  -32.2070 O.co2     1 YLQ        -0.5690
     16 O16        21.9490  -11.2930  -33.8030 O.co2     1 YLQ        -0.5690
     17 N17        18.6440  -15.3350  -29.4340 N.2       1 YLQ        -0.3080
     18 C18        17.6020  -15.9890  -28.8360 C.ar      1 YLQ         0.0217
     19 C19        17.1020  -15.9210  -27.5210 C.ar      1 YLQ        -0.0655
     20 C20        16.0200  -16.7200  -27.2120 C.ar      1 YLQ        -0.0786
     21 C21        15.4470  -17.5730  -28.1370 C.ar      1 YLQ        -0.0766
     22 C22        15.9410  -17.6510  -29.4520 C.ar      1 YLQ        -0.0420
     23 C23        17.0260  -16.8360  -29.7780 C.ar      1 YLQ         0.0820
     24 C24        14.8180  -15.0550  -34.4210 C.ar      1 YLQ        -0.0396
     25 C25        13.8350  -14.0660  -34.3570 C.ar      1 YLQ        -0.0690
     26 H          10.6583  -13.5827  -33.9164 H         1 YLQ         0.0370
     27 H          11.4591  -12.8621  -32.4985 H         1 YLQ         0.0370
     28 H          11.9188  -12.3447  -34.1392 H         1 YLQ         0.0370
     29 H          11.5625  -15.5690  -32.2832 H         1 YLQ         0.0530
     30 H          13.3255  -17.3823  -32.4113 H         1 YLQ         0.0525
     31 H          16.1956  -18.8898  -32.8798 H         1 YLQ         0.0638
     32 H          15.4631  -17.5605  -31.8248 H         1 YLQ         0.0638
     33 H          17.7678  -16.6697  -33.0024 H         1 YLQ         0.0629
     34 H          18.0313  -18.3356  -32.1268 H         1 YLQ         0.0629
     35 H          20.2604  -13.1212  -30.8887 H         1 YLQ         0.0429
     36 H          18.5705  -13.2319  -31.7581 H         1 YLQ         0.0429
     37 H          19.6643  -11.5214  -32.5840 H         1 YLQ         0.0441
     38 H          19.9064  -13.0032  -33.7395 H         1 YLQ         0.0441
     39 H          17.5517  -15.2635  -26.7770 H         1 YLQ         0.0535
     40 H          15.6035  -16.6772  -26.2056 H         1 YLQ         0.0516
     41 H          14.6006  -18.1938  -27.8433 H         1 YLQ         0.0528
     42 H          15.4943  -18.3210  -30.1866 H         1 YLQ         0.0541
     43 H          15.7160  -14.8959  -35.0180 H         1 YLQ         0.0525
     44 H          13.9743  -13.1355  -34.9074 H         1 YLQ         0.0530
@<TRIPOS>BOND
     1    1    2 1  
     2    2    3 ar 
     3    2   25 ar 
     4    3    4 ar 
     5    4    5 ar 
     6    5    6 1  
     7    5   24 ar 
     8    6    7 1  
     9    7    8 1  
    10    8    9 1  
    11    9   10 1  
    12    9   23 1  
    13   10   11 1  
    14   10   17 2  
    15   11   12 1  
    16   12   13 1  
    17   13   14 1  
    18   14   15 ar 
    19   14   16 ar 
    20   17   18 1  
    21   18   19 ar 
    22   18   23 ar 
    23   19   20 ar 
    24   20   21 ar 
    25   21   22 ar 
    26   22   23 ar 
    27   24   25 ar 
    28    1   26 1  
    29    1   27 1  
    30    1   28 1  
    31    3   29 1  
    32    4   30 1  
    33    7   31 1  
    34    7   32 1  
    35    8   33 1  
    36    8   34 1  
    37   12   35 1  
    38   12   36 1  
    39   13   37 1  
    40   13   38 1  
    41   19   39 1  
    42   20   40 1  
    43   21   41 1  
    44   22   42 1  
    45   24   43 1  
    46   25   44 1  
@<TRIPOS>SUBSTRUCTURE
     1 YLQ         1

