### 
### Created by X-TOOL on Mon Sep 10 21:13:09 2018
### 

@<TRIPOS>MOLECULE
2ym3_ligand
   42    44     1     0     0
SMALL
GAST_HUCK


@<TRIPOS>ATOM
      1 CAC        22.2250    0.5420    7.6120 C.3       1 YM3        -0.0373
      2 CAB        21.4860   -0.4410    8.4780 C.3       1 YM3         0.0724
      3 CAQ        19.2330   -0.8340    9.1380 C.2       1 YM3         0.2530
      4 CAR        17.8490   -0.2430    9.3050 C.ar      1 YM3         0.0962
      5 CAG        17.5540    0.9580    8.6710 C.ar      1 YM3         0.0054
      6 NAN        16.3360    1.5180    8.7870 N.ar      1 YM3        -0.2926
      7 CAU        15.3450    0.9100    9.5380 C.ar      1 YM3         0.1486
      8 NAO        14.0500    1.3100    9.7840 N.pl3     1 YM3        -0.2027
      9 NAM        13.4570    0.3710   10.5890 N.2       1 YM3        -0.2067
     10 CAH        14.3570   -0.6000   10.8510 C.2       1 YM3         0.0256
     11 CAT        15.5780   -0.2830   10.1910 C.ar      1 YM3         0.0633
     12 CAS        16.8440   -0.8850   10.0840 C.ar      1 YM3         0.0864
     13 NAV        17.1060   -2.1610   10.7740 N.pl3     1 YM3        -0.2888
     14 CAL        17.7960   -2.2210   11.9980 C.3       1 YM3         0.0641
     15 CAK        16.0950   -3.1360   10.6730 C.3       1 YM3         0.0563
     16 CAJ        16.5880   -4.5080   10.9810 C.3       1 YM3         0.0691
     17 OAP        17.2620   -4.5720   12.2070 O.3       1 YM3        -0.3672
     18 CAW        18.2610   -3.5950   12.3590 C.3       1 YM3         0.1188
     19 CAI        19.5010   -3.9670   11.5570 C.3       1 YM3        -0.0065
     20 NAA        20.1940   -5.1490   11.9390 N.4       1 YM3         0.2204
     21 O03        20.3480   -0.0030    9.1070 O.3       1 YM3        -0.2808
     22 O05        19.3760   -2.0390    9.0040 O.2       1 YM3        -0.3682
     23 H          21.5682    0.8857    6.8129 H         1 YM3         0.0255
     24 H          22.5393    1.3926    8.2169 H         1 YM3         0.0255
     25 H          23.1011    0.0576    7.1809 H         1 YM3         0.0255
     26 H          22.1786   -0.7058    9.2769 H         1 YM3         0.0608
     27 H          21.1619   -1.2365    7.8070 H         1 YM3         0.0608
     28 H          18.3189    1.4525    8.0723 H         1 YM3         0.0804
     29 H          13.6083    2.1580    9.4288 H         1 YM3         0.2487
     30 H          14.1785   -1.4817   11.4665 H         1 YM3         0.0728
     31 H          17.1068   -1.8950   12.7770 H         1 YM3         0.0556
     32 H          18.6809   -1.5915   11.9044 H         1 YM3         0.0556
     33 H          15.7290   -3.1341    9.6463 H         1 YM3         0.0551
     34 H          15.3178   -2.8890   11.3962 H         1 YM3         0.0551
     35 H          17.2872   -4.7984   10.1969 H         1 YM3         0.0581
     36 H          15.7249   -5.1714   11.0363 H         1 YM3         0.0581
     37 H          18.5122   -3.5706   13.4194 H         1 YM3         0.0671
     38 H          20.2062   -3.1496   11.7075 H         1 YM3         0.0839
     39 H          19.1523   -4.1449   10.5397 H         1 YM3         0.0839
     40 H          20.9988   -5.2828   11.3267 H         1 YM3         0.1995
     41 H          20.5109   -5.0589   12.9043 H         1 YM3         0.1995
     42 H          19.5675   -5.9499   11.8589 H         1 YM3         0.1995
@<TRIPOS>BOND
     1    2    1 1  
     2   21    2 1  
     3    3    4 1  
     4    3   21 1  
     5    3   22 2  
     6    4    5 ar 
     7    4   12 ar 
     8    5    6 ar 
     9    6    7 ar 
    10    7    8 1  
    11    7   11 ar 
    12    8    9 1  
    13    9   10 2  
    14   10   11 1  
    15   11   12 ar 
    16   12   13 1  
    17   13   14 1  
    18   13   15 1  
    19   14   18 1  
    20   15   16 1  
    21   16   17 1  
    22   17   18 1  
    23   18   19 1  
    24   19   20 1  
    25    1   23 1  
    26    1   24 1  
    27    1   25 1  
    28    2   26 1  
    29    2   27 1  
    30    5   28 1  
    31    8   29 1  
    32   10   30 1  
    33   14   31 1  
    34   14   32 1  
    35   15   33 1  
    36   15   34 1  
    37   16   35 1  
    38   16   36 1  
    39   18   37 1  
    40   19   38 1  
    41   19   39 1  
    42   20   40 1  
    43   20   41 1  
    44   20   42 1  
@<TRIPOS>SUBSTRUCTURE
     1 YM3         1

