### 
### Created by X-TOOL on Mon Sep 10 21:13:10 2018
### 

@<TRIPOS>MOLECULE
2ym4_ligand
   53    56     1     0     0
SMALL
GAST_HUCK


@<TRIPOS>ATOM
      1 C01        21.2950    0.4780    7.4970 C.3       1 4YM        -0.0373
      2 C02        20.6870   -0.7620    8.0660 C.3       1 4YM         0.0724
      3 O03        19.9370   -0.6480    9.2140 O.3       1 4YM        -0.2808
      4 C04        18.7820   -1.3940    9.3220 C.2       1 4YM         0.2532
      5 O05        18.8350   -2.6090    9.2660 O.2       1 4YM        -0.3680
      6 C06        17.4850   -0.6730    9.4500 C.ar      1 4YM         0.0963
      7 C07        17.3620    0.4930    8.6890 C.ar      1 4YM         0.0058
      8 N08        16.2390    1.2250    8.7260 N.ar      1 4YM        -0.2918
      9 C09        15.1710    0.8480    9.5140 C.ar      1 4YM         0.1507
     10 N10        13.9550    1.4870    9.6610 N.pl3     1 4YM        -0.2010
     11 N11        13.2000    0.7680   10.5380 N.2       1 4YM        -0.1975
     12 C12        13.9180   -0.2960   10.9430 C.2       1 4YM         0.0713
     13 C13        13.4460   -1.2410   11.8270 C.ar      1 4YM         0.0028
     14 C14        14.3050   -2.1330   12.4450 C.ar      1 4YM        -0.0458
     15 C15        13.8160   -3.0860   13.3290 C.ar      1 4YM        -0.0510
     16 C16        12.4620   -3.1460   13.5990 C.ar      1 4YM        -0.0277
     17 C17        11.6010   -2.2570   12.9840 C.ar      1 4YM         0.0957
     18 C18        10.1480   -2.3260   13.2780 C.1       1 4YM         0.1005
     19 N19         9.0410   -2.3810   13.5050 N.1       1 4YM        -0.3282
     20 C20        12.0890   -1.3030   12.0960 C.ar      1 4YM        -0.0192
     21 C21        15.2080   -0.2880   10.2960 C.ar      1 4YM         0.0716
     22 C22        16.4150   -1.0830   10.2750 C.ar      1 4YM         0.0868
     23 N23        16.5280   -2.2990   11.0620 N.pl3     1 4YM        -0.2892
     24 C24        16.3890   -3.4150   10.2160 C.3       1 4YM         0.0561
     25 C25        16.4190   -4.6710   11.0150 C.3       1 4YM         0.0691
     26 O26        17.5970   -4.7630   11.7670 O.3       1 4YM        -0.3672
     27 C27        17.8520   -3.6440   12.5810 C.3       1 4YM         0.1187
     28 C28        16.9660   -3.6660   13.7940 C.3       1 4YM        -0.0065
     29 N29        17.0230   -2.3840   14.4490 N.4       1 4YM         0.2204
     30 C30        17.6910   -2.3430   11.8520 C.3       1 4YM         0.0639
     31 H          20.5056    1.1878    7.2500 H         1 4YM         0.0255
     32 H          21.9674    0.9215    8.2314 H         1 4YM         0.0255
     33 H          21.8542    0.2264    6.5958 H         1 4YM         0.0255
     34 H          21.5296   -1.3994    8.3341 H         1 4YM         0.0608
     35 H          19.9949   -1.1198    7.3037 H         1 4YM         0.0608
     36 H          18.1906    0.8118    8.0566 H         1 4YM         0.0805
     37 H          13.6715    2.3482    9.1937 H         1 4YM         0.2506
     38 H          15.3738   -2.0872   12.2362 H         1 4YM         0.0687
     39 H          14.4996   -3.7860   13.8094 H         1 4YM         0.0639
     40 H          12.0749   -3.8912   14.2939 H         1 4YM         0.0711
     41 H          11.4043   -0.6058   11.6131 H         1 4YM         0.0722
     42 H          17.2120   -3.4264    9.5014 H         1 4YM         0.0551
     43 H          15.4364   -3.3485    9.6904 H         1 4YM         0.0551
     44 H          16.3742   -5.5195   10.3323 H         1 4YM         0.0581
     45 H          15.5690   -4.6704   11.6974 H         1 4YM         0.0581
     46 H          18.8961   -3.7122   12.8866 H         1 4YM         0.0671
     47 H          17.3062   -4.4416   14.4801 H         1 4YM         0.0839
     48 H          15.9399   -3.8762   13.4924 H         1 4YM         0.0839
     49 H          16.4218   -2.3975   15.2729 H         1 4YM         0.1995
     50 H          17.9839   -2.1900   14.7309 H         1 4YM         0.1995
     51 H          16.7035   -1.6601   13.8053 H         1 4YM         0.1995
     52 H          17.6178   -1.5506   12.5969 H         1 4YM         0.0556
     53 H          18.5484   -2.2241   11.1895 H         1 4YM         0.0556
@<TRIPOS>BOND
     1    1    2 1  
     2    2    3 1  
     3    3    4 1  
     4    4    5 2  
     5    4    6 1  
     6    6    7 ar 
     7    6   22 ar 
     8    7    8 ar 
     9    8    9 ar 
    10    9   10 1  
    11    9   21 ar 
    12   10   11 1  
    13   11   12 2  
    14   12   13 1  
    15   12   21 1  
    16   13   14 ar 
    17   13   20 ar 
    18   14   15 ar 
    19   15   16 ar 
    20   16   17 ar 
    21   17   18 1  
    22   17   20 ar 
    23   18   19 3  
    24   21   22 ar 
    25   22   23 1  
    26   23   24 1  
    27   23   30 1  
    28   24   25 1  
    29   25   26 1  
    30   26   27 1  
    31   27   28 1  
    32   27   30 1  
    33   28   29 1  
    34    1   31 1  
    35    1   32 1  
    36    1   33 1  
    37    2   34 1  
    38    2   35 1  
    39    7   36 1  
    40   10   37 1  
    41   14   38 1  
    42   15   39 1  
    43   16   40 1  
    44   20   41 1  
    45   24   42 1  
    46   24   43 1  
    47   25   44 1  
    48   25   45 1  
    49   27   46 1  
    50   28   47 1  
    51   28   48 1  
    52   29   49 1  
    53   29   50 1  
    54   29   51 1  
    55   30   52 1  
    56   30   53 1  
@<TRIPOS>SUBSTRUCTURE
     1 4YM         1

