### 
### Created by X-TOOL on Mon Sep 10 21:13:09 2018
### 

@<TRIPOS>MOLECULE
2ym5_ligand
   47    50     1     0     0
SMALL
GAST_HUCK


@<TRIPOS>ATOM
      1 N01        20.2470   -5.0230   12.9460 N.4       1 YM5         0.2204
      2 C02        19.9020   -4.0530   11.9660 C.3       1 YM5        -0.0065
      3 C03        18.4250   -3.4730   12.0110 C.3       1 YM5         0.1187
      4 C04        18.2640   -2.3480   11.0400 C.3       1 YM5         0.0642
      5 N05        16.9510   -1.8510   11.1470 N.pl3     1 YM5        -0.2829
      6 C06        16.7990   -0.6780   10.3210 C.ar      1 YM5         0.1227
      7 N07        17.8950   -0.2440    9.6290 N.ar      1 YM5        -0.2722
      8 C08        17.8750    0.8650    8.8060 C.ar      1 YM5         0.0510
      9 N09        16.7490    1.5590    8.6730 N.ar      1 YM5        -0.2755
     10 C10        15.5900    1.1810    9.3540 C.ar      1 YM5         0.1398
     11 N11        14.3850    1.7450    9.3460 N.pl3     1 YM5        -0.2602
     12 C12        13.5250    1.0170   10.1900 C.2       1 YM5         0.0417
     13 C13        14.2340   -0.0180   10.7050 C.2       1 YM5        -0.0049
     14 C14        13.7230   -0.9520   11.6200 C.ar      1 YM5        -0.0450
     15 C15        12.4190   -1.4870   11.4300 C.ar      1 YM5        -0.0700
     16 C16        11.9000   -2.3570   12.3310 C.ar      1 YM5        -0.0740
     17 C17        12.6440   -2.7310   13.4900 C.ar      1 YM5        -0.0636
     18 C18        13.9410   -2.1810   13.6970 C.ar      1 YM5        -0.0237
     19 C19        14.7680   -2.5850   14.9630 C.3       1 YM5         0.0768
     20 O20        14.9130   -1.6290   15.9930 O.3       1 YM5        -0.3826
     21 C21        14.4590   -1.3060   12.8010 C.ar      1 YM5        -0.0601
     22 C22        15.5890    0.0480   10.2000 C.ar      1 YM5         0.0555
     23 C23        16.0370   -2.8570   10.7620 C.3       1 YM5         0.0564
     24 C24        16.1480   -4.0180   11.7010 C.3       1 YM5         0.0691
     25 O25        17.4700   -4.4970   11.7910 O.3       1 YM5        -0.3672
     26 H          21.2153   -5.3130   12.8094 H         1 YM5         0.1995
     27 H          20.1401   -4.6179   13.8760 H         1 YM5         0.1995
     28 H          19.6323   -5.8317   12.8534 H         1 YM5         0.1995
     29 H          19.9934   -4.5575   11.0041 H         1 YM5         0.0839
     30 H          20.5602   -3.2029   12.1454 H         1 YM5         0.0839
     31 H          18.2467   -3.0716   13.0086 H         1 YM5         0.0671
     32 H          18.4464   -2.7027   10.0256 H         1 YM5         0.0556
     33 H          18.9807   -1.5577   11.2635 H         1 YM5         0.0556
     34 H          18.7745    1.1685    8.2703 H         1 YM5         0.0982
     35 H          14.1251    2.5745    8.8123 H         1 YM5         0.2352
     36 H          12.4784    1.2442   10.3929 H         1 YM5         0.0997
     37 H          11.8348   -1.1965   10.5568 H         1 YM5         0.0514
     38 H          10.9062   -2.7743   12.1688 H         1 YM5         0.0585
     39 H          12.2229   -3.4319   14.2108 H         1 YM5         0.0513
     40 H          15.7782   -2.7748   14.6002 H         1 YM5         0.0720
     41 H          14.2219   -3.4142   15.4128 H         1 YM5         0.0720
     42 H          15.4381   -2.0035   16.7040 H         1 YM5         0.2126
     43 H          15.4412   -0.8679   12.9781 H         1 YM5         0.0505
     44 H          16.2650   -3.1865    9.7483 H         1 YM5         0.0551
     45 H          15.0230   -2.4586   10.7951 H         1 YM5         0.0551
     46 H          15.5177   -4.8235   11.3242 H         1 YM5         0.0581
     47 H          15.8364   -3.6871   12.6917 H         1 YM5         0.0581
@<TRIPOS>BOND
     1    1    2 1  
     2    2    3 1  
     3    3    4 1  
     4    3   25 1  
     5    4    5 1  
     6    5    6 1  
     7    5   23 1  
     8    6    7 ar 
     9    6   22 ar 
    10    7    8 ar 
    11    8    9 ar 
    12    9   10 ar 
    13   10   11 1  
    14   10   22 ar 
    15   11   12 1  
    16   12   13 2  
    17   13   14 1  
    18   13   22 1  
    19   14   15 ar 
    20   14   21 ar 
    21   15   16 ar 
    22   16   17 ar 
    23   17   18 ar 
    24   18   19 1  
    25   18   21 ar 
    26   19   20 1  
    27   23   24 1  
    28   24   25 1  
    29    1   26 1  
    30    1   27 1  
    31    1   28 1  
    32    2   29 1  
    33    2   30 1  
    34    3   31 1  
    35    4   32 1  
    36    4   33 1  
    37    8   34 1  
    38   11   35 1  
    39   12   36 1  
    40   15   37 1  
    41   16   38 1  
    42   17   39 1  
    43   19   40 1  
    44   19   41 1  
    45   20   42 1  
    46   21   43 1  
    47   23   44 1  
    48   23   45 1  
    49   24   46 1  
    50   24   47 1  
@<TRIPOS>SUBSTRUCTURE
     1 YM5         1

