### 
### Created by X-TOOL on Mon Sep 10 21:13:09 2018
### 

@<TRIPOS>MOLECULE
2ym6_ligand
   38    41     1     0     0
SMALL
GAST_HUCK


@<TRIPOS>ATOM
      1 N1         17.8290   -0.4760    9.6120 N.ar      1 YM6        -0.2662
      2 C2         17.7470    0.5970    8.8490 C.ar      1 YM6         0.0573
      3 N3         16.6470    1.3280    8.8310 N.ar      1 YM6        -0.2674
      4 C4         15.5870    0.9930    9.5770 C.ar      1 YM6         0.1442
      5 C5         15.6230   -0.1520   10.3620 C.ar      1 YM6         0.0744
      6 C6         16.8280   -0.8470   10.4280 C.ar      1 YM6         0.1291
      7 NAA        18.4180   -3.2790   14.9140 N.4       1 YM6         0.2204
      8 CAB        12.4990   -0.7880   12.3870 C.ar      1 YM6        -0.0049
      9 CAD        13.7990   -1.0460   11.9520 C.ar      1 YM6        -0.0420
     10 CAE        12.3600    1.0920   11.0600 C.ar      1 YM6         0.0321
     11 CAF        18.2920   -2.5410   13.6460 C.3       1 YM6        -0.0065
     12 CAG        16.1110   -3.7530   12.6210 C.3       1 YM6         0.0691
     13 CAH        15.9270   -3.0090   11.3110 C.3       1 YM6         0.0567
     14 CAI        18.3350   -2.6990   11.1220 C.3       1 YM6         0.0645
     15 NAJ        11.8250    0.2600   11.9410 N.ar      1 YM6        -0.3120
     16 NAM        14.3950    1.5750    9.7210 N.pl3     1 YM6        -0.2510
     17 OAN        17.3590   -4.4590   12.6070 O.3       1 YM6        -0.3672
     18 CAP        13.6470    0.8870   10.5820 C.ar      1 YM6         0.0974
     19 CAQ        14.3930   -0.1920   11.0320 C.ar      1 YM6         0.0227
     20 CAT        18.4300   -3.4880   12.4350 C.3       1 YM6         0.1188
     21 NAU        17.0220   -2.0470   11.1080 N.pl3     1 YM6        -0.2817
     22 H          18.5953    0.8832    8.2273 H         1 YM6         0.1035
     23 H          18.3230   -2.6296   15.6948 H         1 YM6         0.1995
     24 H          17.6858   -3.9871   14.9681 H         1 YM6         0.1995
     25 H          19.3322   -3.7296   14.9543 H         1 YM6         0.1995
     26 H          12.0307   -1.4604   13.1058 H         1 YM6         0.0708
     27 H          14.3440   -1.9106   12.3310 H         1 YM6         0.0660
     28 H          11.7834    1.9468   10.7066 H         1 YM6         0.0758
     29 H          19.0848   -1.7946   13.5969 H         1 YM6         0.0839
     30 H          17.3085   -2.0724   13.6117 H         1 YM6         0.0839
     31 H          15.2955   -4.4648   12.7490 H         1 YM6         0.0581
     32 H          16.1100   -3.0388   13.4445 H         1 YM6         0.0581
     33 H          14.9809   -2.4685   11.3400 H         1 YM6         0.0551
     34 H          15.9299   -3.7277   10.4915 H         1 YM6         0.0551
     35 H          18.4453   -3.3626   10.2644 H         1 YM6         0.0556
     36 H          19.1334   -1.9598   11.0575 H         1 YM6         0.0556
     37 H          14.0991    2.4248    9.2407 H         1 YM6         0.2248
     38 H          19.3962   -3.9898   12.3836 H         1 YM6         0.0671
@<TRIPOS>BOND
     1    1    2 ar 
     2    6    1 ar 
     3    2    3 ar 
     4    4    3 ar 
     5    5    4 ar 
     6    4   16 1  
     7    6    5 ar 
     8    5   19 1  
     9   21    6 1  
    10   11    7 1  
    11    9    8 ar 
    12    8   15 ar 
    13   19    9 ar 
    14   15   10 ar 
    15   10   18 ar 
    16   20   11 1  
    17   13   12 1  
    18   12   17 1  
    19   21   13 1  
    20   14   20 1  
    21   14   21 1  
    22   16   18 1  
    23   17   20 1  
    24   18   19 ar 
    25    2   22 1  
    26    7   23 1  
    27    7   24 1  
    28    7   25 1  
    29    8   26 1  
    30    9   27 1  
    31   10   28 1  
    32   11   29 1  
    33   11   30 1  
    34   12   31 1  
    35   12   32 1  
    36   13   33 1  
    37   13   34 1  
    38   14   35 1  
    39   14   36 1  
    40   16   37 1  
    41   20   38 1  
@<TRIPOS>SUBSTRUCTURE
     1 YM6         1

