### 
### Created by X-TOOL on Mon Sep 10 21:13:09 2018
### 

@<TRIPOS>MOLECULE
2ym7_ligand
   42    44     1     0     0
SMALL
GAST_HUCK


@<TRIPOS>ATOM
      1 CAI        18.4680   -2.6320   12.8770 C.3       1 YM7        -0.0077
      2 CAG        18.1130   -2.5210   14.3330 C.3       1 YM7        -0.0334
      3 NAP        17.4430   -3.7140   14.8150 N.4       1 YM7         0.2270
      4 CAH        16.2640   -4.0430   14.0080 C.3       1 YM7        -0.0334
      5 CAJ        16.5820   -4.1300   12.5420 C.3       1 YM7        -0.0077
      6 CAW        17.2890   -2.9440   12.0570 C.3       1 YM7        -0.0111
      7 CAK        17.7380   -3.1580   10.5620 C.3       1 YM7         0.0318
      8 NAQ        18.5570   -2.1370    9.9390 N.pl3     1 YM7        -0.3040
      9 C6         17.9950   -0.8370    9.4810 C.ar      1 YM7         0.1153
     10 C5         16.5890   -0.4980    9.7230 C.ar      1 YM7         0.0281
     11 N1         18.7800    0.0120    8.8110 N.ar      1 YM7        -0.2673
     12 C2         18.2820    1.1880    8.3480 C.ar      1 YM7         0.0595
     13 N3         16.9250    1.5520    8.5670 N.ar      1 YM7        -0.2636
     14 C4         16.1070    0.7530    9.2300 C.ar      1 YM7         0.1404
     15 NAR        14.8090    1.1580    9.4230 N.pl3     1 YM7        -0.2303
     16 CAT        13.8640    0.5370   10.3700 C.ar      1 YM7         0.1775
     17 CAE        12.7430    1.2820   10.8050 C.ar      1 YM7         0.0769
     18 NAN        11.8460    0.7270   11.6580 N.ar      1 YM7        -0.2487
     19 CAS        12.0330   -0.5250   12.0800 C.ar      1 YM7         0.1849
     20 CAB        11.0470   -1.1710   12.9890 C.1       1 YM7         0.1192
     21 NAA        10.2720   -1.6600   13.6530 N.1       1 YM7        -0.3255
     22 CAD        13.1680   -1.2860   11.6330 C.ar      1 YM7         0.0630
     23 NAO        14.0500   -0.7370   10.7950 N.ar      1 YM7        -0.2422
     24 H          19.1933   -3.4371   12.7590 H         1 YM7         0.0320
     25 H          18.8747   -1.6760   12.5471 H         1 YM7         0.0320
     26 H          17.4382   -1.6742   14.4581 H         1 YM7         0.0814
     27 H          19.0337   -2.3909   14.9018 H         1 YM7         0.0814
     28 H          17.1373   -3.5440   15.7732 H         1 YM7         0.2013
     29 H          18.0978   -4.4939   14.7572 H         1 YM7         0.2013
     30 H          15.5273   -3.2519   14.1477 H         1 YM7         0.0814
     31 H          15.8935   -5.0156   14.3318 H         1 YM7         0.0814
     32 H          15.6422   -4.2109   11.9958 H         1 YM7         0.0320
     33 H          17.2259   -4.9955   12.3859 H         1 YM7         0.0320
     34 H          16.5976   -2.1041   12.1251 H         1 YM7         0.0324
     35 H          16.8138   -3.1767    9.9845 H         1 YM7         0.0524
     36 H          18.3570   -4.0551   10.5737 H         1 YM7         0.0524
     37 H          19.5529   -2.3156    9.8100 H         1 YM7         0.1834
     38 H          15.9317   -1.1798   10.2626 H         1 YM7         0.0576
     39 H          18.9351    1.8656    7.7981 H         1 YM7         0.1048
     40 H          14.4735    1.9469    8.8703 H         1 YM7         0.2248
     41 H          12.5997    2.3040   10.4541 H         1 YM7         0.0884
     42 H          13.3081   -2.3104   11.9782 H         1 YM7         0.0988
@<TRIPOS>BOND
     1    1    2 1  
     2    1    6 1  
     3    2    3 1  
     4    3    4 1  
     5    4    5 1  
     6    5    6 1  
     7    6    7 1  
     8    7    8 1  
     9    8    9 1  
    10    9   10 ar 
    11    9   11 ar 
    12   10   14 ar 
    13   11   12 ar 
    14   12   13 ar 
    15   13   14 ar 
    16   14   15 1  
    17   15   16 1  
    18   16   17 ar 
    19   16   23 ar 
    20   17   18 ar 
    21   18   19 ar 
    22   19   20 1  
    23   19   22 ar 
    24   20   21 3  
    25   22   23 ar 
    26    1   24 1  
    27    1   25 1  
    28    2   26 1  
    29    2   27 1  
    30    3   28 1  
    31    3   29 1  
    32    4   30 1  
    33    4   31 1  
    34    5   32 1  
    35    5   33 1  
    36    6   34 1  
    37    7   35 1  
    38    7   36 1  
    39    8   37 1  
    40   10   38 1  
    41   12   39 1  
    42   15   40 1  
    43   17   41 1  
    44   22   42 1  
@<TRIPOS>SUBSTRUCTURE
     1 YM7         1

