### 
### Created by X-TOOL on Mon Sep 10 21:13:08 2018
### 

@<TRIPOS>MOLECULE
2ymd_ligand
   26    27     1     0     0
SMALL
GAST_HUCK


@<TRIPOS>ATOM
      1 OH         13.3780   10.1350   11.2250 O.3       1 SRO        -0.3421
      2 CZ3        13.4310    9.8820    9.8610 C.ar      1 SRO         0.0693
      3 CH2        14.4460   10.4260    9.0570 C.ar      1 SRO        -0.0459
      4 CZ2        14.4950   10.1570    7.6890 C.ar      1 SRO        -0.0495
      5 CE2        13.5050    9.3390    7.0960 C.ar      1 SRO         0.0512
      6 NE1        13.3170    8.9130    5.7900 N.pl3     1 SRO        -0.2936
      7 CD1        12.2180    8.1310    5.7330 C.2       1 SRO         0.0142
      8 CG         11.6900    8.0390    7.0200 C.2       1 SRO        -0.0452
      9 CD2        12.5130    8.8020    7.8810 C.ar      1 SRO        -0.0312
     10 CE3        12.4670    9.0660    9.2710 C.ar      1 SRO        -0.0489
     11 CB         10.4800    7.2870    7.4570 C.3       1 SRO         0.0032
     12 CA         10.4300    5.8300    7.1780 C.3       1 SRO        -0.0314
     13 NZ         11.4690    5.0270    7.7460 N.4       1 SRO         0.2194
     14 H1         14.1748    9.8203   11.6355 H         1 SRO         0.2441
     15 H2         15.2005   11.0626    9.5049 H         1 SRO         0.0481
     16 H3         15.2902   10.5740    7.0817 H         1 SRO         0.0526
     17 H4         13.9198    9.1547    4.9906 H         1 SRO         0.2193
     18 H5         11.8152    7.6560    4.8397 H         1 SRO         0.0790
     19 H6         11.6804    8.6326    9.8780 H         1 SRO         0.0435
     20 H7          9.6121    7.7456    6.9606 H         1 SRO         0.0399
     21 H8         10.3899    7.4154    8.5457 H         1 SRO         0.0399
     22 H9         10.4677    5.6990    6.0865 H         1 SRO         0.0828
     23 H10         9.4706    5.4510    7.5599 H         1 SRO         0.0828
     24 H11        11.3275    4.0629    7.4880 H         1 SRO         0.1995
     25 H12        11.4489    5.1125    8.7502 H         1 SRO         0.1995
     26 H13        12.3626    5.3397    7.4000 H         1 SRO         0.1995
@<TRIPOS>BOND
     1    1    2 1  
     2    2    3 ar 
     3    2   10 ar 
     4    3    4 ar 
     5    4    5 ar 
     6    5    6 1  
     7    5    9 ar 
     8    6    7 1  
     9    7    8 2  
    10    8    9 1  
    11    8   11 1  
    12    9   10 ar 
    13   11   12 1  
    14   12   13 1  
    15    1   14 1  
    16    3   15 1  
    17    4   16 1  
    18    6   17 1  
    19    7   18 1  
    20   10   19 1  
    21   11   20 1  
    22   11   21 1  
    23   12   22 1  
    24   12   23 1  
    25   13   24 1  
    26   13   25 1  
    27   13   26 1  
@<TRIPOS>SUBSTRUCTURE
     1 SRO         1

