### 
### Created by X-TOOL on Mon Sep 10 21:13:09 2018
### 

@<TRIPOS>MOLECULE
2yme_ligand
   48    51     1     0     0
SMALL
GAST_HUCK


@<TRIPOS>ATOM
      1 O13       -10.1950   70.8590    2.2680 O.2       1 CWB        -0.3860
      2 C12       -11.4300   70.8440    2.4440 C.2       1 CWB         0.2145
      3 C14       -12.3710   70.9230    1.2130 C.2       1 CWB         0.1352
      4 C23       -11.9560   71.0490   -0.2170 C.ar      1 CWB         0.0276
      5 C22       -10.7240   71.1210   -0.8900 C.ar      1 CWB        -0.0627
      6 C21       -10.7010   71.2420   -2.3000 C.ar      1 CWB        -0.0720
      7 C20       -11.9120   71.2900   -3.0290 C.ar      1 CWB        -0.0700
      8 C19       -13.1490   71.2190   -2.3530 C.ar      1 CWB        -0.0339
      9 C18       -13.1790   71.0990   -0.9550 C.ar      1 CWB         0.0954
     10 N16       -14.2180   71.0080   -0.0400 N.pl3     1 CWB        -0.1939
     11 C17       -15.6430   71.0240   -0.3810 C.3       1 CWB         0.0584
     12 N15       -13.7210   70.9080    1.2190 N.2       1 CWB        -0.1735
     13 N11       -12.0110   70.5740    3.7640 N.am      1 CWB        -0.2826
     14 C09       -11.2720   70.6890    5.0280 C.3       1 CWB         0.0516
     15 C10       -10.3070   69.6320    5.1360 C.3       1 CWB         0.0135
     16 C03        -8.8520   70.0060    5.2100 C.3       1 CWB        -0.0187
     17 C08       -10.7980   72.1050    5.2030 C.3       1 CWB         0.0135
     18 C07        -9.3280   72.3590    5.2260 C.3       1 CWB        -0.0187
     19 N02        -8.5250   71.3280    4.6390 N.4       1 CWB         0.2375
     20 C01        -7.1730   71.7180    4.4700 C.3       1 CWB        -0.0426
     21 C06        -8.8360   72.5560    6.6680 C.3       1 CWB        -0.0094
     22 C05        -8.8790   71.2260    7.4300 C.3       1 CWB        -0.0429
     23 C04        -8.3810   70.0550    6.6120 C.3       1 CWB        -0.0094
     24 H1         -9.7956   71.0840   -0.3316 H         1 CWB         0.0589
     25 H2         -9.7529   71.2980   -2.8224 H         1 CWB         0.0536
     26 H3        -11.8901   71.3815   -4.1089 H         1 CWB         0.0580
     27 H4        -14.0760   71.2572   -2.9137 H         1 CWB         0.0563
     28 H5        -16.2409   70.9370    0.5382 H         1 CWB         0.0586
     29 H6        -15.8701   70.1789   -1.0475 H         1 CWB         0.0586
     30 H7        -15.8878   71.9681   -0.8896 H         1 CWB         0.0586
     31 H8        -12.9702   70.2942    3.8056 H         1 CWB         0.1847
     32 H9        -11.9906   70.5146    5.8424 H         1 CWB         0.0559
     33 H10       -10.4332   68.9834    4.2566 H         1 CWB         0.0342
     34 H11       -10.5450   69.0642    6.0476 H         1 CWB         0.0342
     35 H12        -8.2855   69.2380    4.6630 H         1 CWB         0.0852
     36 H13       -11.2069   72.4703    6.1566 H         1 CWB         0.0342
     37 H14       -11.2177   72.6942    4.3743 H         1 CWB         0.0342
     38 H15        -9.1496   73.2866    4.6623 H         1 CWB         0.0852
     39 H16        -8.8575   71.2559    3.6902 H         1 CWB         0.2036
     40 H17        -6.6066   70.8907    4.0174 H         1 CWB         0.0778
     41 H18        -6.7382   71.9675    5.4491 H         1 CWB         0.0778
     42 H19        -7.1248   72.5984    3.8123 H         1 CWB         0.0778
     43 H20        -9.4829   73.2864    7.1758 H         1 CWB         0.0320
     44 H21        -7.8022   72.9313    6.6509 H         1 CWB         0.0320
     45 H22        -9.9190   71.0272    7.7282 H         1 CWB         0.0269
     46 H23        -8.2510   71.3172    8.3285 H         1 CWB         0.0269
     47 H24        -7.2818   70.0954    6.5982 H         1 CWB         0.0320
     48 H25        -8.7078   69.1308    7.1110 H         1 CWB         0.0320
@<TRIPOS>BOND
     1    1    2 2  
     2    2    3 1  
     3    2   13 am 
     4    3    4 1  
     5    3   12 2  
     6    4    5 ar 
     7    4    9 ar 
     8    5    6 ar 
     9    6    7 ar 
    10    7    8 ar 
    11    8    9 ar 
    12    9   10 1  
    13   10   11 1  
    14   10   12 1  
    15   13   14 1  
    16   14   15 1  
    17   14   17 1  
    18   15   16 1  
    19   16   19 1  
    20   16   23 1  
    21   17   18 1  
    22   18   19 1  
    23   18   21 1  
    24   19   20 1  
    25   21   22 1  
    26   22   23 1  
    27    5   24 1  
    28    6   25 1  
    29    7   26 1  
    30    8   27 1  
    31   11   28 1  
    32   11   29 1  
    33   11   30 1  
    34   13   31 1  
    35   14   32 1  
    36   15   33 1  
    37   15   34 1  
    38   16   35 1  
    39   17   36 1  
    40   17   37 1  
    41   18   38 1  
    42   19   39 1  
    43   20   40 1  
    44   20   41 1  
    45   20   42 1  
    46   21   43 1  
    47   21   44 1  
    48   22   45 1  
    49   22   46 1  
    50   23   47 1  
    51   23   48 1  
@<TRIPOS>SUBSTRUCTURE
     1 CWB         1

