### 
### Created by X-TOOL on Mon Sep 10 21:13:14 2018
### 

@<TRIPOS>MOLECULE
2ymt_ligand
  105   109     1     0     0
SMALL
GAST_HUCK


@<TRIPOS>ATOM
      1 N         -17.2370   11.0940   12.2380 N.4       1 GLU         0.2380
      2 CA        -17.2540   10.1310   13.3330 C.3       1 GLU         0.0665
      3 C         -15.8970    9.4490   13.5210 C.2       1 GLU         0.2269
      4 O         -15.4360    9.2810   14.6480 O.2       1 GLU        -0.3907
      5 CB        -18.3670    9.0980   13.1280 C.3       1 GLU         0.0194
      6 CG        -19.4450    9.1310   14.2080 C.3       1 GLU         0.0075
      7 CD        -20.8430    8.8670   13.6650 C.2       1 GLU         0.0351
      8 OE1       -20.9590    8.3710   12.5230 O.co2     1 GLU        -0.5690
      9 OE2       -21.8250    9.1680   14.3790 O.co2     1 GLU        -0.5690
     10 N         -15.2610    9.0560   12.4200 N.am      1 TRP        -0.2599
     11 CA        -13.9190    8.4810   12.4940 C.3       1 TRP         0.1353
     12 C         -12.8440    9.5620   12.4320 C.2       1 TRP         0.2050
     13 O         -12.9870   10.5590   11.7290 O.2       1 TRP        -0.3943
     14 CB        -13.6750    7.4870   11.3590 C.3       1 TRP         0.0042
     15 CG        -14.3520    6.1650   11.5070 C.2       1 TRP        -0.0418
     16 CD1       -15.5730    5.8140   11.0130 C.2       1 TRP         0.0167
     17 CD2       -13.8350    4.9980   12.1640 C.ar      1 TRP        -0.0214
     18 NE1       -15.8560    4.5060   11.3300 N.pl3     1 TRP        -0.2890
     19 CE2       -14.8050    3.9830   12.0350 C.ar      1 TRP         0.0603
     20 CE3       -12.6530    4.7150   12.8560 C.ar      1 TRP        -0.0747
     21 CZ2       -14.6280    2.7090   12.5690 C.ar      1 TRP        -0.0443
     22 CZ3       -12.4800    3.4520   13.3840 C.ar      1 TRP        -0.0792
     23 CH2       -13.4640    2.4640   13.2390 C.ar      1 TRP        -0.0768
     24 N         -11.7560    9.3460   13.1610 N.am      1 GLY        -0.2663
     25 CA        -10.6110   10.2280   13.0870 C.3       1 GLY         0.1203
     26 C          -9.8200    9.9720   11.8210 C.2       1 GLY         0.2032
     27 O         -10.2030    9.1340   10.9990 O.2       1 GLY        -0.3945
     28 N          -8.7020   10.6890   11.6590 N.am      1 PRO        -0.2501
     29 CA         -7.8300   10.5610   10.4890 C.3       1 PRO         0.1338
     30 C          -7.0150    9.2740   10.5500 C.2       1 PRO         0.2042
     31 O          -6.8070    8.7180   11.6330 O.2       1 PRO        -0.3944
     32 CB         -6.9010   11.7660   10.6310 C.3       1 PRO        -0.0104
     33 CG         -6.7970   11.9630   12.1010 C.3       1 PRO        -0.0281
     34 CD         -8.1730   11.6590   12.6350 C.3       1 PRO         0.0369
     35 N          -6.5600    8.8030    9.3970 N.am      1 TRP        -0.2627
     36 CA         -5.6030    7.7110    9.3800 C.3       1 TRP         0.1352
     37 C          -4.3230    8.1790   10.0520 C.2       1 TRP         0.2052
     38 O          -3.8530    9.2900    9.8040 O.2       1 TRP        -0.3942
     39 CB         -5.2930    7.2730    7.9540 C.3       1 TRP         0.0042
     40 CG         -6.3760    6.4950    7.2950 C.2       1 TRP        -0.0418
     41 CD1        -7.1610    6.9060    6.2620 C.2       1 TRP         0.0167
     42 CD2        -6.7950    5.1620    7.6130 C.ar      1 TRP        -0.0214
     43 NE1        -8.0400    5.9120    5.9110 N.pl3     1 TRP        -0.2890
     44 CE2        -7.8390    4.8310    6.7260 C.ar      1 TRP         0.0603
     45 CE3        -6.3850    4.2150    8.5540 C.ar      1 TRP        -0.0747
     46 CZ2        -8.4810    3.5960    6.7540 C.ar      1 TRP        -0.0443
     47 CZ3        -7.0280    2.9890    8.5870 C.ar      1 TRP        -0.0792
     48 CH2        -8.0650    2.6900    7.6910 C.ar      1 TRP        -0.0768
     49 N          -3.7770    7.3400   10.9240 N.am      1 VAL        -0.2634
     50 CA         -2.4970    7.6260   11.5500 C.3       1 VAL         0.1329
     51 C          -1.5270    6.5370   11.1330 C.2       1 VAL         0.1994
     52 O          -1.8830    5.3610   11.1190 O.2       1 VAL        -0.3947
     53 CB         -2.6190    7.6640   13.0920 C.3       1 VAL        -0.0063
     54 CG1        -1.2590    7.8880   13.7390 C.3       1 VAL        -0.0584
     55 CG2        -3.6030    8.7480   13.5170 C.3       1 VAL        -0.0584
     56 N          -0.3080    6.9270   10.7810 N.am      1 NH2        -0.2990
     57 H1        -18.1471   11.5182   12.1495 H         1 GLU         0.2015
     58 H2        -17.0013   10.6220   11.3791 H         1 GLU         0.2015
     59 H3        -16.5509   11.8075   12.4286 H         1 GLU         0.2015
     60 H4        -17.4763   10.6841   14.2575 H         1 GLU         0.1099
     61 H5        -17.9132    8.0960   13.1216 H         1 GLU         0.0363
     62 H6        -18.8442    9.2907   12.1558 H         1 GLU         0.0363
     63 H7        -19.4353   10.1235   14.6821 H         1 GLU         0.0434
     64 H8        -19.2108    8.3631   14.9600 H         1 GLU         0.0434
     65 H9        -15.7069    9.1553   11.5305 H         1 TRP         0.1886
     66 H10       -13.8279    7.9494   13.4527 H         1 TRP         0.0815
     67 H11       -12.5918    7.3076   11.2924 H         1 TRP         0.0397
     68 H12       -14.0288    7.9463   10.4242 H         1 TRP         0.0397
     69 H13       -16.2298    6.4743   10.4486 H         1 TRP         0.0795
     70 H14       -16.7181    4.0018   11.0781 H         1 TRP         0.2216
     71 H15       -11.8876    5.4733   12.9752 H         1 TRP         0.0540
     72 H16       -15.3853    1.9415   12.4570 H         1 TRP         0.0541
     73 H17       -11.5671    3.2196   13.9204 H         1 TRP         0.0510
     74 H18       -13.2968    1.4830   13.6688 H         1 TRP         0.0530
     75 H19       -11.7269    8.5569   13.7745 H         1 GLY         0.1881
     76 H20        -9.9635   10.0534   13.9589 H         1 GLY         0.0763
     77 H21       -10.9581   11.2718   13.0912 H         1 GLY         0.0763
     78 H22        -8.4057   10.5987    9.5524 H         1 PRO         0.0802
     79 H23        -7.3338   12.6536   10.1465 H         1 PRO         0.0313
     80 H24        -5.9144   11.5538   10.1934 H         1 PRO         0.0313
     81 H25        -6.5131   13.0002   12.3327 H         1 PRO         0.0287
     82 H26        -6.0548   11.2747   12.5315 H         1 PRO         0.0287
     83 H27        -8.1177   11.2173   13.6409 H         1 PRO         0.0524
     84 H28        -8.7939   12.5664   12.6666 H         1 PRO         0.0524
     85 H29        -6.8770    9.2012    8.5362 H         1 TRP         0.1884
     86 H30        -6.0191    6.8572    9.9349 H         1 TRP         0.0815
     87 H31        -4.3873    6.6491    7.9761 H         1 TRP         0.0397
     88 H32        -5.1031    8.1739    7.3521 H         1 TRP         0.0397
     89 H33        -7.1005    7.8822    5.7832 H         1 TRP         0.0795
     90 H34        -8.7383    5.9702    5.1560 H         1 TRP         0.2216
     91 H35        -5.5793    4.4353    9.2449 H         1 TRP         0.0540
     92 H36        -9.2799    3.3612    6.0600 H         1 TRP         0.0541
     93 H37        -6.7248    2.2478    9.3176 H         1 TRP         0.0510
     94 H38        -8.5471    1.7204    7.7421 H         1 TRP         0.0530
     95 H39        -4.2566    6.4934   11.1550 H         1 VAL         0.1883
     96 H40        -2.1299    8.6015   11.1984 H         1 VAL         0.0802
     97 H41        -3.0060    6.6922   13.4322 H         1 VAL         0.0343
     98 H42        -1.3727    7.9110   14.8329 H         1 VAL         0.0234
     99 H43        -0.8418    8.8454   13.3936 H         1 VAL         0.0234
    100 H44        -0.5800    7.0695   13.4581 H         1 VAL         0.0234
    101 H45        -4.5770    8.5669   13.0389 H         1 VAL         0.0234
    102 H46        -3.2204    9.7320   13.2084 H         1 VAL         0.0234
    103 H47        -3.7218    8.7272   14.6104 H         1 VAL         0.0234
    104 H48         0.3712    6.2500   10.4974 H         1 NH2         0.1815
    105 H49        -0.0688    7.8978   10.7994 H         1 NH2         0.1815
@<TRIPOS>BOND
     1    1    2 1  
     2    2    3 1  
     3    2    5 1  
     4    3    4 2  
     5    3   10 am 
     6    5    6 1  
     7    6    7 1  
     8    7    8 ar 
     9    7    9 ar 
    10   10   11 1  
    11   11   12 1  
    12   11   14 1  
    13   12   13 2  
    14   12   24 am 
    15   14   15 1  
    16   15   16 2  
    17   15   17 1  
    18   16   18 1  
    19   17   19 ar 
    20   17   20 ar 
    21   18   19 1  
    22   19   21 ar 
    23   20   22 ar 
    24   21   23 ar 
    25   22   23 ar 
    26   24   25 1  
    27   25   26 1  
    28   26   27 2  
    29   26   28 am 
    30   28   29 1  
    31   28   34 1  
    32   29   30 1  
    33   29   32 1  
    34   30   31 2  
    35   30   35 am 
    36   32   33 1  
    37   33   34 1  
    38   35   36 1  
    39   36   37 1  
    40   36   39 1  
    41   37   38 2  
    42   37   49 am 
    43   39   40 1  
    44   40   41 2  
    45   40   42 1  
    46   41   43 1  
    47   42   44 ar 
    48   42   45 ar 
    49   43   44 1  
    50   44   46 ar 
    51   45   47 ar 
    52   46   48 ar 
    53   47   48 ar 
    54   49   50 1  
    55   50   51 1  
    56   50   53 1  
    57   51   52 2  
    58   51   56 am 
    59   53   54 1  
    60   53   55 1  
    61    1   57 1  
    62    1   58 1  
    63    1   59 1  
    64    2   60 1  
    65    5   61 1  
    66    5   62 1  
    67    6   63 1  
    68    6   64 1  
    69   10   65 1  
    70   11   66 1  
    71   14   67 1  
    72   14   68 1  
    73   16   69 1  
    74   18   70 1  
    75   20   71 1  
    76   21   72 1  
    77   22   73 1  
    78   23   74 1  
    79   24   75 1  
    80   25   76 1  
    81   25   77 1  
    82   29   78 1  
    83   32   79 1  
    84   32   80 1  
    85   33   81 1  
    86   33   82 1  
    87   34   83 1  
    88   34   84 1  
    89   35   85 1  
    90   36   86 1  
    91   39   87 1  
    92   39   88 1  
    93   41   89 1  
    94   43   90 1  
    95   45   91 1  
    96   46   92 1  
    97   47   93 1  
    98   48   94 1  
    99   49   95 1  
   100   50   96 1  
   101   53   97 1  
   102   54   98 1  
   103   54   99 1  
   104   54  100 1  
   105   55  101 1  
   106   55  102 1  
   107   55  103 1  
   108   56  104 1  
   109   56  105 1  
@<TRIPOS>SUBSTRUCTURE
     1 GLU         1

