### 
### Created by X-TOOL on Mon Sep 10 21:13:17 2018
### 

@<TRIPOS>MOLECULE
2ynd_ligand
   57    60     1     0     0
SMALL
GAST_HUCK


@<TRIPOS>ATOM
      1 CAA       -20.9130   10.5990  -25.7300 C.3       1 646        -0.0318
      2 CAB       -25.9680   12.1440  -26.4570 C.3       1 646        -0.0151
      3 CAC       -25.6380   10.8960  -23.7680 C.3       1 646         0.0495
      4 OAD       -21.0630   13.4850  -26.8280 O.2       1 646        -0.1466
      5 OAE       -21.4930   13.3780  -29.3120 O.2       1 646        -0.1466
      6 CLF       -24.7160   13.5590  -29.7220 Cl        1 646        -0.0682
      7 CLG       -21.6920   15.7720  -25.5930 Cl        1 646        -0.0682
      8 CAH       -28.8780   17.5230  -26.7580 C.ar      1 646        -0.0050
      9 CAI       -27.6820   17.0370  -27.2870 C.ar      1 646        -0.0415
     10 CAJ       -25.4640   15.4590  -27.9570 C.ar      1 646        -0.0354
     11 CAK       -24.1550   16.3910  -26.2110 C.ar      1 646        -0.0354
     12 CAL       -26.6260   17.4980  -25.1670 C.ar      1 646        -0.0102
     13 CAM       -29.4310   19.5100  -21.4520 C.3       1 646        -0.0130
     14 CAN       -27.1520   18.8770  -21.1340 C.3       1 646        -0.0130
     15 CAO       -29.3670   18.7590  -22.8080 C.3       1 646         0.0696
     16 CAP       -26.7730   18.7330  -22.5900 C.3       1 646         0.0696
     17 NAQ       -28.9410   17.9640  -25.4900 N.ar      1 646        -0.2872
     18 NAR       -23.1640   10.5840  -24.4350 N.2       1 646        -0.2503
     19 NAS       -28.1110   19.9910  -20.9920 N.4       1 646         0.2298
     20 NAT       -22.7900   11.9910  -27.8460 N.am      1 646        -0.2159
     21 CAU       -22.3620   10.8420  -25.5370 C.2       1 646         0.0145
     22 CAV       -24.6220   11.6330  -25.9890 C.2       1 646         0.0667
     23 CAW       -24.4160   14.6140  -28.3090 C.ar      1 646         0.0701
     24 CAX       -23.1310   15.5210  -26.5750 C.ar      1 646         0.0701
     25 CAY       -26.5090   17.1250  -26.5320 C.ar      1 646        -0.0115
     26 CAZ       -25.3160   16.4180  -26.9590 C.ar      1 646        -0.0113
     27 CBA       -27.8610   17.9720  -24.6640 C.ar      1 646         0.1125
     28 CBB       -23.2410   11.5050  -26.5390 C.2       1 646         0.0690
     29 CBC       -23.1950   14.5950  -27.6410 C.ar      1 646         0.1411
     30 NBD       -28.0010   18.4740  -23.3410 N.pl3     1 646        -0.2845
     31 NBE       -24.5270   10.9080  -24.7380 N.pl3     1 646        -0.2343
     32 SBF       -22.0240   13.4290  -27.9420 S.o2      1 646         0.0806
     33 H         -20.6165   10.9305  -26.7361 H         1 646         0.0359
     34 H         -20.7037    9.5246  -25.6215 H         1 646         0.0359
     35 H         -20.3432   11.1616  -24.9758 H         1 646         0.0359
     36 H         -25.8482   12.6657  -27.4180 H         1 646         0.0379
     37 H         -26.3756   12.8409  -25.7099 H         1 646         0.0379
     38 H         -26.6582   11.2968  -26.5833 H         1 646         0.0379
     39 H         -26.5703   11.1856  -24.2748 H         1 646         0.0579
     40 H         -25.4248   11.6084  -22.9574 H         1 646         0.0579
     41 H         -25.7475    9.8851  -23.3484 H         1 646         0.0579
     42 H         -29.7674   17.5452  -27.3773 H         1 646         0.0776
     43 H         -27.6626   16.5944  -28.2763 H         1 646         0.0600
     44 H         -26.4146   15.3687  -28.4702 H         1 646         0.0647
     45 H         -24.0425   17.0401  -25.3501 H         1 646         0.0647
     46 H         -25.7680   17.4196  -24.5091 H         1 646         0.0606
     47 H         -29.8386   18.8268  -20.6924 H         1 646         0.0834
     48 H         -30.0999   20.3762  -21.5629 H         1 646         0.0834
     49 H         -26.2517   19.0879  -20.5382 H         1 646         0.0834
     50 H         -27.6158   17.9444  -20.7802 H         1 646         0.0834
     51 H         -29.8979   19.3682  -23.5543 H         1 646         0.0572
     52 H         -29.8859   17.7971  -22.6836 H         1 646         0.0572
     53 H         -26.0728   17.8939  -22.7145 H         1 646         0.0572
     54 H         -26.3020   19.6600  -22.9488 H         1 646         0.0572
     55 H         -28.1666   20.2750  -20.0264 H         1 646         0.2015
     56 H         -27.8150   20.7725  -21.5556 H         1 646         0.2015
     57 H         -22.9499   11.4475  -28.6700 H         1 646         0.1941
@<TRIPOS>BOND
     1   21    1 1  
     2   22    2 1  
     3   31    3 1  
     4   32    4 2  
     5   32    5 2  
     6   23    6 1  
     7   24    7 1  
     8    9    8 ar 
     9    8   17 ar 
    10   25    9 ar 
    11   23   10 ar 
    12   10   26 ar 
    13   24   11 ar 
    14   11   26 ar 
    15   25   12 ar 
    16   12   27 ar 
    17   15   13 1  
    18   13   19 1  
    19   16   14 1  
    20   14   19 1  
    21   30   15 1  
    22   30   16 1  
    23   27   17 ar 
    24   21   18 2  
    25   31   18 1  
    26   20   28 1  
    27   32   20 am 
    28   28   21 1  
    29   28   22 2  
    30   22   31 1  
    31   29   23 ar 
    32   29   24 ar 
    33   26   25 1  
    34   27   30 1  
    35   29   32 1  
    36    1   33 1  
    37    1   34 1  
    38    1   35 1  
    39    2   36 1  
    40    2   37 1  
    41    2   38 1  
    42    3   39 1  
    43    3   40 1  
    44    3   41 1  
    45    8   42 1  
    46    9   43 1  
    47   10   44 1  
    48   11   45 1  
    49   12   46 1  
    50   13   47 1  
    51   13   48 1  
    52   14   49 1  
    53   14   50 1  
    54   15   51 1  
    55   15   52 1  
    56   16   53 1  
    57   16   54 1  
    58   19   55 1  
    59   19   56 1  
    60   20   57 1  
@<TRIPOS>SUBSTRUCTURE
     1 646         1

