### 
### Created by X-TOOL on Mon Sep 10 21:13:17 2018
### 

@<TRIPOS>MOLECULE
2yne_ligand
   56    60     1     0     0
SMALL
GAST_HUCK


@<TRIPOS>ATOM
      1 C4         27.1580   47.9330   63.6190 C.3       1 YNE        -0.0078
      2 C3         25.6610   47.8600   63.4670 C.2       1 YNE         0.0607
      3 N1         24.7650   48.6700   63.9760 N.pl3     1 YNE        -0.2249
      4 C2         25.0110   49.7850   64.9320 C.3       1 YNE         0.0531
      5 N          23.4750   48.3330   63.6180 N.2       1 YNE        -0.2461
      6 C5         24.9080   46.8860   62.6570 C.2       1 YNE        -0.0113
      7 C1         23.4940   47.2720   62.7890 C.2       1 YNE        -0.0024
      8 C          22.2260   46.6440   62.2240 C.3       1 YNE        -0.0316
      9 C6         25.4780   45.8010   61.8130 C.3       1 YNE         0.0526
     10 C7         25.4560   44.5380   62.5990 C.2       1 YNE         0.1959
     11 O          24.2790   43.8740   62.8610 O.3       1 YNE        -0.1997
     12 C8         24.7410   42.8500   63.5100 C.2       1 YNE         0.2069
     13 N3         26.0350   42.7690   63.7410 N.2       1 YNE        -0.2663
     14 N2         26.5450   43.9280   63.0700 N.2       1 YNE        -0.2590
     15 C9         23.7150   41.9380   63.9690 C.2       1 YNE         0.1155
     16 S          22.1280   41.9130   63.3580 S.3       1 YNE        -0.0441
     17 C21        21.5340   40.6840   64.3190 C.ar      1 YNE         0.0393
     18 C20        20.2250   40.1670   64.3750 C.ar      1 YNE        -0.0475
     19 C19        19.9520   39.0970   65.3060 C.ar      1 YNE        -0.0679
     20 C18        20.9950   38.5890   66.1200 C.ar      1 YNE        -0.0684
     21 C17        22.3420   39.0780   66.1200 C.ar      1 YNE        -0.0581
     22 C16        22.6030   40.1630   65.2130 C.ar      1 YNE         0.0244
     23 C10        23.8660   40.8890   65.0170 C.2       1 YNE         0.1170
     24 O1         25.0110   40.6610   65.6870 O.3       1 YNE        -0.3159
     25 C11        24.8100   40.6560   67.1520 C.3       1 YNE         0.0906
     26 C15        25.7510   39.6040   67.7810 C.3       1 YNE         0.0184
     27 C14        27.2530   39.8850   67.4480 C.3       1 YNE        -0.0309
     28 N4         27.5420   41.2410   68.0050 N.4       1 YNE         0.2271
     29 C13        26.6410   42.3150   67.4930 C.3       1 YNE        -0.0309
     30 C12        25.1190   42.0700   67.6590 C.3       1 YNE         0.0184
     31 H          27.6235   47.1031   63.0671 H         1 YNE         0.0415
     32 H          27.4225   47.8589   64.6841 H         1 YNE         0.0415
     33 H          27.5212   48.8902   63.2167 H         1 YNE         0.0415
     34 H          24.0580   50.2790   65.1722 H         1 YNE         0.0585
     35 H          25.6972   50.5140   64.4763 H         1 YNE         0.0585
     36 H          25.4595   49.3856   65.8536 H         1 YNE         0.0585
     37 H          22.4939   45.7962   61.5763 H         1 YNE         0.0367
     38 H          21.6754   47.3940   61.6372 H         1 YNE         0.0367
     39 H          21.5933   46.2883   63.0505 H         1 YNE         0.0367
     40 H          26.5134   46.0494   61.5370 H         1 YNE         0.0586
     41 H          24.8739   45.6824   60.9014 H         1 YNE         0.0586
     42 H          19.4431   40.5617   63.7363 H         1 YNE         0.0574
     43 H          18.9527   38.6839   65.3819 H         1 YNE         0.0591
     44 H          20.7567   37.7716   66.7910 H         1 YNE         0.0561
     45 H          23.1108   38.6591   66.7593 H         1 YNE         0.0604
     46 H          23.7674   40.3989   67.3906 H         1 YNE         0.0655
     47 H          25.4817   38.6103   67.3936 H         1 YNE         0.0346
     48 H          25.6209   39.6195   68.8732 H         1 YNE         0.0346
     49 H          27.4133   39.8749   66.3598 H         1 YNE         0.0815
     50 H          27.8987   39.1303   67.9208 H         1 YNE         0.0815
     51 H          28.4911   41.4847   67.7685 H         1 YNE         0.2013
     52 H          27.4459   41.1985   69.0075 H         1 YNE         0.2013
     53 H          26.8453   42.4408   66.4195 H         1 YNE         0.0815
     54 H          26.8910   43.2446   68.0252 H         1 YNE         0.0815
     55 H          24.8404   42.1557   68.7197 H         1 YNE         0.0346
     56 H          24.5554   42.8092   67.0709 H         1 YNE         0.0346
@<TRIPOS>BOND
     1    1    2 1  
     2    2    3 1  
     3    2    6 2  
     4    3    4 1  
     5    3    5 1  
     6    5    7 2  
     7    6    7 1  
     8    6    9 1  
     9    7    8 1  
    10    9   10 1  
    11   10   11 1  
    12   10   14 2  
    13   11   12 1  
    14   12   13 2  
    15   12   15 1  
    16   13   14 1  
    17   15   16 1  
    18   15   23 2  
    19   16   17 1  
    20   17   18 ar 
    21   17   22 ar 
    22   18   19 ar 
    23   19   20 ar 
    24   20   21 ar 
    25   21   22 ar 
    26   22   23 1  
    27   23   24 1  
    28   24   25 1  
    29   25   26 1  
    30   25   30 1  
    31   26   27 1  
    32   27   28 1  
    33   28   29 1  
    34   29   30 1  
    35    1   31 1  
    36    1   32 1  
    37    1   33 1  
    38    4   34 1  
    39    4   35 1  
    40    4   36 1  
    41    8   37 1  
    42    8   38 1  
    43    8   39 1  
    44    9   40 1  
    45    9   41 1  
    46   18   42 1  
    47   19   43 1  
    48   20   44 1  
    49   21   45 1  
    50   25   46 1  
    51   26   47 1  
    52   26   48 1  
    53   27   49 1  
    54   27   50 1  
    55   28   51 1  
    56   28   52 1  
    57   29   53 1  
    58   29   54 1  
    59   30   55 1  
    60   30   56 1  
@<TRIPOS>SUBSTRUCTURE
     1 YNE         1

