### 
### Created by X-TOOL on Mon Sep 10 21:13:14 2018
### 

@<TRIPOS>MOLECULE
2yof_ligand
   49    51     1     0     0
SMALL
GAST_HUCK


@<TRIPOS>ATOM
      1 OAC        15.0750   -0.2270    2.1640 O.2       1 74W        -0.3843
      2 CAZ        14.6030   -0.0120    3.2810 C.2       1 74W         0.3265
      3 NAR        14.0210    1.2180    3.5640 N.am      1 74W        -0.1859
      4 CAY        13.4810    1.4540    4.8270 C.2       1 74W         0.1930
      5 OAB        12.9620    2.5460    5.0710 O.2       1 74W        -0.4079
      6 CAU        13.5230    0.4540    5.8010 C.2       1 74W         0.0225
      7 CAA        12.9320    0.7140    7.1870 C.3       1 74W        -0.0437
      8 CAM        14.1040   -0.7800    5.5190 C.2       1 74W         0.0524
      9 NBD        14.6410   -1.0100    4.2540 N.am      1 74W        -0.1736
     10 CBC        15.2660   -2.2980    3.9060 C.3       1 74W         0.1756
     11 OAS        14.6030   -3.4880    4.3920 O.3       1 74W        -0.3399
     12 CAO        16.5840   -2.3920    4.6220 C.3       1 74W         0.0307
     13 CBA        16.9300   -3.8540    4.3950 C.3       1 74W         0.0885
     14 OAD        17.7790   -4.0030    3.2580 O.3       1 74W        -0.3890
     15 CBB        15.5940   -4.4950    4.0540 C.3       1 74W         0.1097
     16 CAN        15.6870   -5.7240    4.9390 C.3       1 74W         0.0657
     17 NAP        14.6320   -5.7010    5.9240 N.am      1 74W        -0.2759
     18 CAT        14.3630   -6.7330    6.7200 C.2       1 74W         0.1632
     19 SAE        13.0940   -6.4760    7.8210 S.2       1 74W        -0.2966
     20 NAQ        14.9930   -7.9390    6.7670 N.am      1 74W        -0.2258
     21 CAV        16.0120   -8.5060    6.0580 C.ar      1 74W         0.1015
     22 CAL        16.7970   -7.8750    5.0690 C.ar      1 74W        -0.0101
     23 CAJ        16.2800   -9.8420    6.3650 C.ar      1 74W        -0.0085
     24 CAK        17.2890  -10.5460    5.7160 C.ar      1 74W        -0.0281
     25 CAW        18.0590   -9.9250    4.7370 C.ar      1 74W         0.0602
     26 CL         19.3220  -10.8070    3.9260 Cl        1 74W        -0.0532
     27 CAX        17.8200   -8.5910    4.4030 C.ar      1 74W         0.0475
     28 CBE        18.7100   -7.9440    3.2930 C.3       1 74W         0.3718
     29 FAF        18.5820   -6.6180    3.3130 F         1 74W        -0.2223
     30 FAG        19.9960   -8.2850    3.4440 F         1 74W        -0.2223
     31 FAH        18.3440   -8.3840    2.0880 F         1 74W        -0.2223
     32 H1         13.9898    1.9312    2.8638 H         1 74W         0.2259
     33 H2         13.0570   -0.1819    7.8128 H         1 74W         0.0296
     34 H3         11.8614    0.9479    7.0912 H         1 74W         0.0296
     35 H4         13.4524    1.5630    7.6542 H         1 74W         0.0296
     36 H5         14.1383   -1.5580    6.2802 H         1 74W         0.1011
     37 H6         15.3871   -2.3499    2.8139 H         1 74W         0.0959
     38 H7         16.4799   -2.1626    5.6927 H         1 74W         0.0344
     39 H8         17.3355   -1.7245    4.1753 H         1 74W         0.0344
     40 H9         17.3905   -4.3027    5.2875 H         1 74W         0.0622
     41 H10        18.5824   -3.5157    3.3981 H         1 74W         0.2099
     42 H11        15.4943   -4.7784    2.9958 H         1 74W         0.0645
     43 H12        16.6617   -5.7335    5.4487 H         1 74W         0.0569
     44 H13        15.5882   -6.6277    4.3198 H         1 74W         0.0569
     45 H14        14.0787   -4.8727    6.0121 H         1 74W         0.1980
     46 H15        14.6291   -8.5418    7.4771 H         1 74W         0.2361
     47 H16        16.6152   -6.8362    4.8182 H         1 74W         0.0719
     48 H17        15.6893  -10.3407    7.1249 H         1 74W         0.0768
     49 H18        17.4763  -11.5821    5.9737 H         1 74W         0.0672
@<TRIPOS>BOND
     1    1    2 2  
     2    2    3 am 
     3    2    9 am 
     4    3    4 am 
     5    4    5 2  
     6    4    6 1  
     7    6    7 1  
     8    6    8 2  
     9    8    9 1  
    10    9   10 1  
    11   10   11 1  
    12   10   12 1  
    13   11   15 1  
    14   12   13 1  
    15   13   14 1  
    16   13   15 1  
    17   15   16 1  
    18   16   17 1  
    19   17   18 am 
    20   18   19 2  
    21   18   20 am 
    22   20   21 1  
    23   21   22 ar 
    24   21   23 ar 
    25   22   27 ar 
    26   23   24 ar 
    27   24   25 ar 
    28   25   26 1  
    29   25   27 ar 
    30   27   28 1  
    31   28   29 1  
    32   28   30 1  
    33   28   31 1  
    34    3   32 1  
    35    7   33 1  
    36    7   34 1  
    37    7   35 1  
    38    8   36 1  
    39   10   37 1  
    40   12   38 1  
    41   12   39 1  
    42   13   40 1  
    43   14   41 1  
    44   15   42 1  
    45   16   43 1  
    46   16   44 1  
    47   17   45 1  
    48   20   46 1  
    49   22   47 1  
    50   23   48 1  
    51   24   49 1  
@<TRIPOS>SUBSTRUCTURE
     1 74W         1

