### 
### Created by X-TOOL on Mon Sep 10 21:13:13 2018
### 

@<TRIPOS>MOLECULE
2yog_ligand
   49    51     1     0     0
SMALL
GAST_HUCK


@<TRIPOS>ATOM
      1 OAC        17.5240    4.0930    3.9890 O.2       1 74X        -0.3843
      2 CAZ        16.3290    4.0730    4.0460 C.2       1 74X         0.3265
      3 NAR        15.7350    3.4400    5.1160 N.am      1 74X        -0.1859
      4 CAY        14.3420    3.3810    5.2330 C.2       1 74X         0.1930
      5 OAB        13.8440    2.7820    6.1770 O.2       1 74X        -0.4079
      6 CAU        13.5500    3.9490    4.2490 C.2       1 74X         0.0225
      7 CAA        12.0200    3.9340    4.3520 C.3       1 74X        -0.0437
      8 CAM        14.1700    4.6070    3.1980 C.2       1 74X         0.0524
      9 NBD        15.5610    4.6560    3.0550 N.am      1 74X        -0.1736
     10 CBC        16.2670    5.2890    1.8850 C.3       1 74X         0.1756
     11 OAS        15.2670    5.3630    0.8470 O.3       1 74X        -0.3399
     12 CAO        16.7910    6.6650    2.1350 C.3       1 74X         0.0307
     13 CBA        15.7460    7.5580    1.5900 C.3       1 74X         0.0885
     14 OAD        14.7130    7.7140    2.5600 O.3       1 74X        -0.3890
     15 CBB        15.2190    6.7350    0.4050 C.3       1 74X         0.1097
     16 CAN        16.0990    6.9500   -0.8830 C.3       1 74X         0.0657
     17 NAP        15.6430    8.2400   -1.4350 N.am      1 74X        -0.2759
     18 CAT        16.2850    9.3850   -1.2780 C.2       1 74X         0.1632
     19 SAE        17.8360    9.3900   -0.5000 S.2       1 74X        -0.2966
     20 NAQ        15.7060   10.4930   -1.7580 N.am      1 74X        -0.2258
     21 CAV        16.3120   11.6740   -1.6230 C.ar      1 74X         0.1015
     22 CAL        15.9420   12.4920   -0.5590 C.ar      1 74X        -0.0101
     23 CAJ        17.3090   12.0870   -2.4990 C.ar      1 74X        -0.0085
     24 CAK        17.9250   13.3190   -2.3050 C.ar      1 74X        -0.0281
     25 CAW        17.5500   14.1410   -1.2450 C.ar      1 74X         0.0602
     26 CLA        18.3580   15.6560   -1.0670 Cl        1 74X        -0.0532
     27 CAX        16.5490   13.7270   -0.3600 C.ar      1 74X         0.0475
     28 CBE        16.0820   14.5810    0.8310 C.3       1 74X         0.3718
     29 FAG        15.4630   15.6770    0.4160 F         1 74X        -0.2223
     30 FAH        15.2260   13.8720    1.5580 F         1 74X        -0.2223
     31 FAF        17.1020   14.9260    1.5990 F         1 74X        -0.2223
     32 H1         16.3073    3.0170    5.8185 H         1 74X         0.2259
     33 H2         11.5884    4.4341    3.4724 H         1 74X         0.0296
     34 H3         11.7087    4.4637    5.2644 H         1 74X         0.0296
     35 H4         11.6654    2.8935    4.3929 H         1 74X         0.0296
     36 H5         13.5499    5.1054    2.4544 H         1 74X         0.1011
     37 H6         17.1033    4.6460    1.5733 H         1 74X         0.0959
     38 H7         17.7466    6.8191    1.6125 H         1 74X         0.0344
     39 H8         16.9298    6.8395    3.2122 H         1 74X         0.0344
     40 H9         16.1454    8.5346    1.2790 H         1 74X         0.0622
     41 H10        14.0391    8.2873    2.2139 H         1 74X         0.2099
     42 H11        14.1818    7.0226    0.1784 H         1 74X         0.0645
     43 H12        15.9334    6.1380   -1.6063 H         1 74X         0.0569
     44 H13        17.1663    6.9955   -0.6208 H         1 74X         0.0569
     45 H14        14.7932    8.2489   -1.9621 H         1 74X         0.1980
     46 H15        14.8197   10.4353   -2.2175 H         1 74X         0.2361
     47 H16        15.1688   12.1610    0.1248 H         1 74X         0.0719
     48 H17        17.6044   11.4535   -3.3275 H         1 74X         0.0768
     49 H18        18.7044   13.6425   -2.9854 H         1 74X         0.0672
@<TRIPOS>BOND
     1    1    2 2  
     2    2    3 am 
     3    2    9 am 
     4    3    4 am 
     5    4    5 2  
     6    4    6 1  
     7    6    7 1  
     8    6    8 2  
     9    8    9 1  
    10    9   10 1  
    11   10   11 1  
    12   10   12 1  
    13   11   15 1  
    14   12   13 1  
    15   13   14 1  
    16   13   15 1  
    17   15   16 1  
    18   16   17 1  
    19   17   18 am 
    20   18   19 2  
    21   18   20 am 
    22   20   21 1  
    23   21   22 ar 
    24   21   23 ar 
    25   22   27 ar 
    26   23   24 ar 
    27   24   25 ar 
    28   25   26 1  
    29   25   27 ar 
    30   27   28 1  
    31   28   29 1  
    32   28   30 1  
    33   28   31 1  
    34    3   32 1  
    35    7   33 1  
    36    7   34 1  
    37    7   35 1  
    38    8   36 1  
    39   10   37 1  
    40   12   38 1  
    41   12   39 1  
    42   13   40 1  
    43   14   41 1  
    44   15   42 1  
    45   16   43 1  
    46   16   44 1  
    47   17   45 1  
    48   20   46 1  
    49   22   47 1  
    50   23   48 1  
    51   24   49 1  
@<TRIPOS>SUBSTRUCTURE
     1 74X         1

