### 
### Created by X-TOOL on Mon Sep 10 21:13:12 2018
### 

@<TRIPOS>MOLECULE
2yoh_ligand
   48    50     1     0     0
SMALL
GAST_HUCK


@<TRIPOS>ATOM
      1 OAD        17.6660    4.0480    4.1400 O.2       1 WMJ        -0.3843
      2 CAX        16.4620    3.9870    4.2040 C.2       1 WMJ         0.3265
      3 NAQ        15.8860    3.3380    5.2800 N.am      1 WMJ        -0.1859
      4 CAW        14.5110    3.2620    5.3910 C.2       1 WMJ         0.1930
      5 OAC        14.0560    2.6580    6.3510 O.2       1 WMJ        -0.4079
      6 CAT        13.7010    3.7960    4.3740 C.2       1 WMJ         0.0225
      7 CAA        12.1680    3.7330    4.4520 C.3       1 WMJ        -0.0437
      8 CAL        14.2740    4.4320    3.2920 C.2       1 WMJ         0.0524
      9 NBC        15.6790    4.5060    3.1850 N.am      1 WMJ        -0.1736
     10 CBA        16.3740    5.1290    1.9970 C.3       1 WMJ         0.1756
     11 OAR        15.3940    5.1650    0.9390 O.3       1 WMJ        -0.3401
     12 CAN        16.8980    6.5260    2.2110 C.3       1 WMJ         0.0307
     13 CAY        15.8160    7.3890    1.5940 C.3       1 WMJ         0.0883
     14 OAE        14.8040    7.6080    2.5460 O.3       1 WMJ        -0.3890
     15 CAZ        15.2730    6.5170    0.4710 C.3       1 WMJ         0.1079
     16 CAM        16.1370    6.5810   -0.8170 C.3       1 WMJ         0.0642
     17 NAO        15.9560    7.9020   -1.4400 N.am      1 WMJ        -0.2298
     18 CAS        15.1320    8.0590   -2.5060 C.2       1 WMJ         0.4547
     19 OAB        14.4840    7.1190   -3.0150 O.2       1 WMJ        -0.2943
     20 NAP        15.1460    9.2910   -3.0310 N.am      1 WMJ        -0.0689
     21 CAU        14.4170    9.7210   -4.1090 C.ar      1 WMJ         0.3157
     22 CAI        14.7520   10.9650   -4.6520 C.ar      1 WMJ         0.1242
     23 CAK        14.0440   11.4550   -5.7620 C.ar      1 WMJ         0.0811
     24 CAH        13.3750    8.9750   -4.6630 C.ar      1 WMJ         0.1242
     25 CAJ        12.6320    9.4690   -5.7520 C.ar      1 WMJ         0.0811
     26 CAV        12.9830   10.7090   -6.2960 C.ar      1 WMJ         0.1877
     27 NBB        12.3020   11.1810   -7.3570 N.2       1 WMJ        -0.1365
     28 OAG        10.9650   10.8640   -7.5010 O.2       1 WMJ        -0.4479
     29 OAF        12.9810   11.9210   -8.2970 O.2       1 WMJ        -0.4479
     30 H1         16.4663    2.9222    5.9802 H         1 WMJ         0.2259
     31 H2         11.7357    4.2062    3.5581 H         1 WMJ         0.0296
     32 H3         11.8244    4.2654    5.3512 H         1 WMJ         0.0296
     33 H4         11.8463    2.6823    4.5025 H         1 WMJ         0.0296
     34 H5         13.6437    4.8756    2.5227 H         1 WMJ         0.1011
     35 H6         17.2189    4.4869    1.7074 H         1 WMJ         0.0959
     36 H7         17.8605    6.6709    1.6986 H         1 WMJ         0.0344
     37 H8         17.0164    6.7449    3.2825 H         1 WMJ         0.0344
     38 H9         16.2130    8.3437    1.2188 H         1 WMJ         0.0621
     39 H10        14.1229    8.1489    2.1638 H         1 WMJ         0.2099
     40 H11        14.2295    6.7842    0.2482 H         1 WMJ         0.0643
     41 H12        15.8176    5.7947   -1.5167 H         1 WMJ         0.0546
     42 H13        17.1965    6.4348   -0.5599 H         1 WMJ         0.0546
     43 H14        16.4460    8.6928   -1.0733 H         1 WMJ         0.1893
     44 H15        15.7459    9.9615   -2.5946 H         1 WMJ         0.4316
     45 H16        15.5553   11.5494   -4.2180 H         1 WMJ         0.1345
     46 H17        14.3167   12.4063   -6.2043 H         1 WMJ         0.1019
     47 H18        13.1348    8.0023   -4.2491 H         1 WMJ         0.1345
     48 H19        11.8047    8.9000   -6.1606 H         1 WMJ         0.1019
@<TRIPOS>BOND
     1    1    2 2  
     2    2    3 am 
     3    2    9 am 
     4    3    4 am 
     5    4    5 2  
     6    4    6 1  
     7    6    7 1  
     8    6    8 2  
     9    8    9 1  
    10    9   10 1  
    11   10   11 1  
    12   10   12 1  
    13   11   15 1  
    14   12   13 1  
    15   13   14 1  
    16   13   15 1  
    17   15   16 1  
    18   16   17 1  
    19   17   18 am 
    20   18   19 2  
    21   18   20 am 
    22   20   21 1  
    23   21   22 ar 
    24   21   24 ar 
    25   22   23 ar 
    26   23   26 ar 
    27   24   25 ar 
    28   25   26 ar 
    29   26   27 1  
    30   27   28 2  
    31   27   29 2  
    32    3   30 1  
    33    7   31 1  
    34    7   32 1  
    35    7   33 1  
    36    8   34 1  
    37   10   35 1  
    38   12   36 1  
    39   12   37 1  
    40   13   38 1  
    41   14   39 1  
    42   15   40 1  
    43   16   41 1  
    44   16   42 1  
    45   17   43 1  
    46   20   44 1  
    47   22   45 1  
    48   23   46 1  
    49   24   47 1  
    50   25   48 1  
@<TRIPOS>SUBSTRUCTURE
     1 WMJ         1

