### 
### Created by X-TOOL on Mon Sep 10 21:13:13 2018
### 

@<TRIPOS>MOLECULE
2yoj_ligand
   49    54     1     0     0
SMALL
GAST_HUCK


@<TRIPOS>ATOM
      1 C1         27.1760   43.3960   43.2830 C.ar      1 8Y6         0.0191
      2 C2         27.3960   44.5530   44.0660 C.ar      1 8Y6        -0.0447
      3 C3         28.5450   45.3490   43.8540 C.ar      1 8Y6         0.0544
      4 C4         29.5070   44.9880   42.8840 C.ar      1 8Y6         0.0163
      5 C5         29.2670   43.8510   42.0930 C.ar      1 8Y6        -0.0217
      6 C6         28.1060   43.0980   42.2890 C.ar      1 8Y6         0.1354
      7 C7         23.0570   45.5020   46.2340 C.2       1 8Y6         0.0241
      8 C8         24.6080   43.4570   46.7100 C.ar      1 8Y6         0.0182
      9 C9         25.4060   42.6370   45.8860 C.ar      1 8Y6         0.0608
     10 N1         25.2190   43.0650   44.6190 N.pl3     1 8Y6        -0.2539
     11 C10        24.3510   44.1390   44.5650 C.2       1 8Y6         0.0971
     12 C11        23.9310   44.4110   45.8890 C.2       1 8Y6        -0.0055
     13 C12        26.2010   41.4570   47.8250 C.ar      1 8Y6         0.1152
     14 C13        26.2030   41.6380   46.4320 C.ar      1 8Y6        -0.0196
     15 C14        23.9950   44.8790   43.3490 C.2       1 8Y6         0.0810
     16 C15        25.9560   42.5080   43.5020 C.3       1 8Y6         0.0833
     17 O1         23.8590   46.0880   43.2510 O.co2     1 8Y6        -0.5620
     18 C16        21.7540   45.7180   45.4740 C.2       1 8Y6         0.1713
     19 N2         21.0060   46.8220   45.8560 N.2       1 8Y6        -0.2516
     20 C17        21.3630   47.6800   46.8690 C.2       1 8Y6         0.0381
     21 C18        22.4870   47.4920   47.5630 C.3       1 8Y6         0.0467
     22 C19        23.3660   46.3880   47.2280 C.2       1 8Y6        -0.0359
     23 O2         21.3800   44.9450   44.5630 O.2       1 8Y6        -0.3929
     24 O3         23.8100   44.0660   42.2850 O.co2     1 8Y6        -0.5620
     25 F1         27.8810   42.0430   41.4990 F         1 8Y6        -0.1863
     26 C20        28.7840   46.5860   44.6450 C.2       1 8Y6         0.2335
     27 O4         27.9750   46.9860   45.4770 O.2       1 8Y6        -0.3869
     28 N3         29.9750   47.2460   44.3460 N.am      1 8Y6        -0.2001
     29 N4         30.6880   45.7430   42.6690 N.2       1 8Y6        -0.3016
     30 C21        30.8640   46.7950   43.4020 C.2       1 8Y6         0.1241
     31 F2         27.0080   40.5270   48.3400 F         1 8Y6        -0.1935
     32 C22        25.4020   42.2370   48.6790 C.ar      1 8Y6         0.0118
     33 C23        24.6150   43.2300   48.1020 C.ar      1 8Y6         0.1180
     34 O5         23.9180   43.9110   49.0250 O.3       1 8Y6        -0.2654
     35 C25        25.1470   42.3190   50.0740 C.2       1 8Y6        -0.0543
     36 C24        24.2390   43.3360   50.2210 C.2       1 8Y6         0.0770
     37 H1         26.6808   44.8306   44.8318 H         1 8Y6         0.0576
     38 H2         29.9815   43.5586   41.3320 H         1 8Y6         0.0542
     39 H3         26.8149   41.0100   45.7947 H         1 8Y6         0.0447
     40 H4         26.2736   41.4808   43.7341 H         1 8Y6         0.0746
     41 H5         25.3266   42.5022   42.5999 H         1 8Y6         0.0746
     42 H6         20.7193   48.5251   47.1085 H         1 8Y6         0.1320
     43 H7         22.1931   47.3571   48.6144 H         1 8Y6         0.0793
     44 H8         23.0804   48.4128   47.4634 H         1 8Y6         0.0793
     45 H9         24.2950   46.2618   47.7820 H         1 8Y6         0.0793
     46 H10        30.1918   48.0868   44.8420 H         1 8Y6         0.2547
     47 H11        31.7824   47.3627   43.2599 H         1 8Y6         0.1499
     48 H12        25.5811   41.7039   50.8608 H         1 8Y6         0.0323
     49 H13        23.8233   43.6480   51.1780 H         1 8Y6         0.0998
@<TRIPOS>BOND
     1    1    2 ar 
     2    1    6 ar 
     3   16    1 1  
     4    2    3 ar 
     5    3    4 ar 
     6    3   26 1  
     7    5    4 ar 
     8    4   29 1  
     9    6    5 ar 
    10    6   25 1  
    11   12    7 1  
    12    7   18 1  
    13    7   22 2  
    14    9    8 ar 
    15    8   12 1  
    16    8   33 ar 
    17   10    9 1  
    18    9   14 ar 
    19   10   11 1  
    20   10   16 1  
    21   11   12 2  
    22   11   15 1  
    23   14   13 ar 
    24   13   31 1  
    25   13   32 ar 
    26   15   17 ar 
    27   15   24 ar 
    28   18   19 1  
    29   18   23 2  
    30   19   20 2  
    31   20   21 1  
    32   21   22 1  
    33   26   27 2  
    34   26   28 am 
    35   28   30 1  
    36   29   30 2  
    37   32   33 ar 
    38   32   35 1  
    39   33   34 1  
    40   34   36 1  
    41   35   36 2  
    42    2   37 1  
    43    5   38 1  
    44   14   39 1  
    45   16   40 1  
    46   16   41 1  
    47   20   42 1  
    48   21   43 1  
    49   21   44 1  
    50   22   45 1  
    51   28   46 1  
    52   30   47 1  
    53   35   48 1  
    54   36   49 1  
@<TRIPOS>SUBSTRUCTURE
     1 8Y6         1

