### 
### Created by X-TOOL on Mon Sep 10 21:13:14 2018
### 

@<TRIPOS>MOLECULE
2yol_ligand
   90    91     1     0     0
SMALL
GAST_HUCK


@<TRIPOS>ATOM
      1 CBE        48.4550  -27.4740  -22.8560 C.2       1 EBN         0.1898
      2 OBF        49.4530  -27.2750  -23.5530 O.2       1 EBN        -0.3939
      3 CBG        47.9490  -28.8910  -22.5440 C.3       1 EBN         0.0706
      4 CBH        48.9590  -29.7240  -22.1240 C.ar      1 EBN        -0.0236
      5 CBI        49.6000  -30.5250  -23.0560 C.ar      1 EBN        -0.0572
      6 CBJ        50.6110  -31.3620  -22.6450 C.ar      1 EBN        -0.0537
      7 CBK        50.9490  -31.3800  -21.3010 C.ar      1 EBN         0.0472
      8 CLL        52.1810  -32.4110  -20.7790 Cl        1 EBN        -0.0761
      9 CBM        50.3020  -30.5800  -20.3640 C.ar      1 EBN         0.0481
     10 CLN        50.7780  -30.6360  -18.6420 Cl        1 EBN        -0.0717
     11 CBO        49.2880  -29.7410  -20.7790 C.ar      1 EBN        -0.0435
     12 NBD        47.6890  -26.5150  -22.3170 N.am      1 EBN        -0.2640
     13 CAX        47.9550  -25.0900  -22.5340 C.3       1 EBN         0.1310
     14 CAV        48.6700  -24.4530  -21.3020 C.2       1 EBN         0.2039
     15 OAW        49.3260  -23.4070  -21.4350 O.2       1 EBN        -0.3944
     16 CAY        46.6440  -24.3810  -22.9750 C.3       1 EBN        -0.0122
     17 CAZ        45.3440  -25.0310  -22.4370 C.3       1 EBN        -0.0440
     18 CBA        44.4680  -25.5930  -23.5870 C.3       1 EBN        -0.0124
     19 CBB        43.9060  -24.4880  -24.5140 C.3       1 EBN        -0.0354
     20 NBC        42.5750  -24.0260  -24.0850 N.4       1 EBN         0.2185
     21 N          48.5350  -25.1480  -20.1400 N.am      1 EBN        -0.2637
     22 CA         49.2050  -24.7630  -18.8790 C.3       1 EBN         0.1308
     23 C          50.4260  -25.6920  -18.7360 C.2       1 EBN         0.2017
     24 O          50.3080  -26.8530  -18.3420 O.2       1 EBN        -0.3945
     25 CB         48.2430  -24.8060  -17.6990 C.3       1 EBN        -0.0122
     26 CG         47.2490  -23.6700  -17.9330 C.3       1 EBN        -0.0440
     27 CD         46.3880  -23.4620  -16.6990 C.3       1 EBN        -0.0124
     28 CE         45.8020  -22.0600  -16.7310 C.3       1 EBN        -0.0354
     29 NZ         45.7600  -21.4860  -15.3730 N.4       1 EBN         0.2185
     30 CAA        53.9240  -25.9020  -22.9520 C.3       1 EBN        -0.0166
     31 CAB        53.6540  -27.3640  -23.1960 C.3       1 EBN         0.0735
     32 NAC        53.6510  -27.6870  -24.6470 N.pl3     1 EBN        -0.2696
     33 CAD        52.6610  -28.1490  -25.4670 C.cat     1 EBN         0.2884
     34 NAE        52.9600  -28.4530  -26.7390 N.pl3     1 EBN        -0.2849
     35 NAF        51.3920  -28.3180  -25.0540 N.pl3     1 EBN        -0.2849
     36 CAG        52.3910  -27.7720  -22.4550 C.3       1 EBN        -0.0166
     37 CAH        52.6140  -27.5530  -20.9650 C.3       1 EBN        -0.0449
     38 CAI        52.8480  -26.0930  -20.7450 C.3       1 EBN        -0.0206
     39 CAJ        54.1110  -25.6920  -21.4370 C.3       1 EBN        -0.0449
     40 CAK        52.8760  -25.8000  -19.2640 C.3       1 EBN         0.0338
     41 NAL        51.5840  -25.1280  -19.1480 N.am      1 EBN        -0.2848
     42 H1         47.4969  -29.3136  -23.4534 H         1 EBN         0.0660
     43 H2         47.1889  -28.8289  -21.7513 H         1 EBN         0.0660
     44 H3         49.3072  -30.4921  -24.0992 H         1 EBN         0.0563
     45 H4         51.1316  -31.9932  -23.3560 H         1 EBN         0.0606
     46 H5         48.7624  -29.1113  -20.0702 H         1 EBN         0.0566
     47 H6         46.9106  -26.7805  -21.7482 H         1 EBN         0.1884
     48 H7         48.6577  -25.0092  -23.3764 H         1 EBN         0.0800
     49 H8         46.6023  -24.3905  -24.0742 H         1 EBN         0.0312
     50 H9         46.6801  -23.3411  -22.6183 H         1 EBN         0.0312
     51 H10        44.7672  -24.2730  -21.8867 H         1 EBN         0.0269
     52 H11        45.6111  -25.8535  -21.7572 H         1 EBN         0.0269
     53 H12        43.6239  -26.1446  -23.1474 H         1 EBN         0.0317
     54 H13        45.0800  -26.2793  -24.1907 H         1 EBN         0.0317
     55 H14        43.8298  -24.8877  -25.5360 H         1 EBN         0.0813
     56 H15        44.5976  -23.6327  -24.5054 H         1 EBN         0.0813
     57 H16        42.2490  -23.3095  -24.7146 H         1 EBN         0.1994
     58 H17        42.6343  -23.6511  -23.1512 H         1 EBN         0.1994
     59 H18        41.9307  -24.8011  -24.0956 H         1 EBN         0.1994
     60 H19        47.9527  -25.9610  -20.1386 H         1 EBN         0.1883
     61 H20        49.5665  -23.7280  -18.9693 H         1 EBN         0.0800
     62 H21        48.7866  -24.6513  -16.7553 H         1 EBN         0.0312
     63 H22        47.7194  -25.7728  -17.6663 H         1 EBN         0.0312
     64 H23        46.6039  -23.9222  -18.7875 H         1 EBN         0.0269
     65 H24        47.8009  -22.7438  -18.1510 H         1 EBN         0.0269
     66 H25        47.0038  -23.5831  -15.7956 H         1 EBN         0.0317
     67 H26        45.5736  -24.2013  -16.6894 H         1 EBN         0.0317
     68 H27        44.7806  -22.1038  -17.1371 H         1 EBN         0.0813
     69 H28        46.4254  -21.4218  -17.3745 H         1 EBN         0.0813
     70 H29        45.3693  -20.5576  -15.4126 H         1 EBN         0.1994
     71 H30        46.6946  -21.4415  -14.9979 H         1 EBN         0.1994
     72 H31        45.1874  -22.0665  -14.7804 H         1 EBN         0.1994
     73 H32        53.0739  -25.3019  -23.3087 H         1 EBN         0.0302
     74 H33        54.8368  -25.5980  -23.4853 H         1 EBN         0.0302
     75 H34        54.4841  -27.9327  -22.7515 H         1 EBN         0.0725
     76 H35        54.5549  -27.5358  -25.1170 H         1 EBN         0.2644
     77 H36        52.2258  -28.8026  -27.3712 H         1 EBN         0.2615
     78 H37        53.9237  -28.3368  -27.0834 H         1 EBN         0.2615
     79 H38        51.1322  -28.0932  -24.0830 H         1 EBN         0.2615
     80 H39        50.6802  -28.6722  -25.7088 H         1 EBN         0.2615
     81 H40        52.1752  -28.8336  -22.6459 H         1 EBN         0.0302
     82 H41        51.5449  -27.1584  -22.7978 H         1 EBN         0.0302
     83 H42        53.4908  -28.1266  -20.6300 H         1 EBN         0.0270
     84 H43        51.7264  -27.8781  -20.4025 H         1 EBN         0.0270
     85 H44        52.0161  -25.5278  -21.1905 H         1 EBN         0.0320
     86 H45        54.3262  -24.6328  -21.2326 H         1 EBN         0.0270
     87 H46        54.9450  -26.3119  -21.0763 H         1 EBN         0.0270
     88 H47        53.7118  -25.1402  -18.9884 H         1 EBN         0.0522
     89 H48        52.9201  -26.7190  -18.6611 H         1 EBN         0.0522
     90 H49        51.5530  -24.1599  -19.3966 H         1 EBN         0.1851
@<TRIPOS>BOND
     1    1    2 2  
     2    1    3 1  
     3   12    1 am 
     4    3    4 1  
     5    4    5 ar 
     6    4   11 ar 
     7    5    6 ar 
     8    6    7 ar 
     9    7    8 1  
    10    9    7 ar 
    11    9   10 1  
    12   11    9 ar 
    13   13   12 1  
    14   14   13 1  
    15   13   16 1  
    16   14   15 2  
    17   21   14 am 
    18   16   17 1  
    19   17   18 1  
    20   18   19 1  
    21   19   20 1  
    22   22   21 1  
    23   23   22 1  
    24   22   25 1  
    25   23   24 2  
    26   41   23 am 
    27   25   26 1  
    28   26   27 1  
    29   27   28 1  
    30   28   29 1  
    31   30   31 1  
    32   39   30 1  
    33   31   32 1  
    34   36   31 1  
    35   32   33 ar 
    36   33   34 ar 
    37   33   35 ar 
    38   37   36 1  
    39   38   37 1  
    40   38   39 1  
    41   40   38 1  
    42   40   41 1  
    43    3   42 1  
    44    3   43 1  
    45    5   44 1  
    46    6   45 1  
    47   11   46 1  
    48   12   47 1  
    49   13   48 1  
    50   16   49 1  
    51   16   50 1  
    52   17   51 1  
    53   17   52 1  
    54   18   53 1  
    55   18   54 1  
    56   19   55 1  
    57   19   56 1  
    58   20   57 1  
    59   20   58 1  
    60   20   59 1  
    61   21   60 1  
    62   22   61 1  
    63   25   62 1  
    64   25   63 1  
    65   26   64 1  
    66   26   65 1  
    67   27   66 1  
    68   27   67 1  
    69   28   68 1  
    70   28   69 1  
    71   29   70 1  
    72   29   71 1  
    73   29   72 1  
    74   30   73 1  
    75   30   74 1  
    76   31   75 1  
    77   32   76 1  
    78   34   77 1  
    79   34   78 1  
    80   35   79 1  
    81   35   80 1  
    82   36   81 1  
    83   36   82 1  
    84   37   83 1  
    85   37   84 1  
    86   38   85 1  
    87   39   86 1  
    88   39   87 1  
    89   40   88 1  
    90   40   89 1  
    91   41   90 1  
@<TRIPOS>SUBSTRUCTURE
     1 EBN         1

