### 
### Created by X-TOOL on Mon Sep 10 21:13:12 2018
### 

@<TRIPOS>MOLECULE
2ypo_ligand
   23    23     1     0     0
SMALL
GAST_HUCK


@<TRIPOS>ATOM
      1 N          80.2060  -61.0600   18.5260 N.4       1 PHE         0.2341
      2 CA         81.6350  -61.0050   18.9940 C.3       1 PHE         0.0378
      3 C          82.5860  -60.7140   17.8180 C.2       1 PHE         0.0866
      4 O          83.6760  -60.1470   18.0240 O.co2     1 PHE        -0.5641
      5 CB         82.0100  -62.3060   19.7080 C.3       1 PHE         0.0361
      6 CG         81.7820  -63.5570   18.9070 C.ar      1 PHE        -0.0360
      7 CD1        82.8030  -64.0650   18.1260 C.ar      1 PHE        -0.0600
      8 CD2        80.6170  -64.3060   19.0600 C.ar      1 PHE        -0.0600
      9 CE1        82.5880  -65.2300   17.3900 C.ar      1 PHE        -0.0686
     10 CE2        80.4150  -65.4760   18.3310 C.ar      1 PHE        -0.0686
     11 CZ         81.3950  -65.9410   17.4990 C.ar      1 PHE        -0.0687
     12 OXT        82.3080  -61.0380   16.6250 O.co2     1 PHE        -0.5641
     13 H1         79.6027  -61.2512   19.3105 H         1 PHE         0.2012
     14 H2         80.1053  -61.7906   17.8389 H         1 PHE         0.2012
     15 H3         79.9527  -60.1751   18.1152 H         1 PHE         0.2012
     16 H4         81.7277  -60.1808   19.7166 H         1 PHE         0.1048
     17 H5         81.4109  -62.3756   20.6279 H         1 PHE         0.0500
     18 H6         83.0776  -62.2572   19.9685 H         1 PHE         0.0500
     19 H7         83.7625  -63.5623   18.0859 H         1 PHE         0.0557
     20 H8         79.8562  -63.9733   19.7569 H         1 PHE         0.0557
     21 H9         83.3625  -65.5884   16.7216 H         1 PHE         0.0599
     22 H10        79.4806  -66.0177   18.4236 H         1 PHE         0.0599
     23 H11        81.2456  -66.8520   16.9309 H         1 PHE         0.0559
@<TRIPOS>BOND
     1    1    2 1  
     2    2    3 1  
     3    2    5 1  
     4    3    4 ar 
     5    3   12 ar 
     6    5    6 1  
     7    6    7 ar 
     8    6    8 ar 
     9    7    9 ar 
    10    8   10 ar 
    11    9   11 ar 
    12   10   11 ar 
    13    1   13 1  
    14    1   14 1  
    15    1   15 1  
    16    2   16 1  
    17    5   17 1  
    18    5   18 1  
    19    7   19 1  
    20    8   20 1  
    21    9   21 1  
    22   10   22 1  
    23   11   23 1  
@<TRIPOS>SUBSTRUCTURE
     1 PHE         1

