### 
### Created by X-TOOL on Fri Sep 26 17:34:58 2014
### 

@<TRIPOS>MOLECULE
2ypp_ligand
   24    24     1     0     0
SMALL
GAST_HUCK


@<TRIPOS>ATOM
      1 N          92.9520  -38.7030  -18.4690 N.4       1 TYR         0.2340
      2 CA         93.3150  -40.0780  -18.9820 C.3       1 TYR         0.0363
      3 C          93.6010  -41.0200  -17.7660 C.2       1 TYR         0.0864
      4 O          93.8150  -40.5520  -16.6500 O.co2     1 TYR        -0.5641
      5 CB         94.5600  -39.9780  -19.8060 C.3       1 TYR         0.0311
      6 CG         95.8200  -39.4520  -19.0930 C.ar      1 TYR        -0.0467
      7 CD1        95.9870  -38.1090  -18.8050 C.ar      1 TYR        -0.0684
      8 CD2        96.8920  -40.2570  -18.9320 C.ar      1 TYR        -0.0684
      9 CE1        97.1520  -37.6190  -18.2350 C.ar      1 TYR        -0.0398
     10 CE2        98.0590  -39.7960  -18.3680 C.ar      1 TYR        -0.0398
     11 CZ         98.1850  -38.4840  -18.0220 C.ar      1 TYR         0.0805
     12 OH         99.4000  -38.0930  -17.5320 O.3       1 TYR        -0.3376
     13 OXT        93.5430  -42.2440  -17.9420 O.co2     1 TYR        -0.5641
     14 H1         92.7666  -38.0916  -19.2487 H         1 TYR         0.2012
     15 H2         93.7175  -38.3336  -17.9271 H         1 TYR         0.2012
     16 H3         92.1299  -38.7669  -17.8893 H         1 TYR         0.2012
     17 H4         92.4913  -40.4827  -19.5883 H         1 TYR         0.1046
     18 H5         94.3485  -39.3044  -20.6495 H         1 TYR         0.0479
     19 H6         94.7886  -40.9838  -20.1883 H         1 TYR         0.0479
     20 H7         95.1824  -37.4189  -19.0320 H         1 TYR         0.0530
     21 H8         96.8317  -41.2901  -19.2545 H         1 TYR         0.0530
     22 H9         97.2399  -36.5729  -17.9649 H         1 TYR         0.0525
     23 H10        98.8826  -40.4800  -18.1979 H         1 TYR         0.0525
     24 H11        99.3735  -37.1661  -17.3255 H         1 TYR         0.2458
@<TRIPOS>BOND
     1    1    2 1  
     2    2    3 1  
     3    2    5 1  
     4    3    4 ar 
     5    3   13 ar 
     6    5    6 1  
     7    6    7 ar 
     8    6    8 ar 
     9    7    9 ar 
    10    8   10 ar 
    11    9   11 ar 
    12   10   11 ar 
    13   11   12 1  
    14    1   14 1  
    15    1   15 1  
    16    1   16 1  
    17    2   17 1  
    18    5   18 1  
    19    5   19 1  
    20    7   20 1  
    21    8   21 1  
    22    9   22 1  
    23   10   23 1  
    24   12   24 1  
@<TRIPOS>SUBSTRUCTURE
     1 TYR         1

