### 
### Created by X-TOOL on Mon Sep 10 21:12:56 2018
### 

@<TRIPOS>MOLECULE
2ywp_ligand
   35    36     1     0     0
SMALL
GAST_HUCK


@<TRIPOS>ATOM
      1 C1         -8.2180    9.1210  -16.5840 C.ar      1 A42         0.1797
      2 N2         -8.4960   10.4450  -16.8740 N.ar      1 A42        -0.2539
      3 C3         -7.5890   11.1700  -17.6270 C.ar      1 A42         0.0739
      4 C4         -6.3680   10.5790  -18.1140 C.ar      1 A42         0.1813
      5 N5         -6.0850    9.2320  -17.8190 N.ar      1 A42        -0.2478
      6 C6         -7.0040    8.5030  -17.0580 C.ar      1 A42         0.0573
      7 C7         -9.1410    8.3950  -15.8240 C.1       1 A42         0.1143
      8 N8         -9.9500    7.8050  -15.2330 N.1       1 A42        -0.3292
      9 N9         -5.4610   11.3170  -18.8640 N.am      1 A42        -0.1860
     10 C10        -4.2900   10.9980  -19.5030 C.2       1 A42         0.3220
     11 O11        -3.8930   11.7460  -20.3940 O.2       1 A42        -0.3783
     12 N12        -3.6650    9.7930  -19.1740 N.am      1 A42        -0.2212
     13 C13        -2.3070    9.4070  -19.2470 C.ar      1 A42         0.0874
     14 C14        -1.3250   10.1140  -20.0850 C.ar      1 A42        -0.0435
     15 C15         0.0460    9.7020  -20.1450 C.ar      1 A42         0.0429
     16 C16         0.5260    8.5640  -19.3860 C.ar      1 A42         0.0812
     17 C17        -0.4380    7.8670  -18.5580 C.ar      1 A42        -0.0159
     18 C18        -1.8370    8.2590  -18.4750 C.ar      1 A42         0.1052
     19 O19        -2.5680    7.4170  -17.6020 O.3       1 A42        -0.3294
     20 C20        -3.5290    6.4780  -18.0800 C.3       1 A42         0.0562
     21 O21         1.8950    8.1970  -19.4790 O.3       1 A42        -0.3325
     22 C22         2.2220    7.0150  -20.2130 C.3       1 A42         0.0562
     23 CL1         1.1210   10.6200  -21.1700 Cl        1 A42        -0.0927
     24 H1         -7.8021   12.2078  -17.8562 H         1 A42         0.0855
     25 H2         -6.8023    7.4643  -16.8222 H         1 A42         0.0975
     26 H3         -5.7142   12.2799  -18.9573 H         1 A42         0.2394
     27 H4         -4.2812    9.0849  -18.8291 H         1 A42         0.2195
     28 H5         -1.6469   10.9672  -20.6711 H         1 A42         0.0447
     29 H6         -0.1023    7.0168  -17.9753 H         1 A42         0.0427
     30 H7         -3.9687    5.9378  -17.2286 H         1 A42         0.0572
     31 H8         -3.0375    5.7614  -18.7545 H         1 A42         0.0572
     32 H9         -4.3221    7.0104  -18.6255 H         1 A42         0.0572
     33 H10         3.3113    6.8626  -20.1962 H         1 A42         0.0572
     34 H11         1.8831    7.1241  -21.2538 H         1 A42         0.0572
     35 H12         1.7234    6.1486  -19.7539 H         1 A42         0.0572
@<TRIPOS>BOND
     1    1    2 ar 
     2    1    6 ar 
     3    1    7 1  
     4    2    3 ar 
     5    3    4 ar 
     6    4    5 ar 
     7    4    9 1  
     8    5    6 ar 
     9    7    8 3  
    10    9   10 am 
    11   10   11 2  
    12   10   12 am 
    13   12   13 1  
    14   13   14 ar 
    15   13   18 ar 
    16   14   15 ar 
    17   15   16 ar 
    18   15   23 1  
    19   16   17 ar 
    20   16   21 1  
    21   17   18 ar 
    22   18   19 1  
    23   19   20 1  
    24   21   22 1  
    25    3   24 1  
    26    6   25 1  
    27    9   26 1  
    28   12   27 1  
    29   14   28 1  
    30   17   29 1  
    31   20   30 1  
    32   20   31 1  
    33   20   32 1  
    34   22   33 1  
    35   22   34 1  
    36   22   35 1  
@<TRIPOS>SUBSTRUCTURE
     1 A42         1

