### 
### Created by X-TOOL on Mon Sep 10 21:12:56 2018
### 

@<TRIPOS>MOLECULE
2yxj_ligand
  103   108     1     0     0
SMALL
GAST_HUCK


@<TRIPOS>ATOM
      1 O34        -6.8210   -9.3490    7.8910 O.2       1 N3C         0.1710
      2 N33        -7.9960   -9.6650    8.1160 N.2       1 N3C         0.3063
      3 O33        -8.5910  -10.2680    7.2320 O.2       1 N3C         0.1710
      4 C33        -8.7050   -9.3520    9.3110 C.ar      1 N3C         0.2184
      5 C32        -8.1150   -8.8000   10.4730 C.ar      1 N3C         0.0839
      6 N35        -6.7530   -8.6160   10.5150 N.pl3     1 N3C        -0.3121
      7 C36        -5.9500   -8.3310   11.7230 C.3       1 N3C         0.0528
      8 C41        -5.8720   -9.5190   12.7080 C.3       1 N3C         0.0299
      9 S42        -5.2620  -10.9770   11.9010 S.3       1 N3C        -0.0994
     10 C43        -6.5580  -11.9270   11.3240 C.ar      1 N3C         0.0154
     11 C48        -7.5510  -12.3990   12.2020 C.ar      1 N3C        -0.0498
     12 C47        -8.6040  -13.1670   11.7080 C.ar      1 N3C        -0.0678
     13 C46        -8.6750  -13.4760   10.3480 C.ar      1 N3C        -0.0687
     14 C45        -7.6960  -13.0020    9.4770 C.ar      1 N3C        -0.0678
     15 C44        -6.6370  -12.2290    9.9630 C.ar      1 N3C        -0.0498
     16 C37        -4.5220   -7.9300   11.3010 C.3       1 N3C         0.0111
     17 C38        -4.4420   -6.4130   11.1040 C.3       1 N3C        -0.0303
     18 N39        -3.2550   -6.0190   10.3040 N.4       1 N3C         0.2310
     19 C40        -3.3280   -4.5600   10.0320 C.3       1 N3C        -0.0433
     20 C39        -1.9810   -6.3610   10.9840 C.3       1 N3C        -0.0433
     21 C31        -8.9390   -8.5370   11.5800 C.ar      1 N3C        -0.0333
     22 C30       -10.3200   -8.7930   11.5340 C.ar      1 N3C        -0.0409
     23 C34       -10.0840   -9.5860    9.2800 C.ar      1 N3C        -0.0029
     24 C29       -10.9260   -9.3060   10.3640 C.ar      1 N3C         0.1080
     25 S28       -12.5220   -9.6560   10.2320 S.o2      1 N3C         0.0857
     26 O28       -13.3010   -8.8930   11.1580 O.2       1 N3C        -0.1471
     27 O29       -12.9610   -9.4010    8.8780 O.2       1 N3C        -0.1471
     28 N27       -12.6220  -11.1630   10.5490 N.am      1 N3C        -0.1564
     29 C26       -12.3020  -11.7290   11.7290 C.2       1 N3C         0.2151
     30 O26       -11.8930  -11.1270   12.7170 O.2       1 N3C        -0.3892
     31 C23       -12.3460  -13.2180   11.8500 C.ar      1 N3C         0.0377
     32 C22       -11.8280  -13.8340   12.9900 C.ar      1 N3C        -0.0534
     33 C21       -11.8180  -15.2210   13.0950 C.ar      1 N3C        -0.0381
     34 C24       -12.8050  -14.0030   10.8090 C.ar      1 N3C        -0.0534
     35 C25       -12.7900  -15.3940   10.9060 C.ar      1 N3C        -0.0381
     36 C20       -12.2930  -16.0330   12.0460 C.ar      1 N3C         0.0460
     37 N17       -12.2810  -17.4410   12.1440 N.pl3     1 N3C        -0.2958
     38 C16       -11.7890  -18.0460   13.3810 C.3       1 N3C         0.0681
     39 C15       -12.1660  -19.5060   13.5100 C.3       1 N3C        -0.0100
     40 C18       -12.7110  -18.2010   10.9770 C.3       1 N3C         0.0681
     41 C19       -12.9170  -19.6680   11.2220 C.3       1 N3C        -0.0100
     42 N14       -12.0590  -20.2500   12.2520 N.4       1 N3C         0.2504
     43 C13       -12.3470  -21.6880   12.5300 C.3       1 N3C         0.0035
     44 C12       -13.1520  -22.3790   11.4650 C.ar      1 N3C         0.0107
     45 C11       -14.5560  -22.3980   11.6510 C.ar      1 N3C        -0.0539
     46 C10       -15.3740  -22.9930   10.7000 C.ar      1 N3C        -0.0680
     47 C9        -14.8000  -23.5640    9.5740 C.ar      1 N3C        -0.0678
     48 C8        -13.4280  -23.5820    9.4000 C.ar      1 N3C        -0.0599
     49 C7        -12.5660  -22.9830   10.3370 C.ar      1 N3C        -0.0101
     50 C4        -11.1990  -23.0450   10.0420 C.ar      1 N3C        -0.0212
     51 C3        -10.3400  -23.8090   10.8260 C.ar      1 N3C        -0.0554
     52 C2         -8.9830  -23.8970   10.5190 C.ar      1 N3C        -0.0485
     53 C5        -10.6850  -22.4070    8.9080 C.ar      1 N3C        -0.0554
     54 C6         -9.3250  -22.5030    8.6010 C.ar      1 N3C        -0.0485
     55 C1         -8.4690  -23.2550    9.4050 C.ar      1 N3C         0.0394
     56 CL1        -6.7180  -23.3830    8.9910 Cl        1 N3C        -0.0713
     57 H1         -6.2449   -8.6830    9.6215 H         1 N3C         0.1792
     58 H2         -6.4163   -7.4844   12.2483 H         1 N3C         0.0564
     59 H3         -6.8770   -9.7224   13.1063 H         1 N3C         0.0424
     60 H4         -5.1960   -9.2565   13.5351 H         1 N3C         0.0424
     61 H5         -7.4972  -12.1661   13.2593 H         1 N3C         0.0565
     62 H6         -9.3721  -13.5264   12.3832 H         1 N3C         0.0600
     63 H7         -9.4899  -14.0832    9.9707 H         1 N3C         0.0559
     64 H8         -7.7556  -13.2332    8.4196 H         1 N3C         0.0600
     65 H9         -5.8765  -11.8638    9.2824 H         1 N3C         0.0565
     66 H10        -4.2656   -8.4341   10.3575 H         1 N3C         0.0339
     67 H11        -3.8116   -8.2338   12.0840 H         1 N3C         0.0339
     68 H12        -4.3824   -5.9292   12.0901 H         1 N3C         0.0815
     69 H13        -5.3498   -6.0739   10.5835 H         1 N3C         0.0815
     70 H14        -2.4536   -4.2534    9.4392 H         1 N3C         0.0777
     71 H15        -3.3367   -4.0094   10.9843 H         1 N3C         0.0777
     72 H16        -4.2477   -4.3371    9.4712 H         1 N3C         0.0777
     73 H17        -1.9470   -7.4436   11.1759 H         1 N3C         0.0777
     74 H18        -1.9171   -5.8173   11.9381 H         1 N3C         0.0777
     75 H19        -1.1346   -6.0757   10.3420 H         1 N3C         0.0777
     76 H20        -8.5023   -8.1298   12.4847 H         1 N3C         0.0533
     77 H21       -10.9295   -8.5943   12.4081 H         1 N3C         0.0647
     78 H22       -10.5195  -10.0018    8.3786 H         1 N3C         0.0677
     79 H23       -12.9498  -11.7664    9.8220 H         1 N3C         0.2133
     80 H24       -11.4316  -13.2289   13.7973 H         1 N3C         0.0636
     81 H25       -11.4387  -15.6847   13.9984 H         1 N3C         0.0530
     82 H26       -13.1806  -13.5323    9.9076 H         1 N3C         0.0636
     83 H27       -13.1700  -15.9898   10.0840 H         1 N3C         0.0530
     84 H28       -12.2137  -17.4967   14.2341 H         1 N3C         0.0569
     85 H29       -10.6923  -17.9632   13.4008 H         1 N3C         0.0569
     86 H30       -13.2058  -19.5673   13.8635 H         1 N3C         0.0834
     87 H31       -11.4992  -19.9739   14.2492 H         1 N3C         0.0834
     88 H32       -11.9459  -18.0889   10.1946 H         1 N3C         0.0569
     89 H33       -13.6621  -17.7763   10.6234 H         1 N3C         0.0569
     90 H34       -12.7271  -20.2012   10.2788 H         1 N3C         0.0834
     91 H35       -13.9637  -19.8195   11.5246 H         1 N3C         0.0834
     92 H36       -12.9040  -21.7503   13.4765 H         1 N3C         0.0987
     93 H37       -11.3881  -22.2169   12.6334 H         1 N3C         0.0987
     94 H38       -14.9918  -21.9481   12.5357 H         1 N3C         0.0559
     95 H39       -16.4493  -23.0111   10.8361 H         1 N3C         0.0602
     96 H40       -15.4383  -24.0042    8.8165 H         1 N3C         0.0561
     97 H41       -13.0090  -24.0666    8.5255 H         1 N3C         0.0605
     98 H42       -10.7305  -24.3419   11.6854 H         1 N3C         0.0613
     99 H43        -8.3241  -24.4734   11.1583 H         1 N3C         0.0620
    100 H44       -11.3445  -21.8357    8.2647 H         1 N3C         0.0613
    101 H45        -8.9324  -21.9889    7.7311 H         1 N3C         0.0620
    102 H46        -3.2833   -6.5142    9.4265 H         1 N3C         0.2028
    103 H47       -11.1084  -20.1833   11.9235 H         1 N3C         0.2050
@<TRIPOS>BOND
     1    1    2 2  
     2    2    3 2  
     3    2    4 1  
     4    4    5 ar 
     5    4   23 ar 
     6    5    6 1  
     7    5   21 ar 
     8    6    7 1  
     9    7    8 1  
    10    7   16 1  
    11    8    9 1  
    12    9   10 1  
    13   10   11 ar 
    14   10   15 ar 
    15   11   12 ar 
    16   12   13 ar 
    17   13   14 ar 
    18   14   15 ar 
    19   16   17 1  
    20   17   18 1  
    21   18   19 1  
    22   18   20 1  
    23   21   22 ar 
    24   22   24 ar 
    25   23   24 ar 
    26   24   25 1  
    27   25   26 2  
    28   25   27 2  
    29   25   28 1  
    30   28   29 am 
    31   29   30 2  
    32   29   31 1  
    33   31   32 ar 
    34   31   34 ar 
    35   32   33 ar 
    36   33   36 ar 
    37   34   35 ar 
    38   35   36 ar 
    39   36   37 1  
    40   37   38 1  
    41   37   40 1  
    42   38   39 1  
    43   39   42 1  
    44   40   41 1  
    45   41   42 1  
    46   42   43 1  
    47   43   44 1  
    48   44   45 ar 
    49   44   49 ar 
    50   45   46 ar 
    51   46   47 ar 
    52   47   48 ar 
    53   48   49 ar 
    54   49   50 1  
    55   50   51 ar 
    56   50   53 ar 
    57   51   52 ar 
    58   52   55 ar 
    59   53   54 ar 
    60   54   55 ar 
    61   55   56 1  
    62    6   57 1  
    63    7   58 1  
    64    8   59 1  
    65    8   60 1  
    66   11   61 1  
    67   12   62 1  
    68   13   63 1  
    69   14   64 1  
    70   15   65 1  
    71   16   66 1  
    72   16   67 1  
    73   17   68 1  
    74   17   69 1  
    75   19   70 1  
    76   19   71 1  
    77   19   72 1  
    78   20   73 1  
    79   20   74 1  
    80   20   75 1  
    81   21   76 1  
    82   22   77 1  
    83   23   78 1  
    84   28   79 1  
    85   32   80 1  
    86   33   81 1  
    87   34   82 1  
    88   35   83 1  
    89   38   84 1  
    90   38   85 1  
    91   39   86 1  
    92   39   87 1  
    93   40   88 1  
    94   40   89 1  
    95   41   90 1  
    96   41   91 1  
    97   43   92 1  
    98   43   93 1  
    99   45   94 1  
   100   46   95 1  
   101   47   96 1  
   102   48   97 1  
   103   51   98 1  
   104   52   99 1  
   105   53  100 1  
   106   54  101 1  
   107   18  102 1  
   108   42  103 1  
@<TRIPOS>SUBSTRUCTURE
     1 N3C         1

