### 
### Created by X-TOOL on Mon Sep 10 21:12:58 2018
### 

@<TRIPOS>MOLECULE
2yz3_ligand
   30    30     1     0     0
SMALL
GAST_HUCK


@<TRIPOS>ATOM
      1 C1         34.5260    5.8250  107.5980 C.ar      1 M5P        -0.0603
      2 C2         35.6080    5.2180  106.9670 C.ar      1 M5P        -0.0686
      3 C3         36.9080    5.5610  107.3290 C.ar      1 M5P        -0.0687
      4 C4         37.1230    6.5060  108.3300 C.ar      1 M5P        -0.0686
      5 C5         36.0420    7.1110  108.9610 C.ar      1 M5P        -0.0603
      6 C6         34.7400    6.7780  108.5890 C.ar      1 M5P        -0.0430
      7 C7         33.5480    7.5720  109.1320 C.3       1 M5P        -0.0190
      8 C8         33.7360    9.0420  108.7510 C.3       1 M5P        -0.0415
      9 C9         32.4350    9.7360  108.3440 C.3       1 M5P        -0.0361
     10 C10        32.7740   11.0190  107.5820 C.3       1 M5P         0.0207
     11 C12        31.5750   11.5870  106.8220 C.2       1 M5P         0.0386
     12 O2         31.4660   11.3770  105.6130 O.co2     1 M5P        -0.5687
     13 O1         30.7330   12.2740  107.3930 O.co2     1 M5P        -0.5687
     14 C11        33.3840   12.0800  108.4950 C.3       1 M5P         0.0050
     15 S1         35.1490   12.3230  108.0790 S.3       1 M5P        -0.1762
     16 H1         33.5146    5.5548  107.3168 H         1 M5P         0.0557
     17 H2         35.4385    4.4779  106.1934 H         1 M5P         0.0599
     18 H3         37.7511    5.0938  106.8331 H         1 M5P         0.0559
     19 H4         38.1344    6.7698  108.6172 H         1 M5P         0.0599
     20 H5         36.2114    7.8423  109.7430 H         1 M5P         0.0557
     21 H6         33.5037    7.4743  110.2267 H         1 M5P         0.0426
     22 H7         32.6151    7.1901  108.6917 H         1 M5P         0.0426
     23 H8         34.4388    9.0961  107.9065 H         1 M5P         0.0288
     24 H9         34.1595    9.5747  109.6152 H         1 M5P         0.0288
     25 H10        31.8520    9.9839  109.2432 H         1 M5P         0.0287
     26 H11        31.8466    9.0677  107.6981 H         1 M5P         0.0287
     27 H12        33.5360   10.7544  106.8341 H         1 M5P         0.0474
     28 H13        33.2981   11.7530  109.5417 H         1 M5P         0.0394
     29 H14        32.8443   13.0292  108.3619 H         1 M5P         0.0394
     30 H15        35.5426   13.0245  108.6864 H         1 M5P         0.1017
@<TRIPOS>BOND
     1    1    2 ar 
     2    1    6 ar 
     3    2    3 ar 
     4    3    4 ar 
     5    4    5 ar 
     6    5    6 ar 
     7    6    7 1  
     8    7    8 1  
     9    8    9 1  
    10    9   10 1  
    11   10   11 1  
    12   10   14 1  
    13   11   12 ar 
    14   11   13 ar 
    15   14   15 1  
    16    1   16 1  
    17    2   17 1  
    18    3   18 1  
    19    4   19 1  
    20    5   20 1  
    21    7   21 1  
    22    7   22 1  
    23    8   23 1  
    24    8   24 1  
    25    9   25 1  
    26    9   26 1  
    27   10   27 1  
    28   14   28 1  
    29   14   29 1  
    30   15   30 1  
@<TRIPOS>SUBSTRUCTURE
     1 M5P         1

