### 
### Created by X-TOOL on Mon Sep 10 21:12:55 2018
### 

@<TRIPOS>MOLECULE
2z1w_ligand
   27    28     1     0     0
SMALL
GAST_HUCK


@<TRIPOS>ATOM
      1 N1         15.3260   16.8160   20.5860 N.pl3     1 BDI        -0.2398
      2 C1         16.4920   17.0800   19.9530 C.2       1 BDI         0.1238
      3 C6         16.6780   17.0770   18.4640 C.3       1 BDI         0.0274
      4 C7         16.4440   18.4620   17.8730 C.3       1 BDI        -0.0366
      5 C8         16.6170   18.3760   16.3400 C.3       1 BDI        -0.0535
      6 C9         16.2990   19.7140   15.7300 C.3       1 BDI        -0.0651
      7 N2         17.4820   17.3890   20.7740 N.2       1 BDI        -0.3056
      8 C2         16.9880   17.3380   22.0080 C.2       1 BDI         0.1055
      9 C4         17.6070   17.5830   23.3510 C.2       1 BDI         0.2188
     10 N5         16.7740   17.4320   24.3990 N.am      1 BDI        -0.1851
     11 N4         15.4090   17.0720   24.3030 N.am      1 BDI        -0.1821
     12 C5         14.7680   16.8290   23.1140 C.2       1 BDI         0.2476
     13 O1         13.6020   16.5220   23.0620 O.2       1 BDI        -0.3849
     14 C3         15.5740   16.9620   21.8890 C.2       1 BDI         0.1656
     15 O3         18.8010   17.8980   23.4150 O.2       1 BDI        -0.3913
     16 H1         14.4295   16.5554   20.1509 H         1 BDI         0.2418
     17 H2         15.9639   16.3709   18.0153 H         1 BDI         0.0512
     18 H3         17.7046   16.7574   18.2319 H         1 BDI         0.0512
     19 H4         17.1741   19.1715   18.2896 H         1 BDI         0.0294
     20 H5         15.4254   18.8007   18.1131 H         1 BDI         0.0294
     21 H6         15.9336   17.6153   15.9348 H         1 BDI         0.0264
     22 H7         17.6550   18.1006   16.1018 H         1 BDI         0.0264
     23 H8         16.4209   19.6575   14.6382 H         1 BDI         0.0230
     24 H9         16.9825   20.4740   16.1363 H         1 BDI         0.0230
     25 H10        15.2611   19.9887   15.9693 H         1 BDI         0.0230
     26 H11        17.1485   17.5859   25.3134 H         1 BDI         0.2151
     27 H12        14.8818   16.9900   25.1488 H         1 BDI         0.2153
@<TRIPOS>BOND
     1    1    2 1  
     2    1   14 1  
     3    2    3 1  
     4    2    7 2  
     5    3    4 1  
     6    4    5 1  
     7    5    6 1  
     8    7    8 1  
     9    8    9 1  
    10    8   14 2  
    11    9   10 am 
    12    9   15 2  
    13   10   11 1  
    14   11   12 am 
    15   12   13 2  
    16   12   14 1  
    17    1   16 1  
    18    3   17 1  
    19    3   18 1  
    20    4   19 1  
    21    4   20 1  
    22    5   21 1  
    23    5   22 1  
    24    6   23 1  
    25    6   24 1  
    26    6   25 1  
    27   10   26 1  
    28   11   27 1  
@<TRIPOS>SUBSTRUCTURE
     1 BDI         1

