### 
### Created by X-TOOL on Mon Sep 10 21:12:55 2018
### 

@<TRIPOS>MOLECULE
2z3h_ligand
   56    57     1     0     0
SMALL
GAST_HUCK


@<TRIPOS>ATOM
      1 O7         22.3430   32.4620  106.1530 O.2       1 BLO        -0.3967
      2 C7         22.1350   33.6630  106.0430 C.2       1 BLO         0.1834
      3 C8         20.8110   34.3200  106.3880 C.3       1 BLO         0.0802
      4 C9         19.6000   33.5110  105.9650 C.3       1 BLO        -0.0042
      5 C10        18.3650   34.3800  106.1790 C.3       1 BLO         0.0256
      6 C11        17.6890   34.7410  104.8590 C.3       1 BLO         0.0698
      7 N12        16.7790   35.8840  105.0450 N.pl3     1 BLO        -0.2622
      8 C14        15.5020   35.7360  105.6580 C.cat     1 BLO         0.2901
      9 N15        15.0380   34.5380  106.0180 N.pl3     1 BLO        -0.2848
     10 N14        14.7450   36.8130  105.8930 N.pl3     1 BLO        -0.2848
     11 C13        17.2370   37.2180  104.6300 C.3       1 BLO         0.0537
     12 N9         19.5210   32.3470  106.8220 N.4       1 BLO         0.2225
     13 N6         23.0500   34.5180  105.6150 N.am      1 BLO        -0.2716
     14 C4'        24.4140   34.1440  105.2410 C.3       1 BLO         0.0973
     15 C3'        24.7990   34.5580  103.8200 C.2       1 BLO        -0.0645
     16 C2'        25.8490   35.2520  103.5750 C.2       1 BLO        -0.0362
     17 C5'        25.3420   34.9440  106.1670 C.3       1 BLO         0.1455
     18 C6'        25.3650   34.4530  107.5860 C.2       1 BLO         0.0681
     19 O3         24.6820   35.0880  108.4120 O.co2     1 BLO        -0.5661
     20 O4         26.0700   33.4720  107.8920 O.co2     1 BLO        -0.5661
     21 O5'        26.6920   34.8280  105.7190 O.3       1 BLO        -0.3165
     22 C1'        26.8710   35.1500  104.3580 C.3       1 BLO         0.1976
     23 N1         28.1290   34.9710  103.8950 N.am      1 BLO        -0.1537
     24 C6         28.2760   33.6580  103.6480 C.2       1 BLO         0.0610
     25 C5         29.4590   33.1670  103.1400 C.2       1 BLO         0.0064
     26 C4         30.4470   34.0990  102.8880 C.2       1 BLO         0.1822
     27 O1         31.5770   33.6910  102.3200 O.2       1 BLO        -0.4124
     28 N3         30.3040   35.4090  103.1950 N.am      1 BLO        -0.1864
     29 C2         29.1210   35.8680  103.6780 C.2       1 BLO         0.3344
     30 O2         29.0190   37.1010  103.8850 O.2       1 BLO        -0.3814
     31 H1         20.7676   35.2980  105.8864 H         1 BLO         0.0559
     32 H2         20.7686   34.4645  107.4776 H         1 BLO         0.0559
     33 H3         19.6808   33.2081  104.9106 H         1 BLO         0.0877
     34 H4         18.6660   35.3066  106.6897 H         1 BLO         0.0356
     35 H5         17.6482   33.8311  106.8074 H         1 BLO         0.0356
     36 H6         17.1147   33.8755  104.4971 H         1 BLO         0.0692
     37 H7         18.4579   35.0065  104.1185 H         1 BLO         0.0692
     38 H8         14.1112   34.4562  106.4598 H         1 BLO         0.2615
     39 H9         15.6066   33.6950  105.8541 H         1 BLO         0.2615
     40 H10        15.0823   37.7482  105.6238 H         1 BLO         0.2615
     41 H11        13.8246   36.7073  106.3432 H         1 BLO         0.2615
     42 H12        16.4477   37.9565  104.8339 H         1 BLO         0.0653
     43 H13        17.4622   37.2099  103.5533 H         1 BLO         0.0653
     44 H14        18.1437   37.4858  105.1923 H         1 BLO         0.0653
     45 H15        20.3363   31.7710  106.6823 H         1 BLO         0.1998
     46 H16        18.6933   31.8183  106.5952 H         1 BLO         0.1998
     47 H17        19.4785   32.6411  107.7852 H         1 BLO         0.1998
     48 H18        22.7925   35.4816  105.5426 H         1 BLO         0.1880
     49 H19        24.5527   33.0601  105.3674 H         1 BLO         0.0725
     50 H20        24.1619   34.2541  102.9908 H         1 BLO         0.0476
     51 H21        25.8787   35.9204  102.7157 H         1 BLO         0.0505
     52 H22        25.0248   35.9971  106.1505 H         1 BLO         0.0814
     53 H23        26.9693   36.2350  104.5100 H         1 BLO         0.1098
     54 H24        27.4521   32.9756  103.8514 H         1 BLO         0.1180
     55 H25        29.6066   32.1052  102.9482 H         1 BLO         0.0258
     56 H26        31.0697   36.0392  103.0661 H         1 BLO         0.2259
@<TRIPOS>BOND
     1    1    2 2  
     2    2    3 1  
     3    2   13 am 
     4    3    4 1  
     5    4    5 1  
     6    4   12 1  
     7    5    6 1  
     8    6    7 1  
     9    7    8 ar 
    10    7   11 1  
    11    8    9 ar 
    12    8   10 ar 
    13   13   14 1  
    14   14   15 1  
    15   14   17 1  
    16   15   16 2  
    17   16   22 1  
    18   17   18 1  
    19   17   21 1  
    20   18   19 ar 
    21   18   20 ar 
    22   21   22 1  
    23   22   23 1  
    24   23   24 1  
    25   23   29 am 
    26   24   25 2  
    27   25   26 1  
    28   26   27 2  
    29   26   28 am 
    30   28   29 am 
    31   29   30 2  
    32    3   31 1  
    33    3   32 1  
    34    4   33 1  
    35    5   34 1  
    36    5   35 1  
    37    6   36 1  
    38    6   37 1  
    39    9   38 1  
    40    9   39 1  
    41   10   40 1  
    42   10   41 1  
    43   11   42 1  
    44   11   43 1  
    45   11   44 1  
    46   12   45 1  
    47   12   46 1  
    48   12   47 1  
    49   13   48 1  
    50   14   49 1  
    51   15   50 1  
    52   16   51 1  
    53   17   52 1  
    54   22   53 1  
    55   24   54 1  
    56   25   55 1  
    57   28   56 1  
@<TRIPOS>SUBSTRUCTURE
     1 BLO         1

