### 
### Created by X-TOOL on Mon Sep 10 21:12:56 2018
### 

@<TRIPOS>MOLECULE
2z4b_ligand
   39    42     1     0     0
SMALL
GAST_HUCK


@<TRIPOS>ATOM
      1 C4         78.2600   40.8340   69.8430 C.ar      1 DC8         0.0845
      2 C6         77.1140   38.7230   70.0700 C.3       1 DC8         0.1109
      3 C8         76.6010   38.8260   68.6060 C.3       1 DC8         0.0139
      4 C10        75.2700   39.6550   68.4640 C.3       1 DC8         0.0198
      5 C15        77.5710   39.6040   67.6790 C.3       1 DC8         0.0013
      6 C17        78.3850   40.6910   68.4310 C.ar      1 DC8        -0.0179
      7 C20        75.3940   36.7880   70.6010 C.ar      1 DC8        -0.0660
      8 C21        74.5450   36.0760   71.4990 C.ar      1 DC8        -0.0397
      9 C22        74.4340   36.4900   72.8470 C.ar      1 DC8         0.0805
     10 C24        75.1660   37.6160   73.3030 C.ar      1 DC8        -0.0397
     11 C1         80.0240   42.5650   68.3980 C.ar      1 DC8         0.0697
     12 C2         79.8840   42.7000   69.7970 C.ar      1 DC8        -0.0489
     13 C3         79.0180   41.8470   70.5110 C.ar      1 DC8        -0.0478
     14 O5         77.4200   40.0300   70.6300 O.3       1 DC8        -0.3146
     15 C11        75.3500   40.4150   67.1180 C.3       1 DC8         0.2514
     16 F12        74.2950   40.0060   66.2830 F         1 DC8        -0.2055
     17 F13        75.2520   41.8020   67.3130 F         1 DC8        -0.2055
     18 C14        76.7040   40.1040   66.4950 C.3       1 DC8         0.0221
     19 C18        79.2840   41.5630   67.7070 C.ar      1 DC8        -0.0399
     20 C19        76.1450   37.9260   71.0440 C.ar      1 DC8        -0.0208
     21 O23        73.6130   35.8070   73.7130 O.3       1 DC8        -0.3376
     22 C25        76.0110   38.3250   72.4150 C.ar      1 DC8        -0.0660
     23 O26        80.8680   43.4340   67.7210 O.3       1 DC8        -0.3420
     24 H1         78.0569   38.1579   70.0294 H         1 DC8         0.0790
     25 H2         76.4513   37.8045   68.2264 H         1 DC8         0.0373
     26 H3         75.1794   40.3690   69.2958 H         1 DC8         0.0329
     27 H4         74.4023   38.9790   68.4648 H         1 DC8         0.0329
     28 H5         78.3070   38.8928   67.2759 H         1 DC8         0.0444
     29 H6         75.4725   36.4643   69.5694 H         1 DC8         0.0531
     30 H7         73.9844   35.2170   71.1483 H         1 DC8         0.0525
     31 H8         75.0783   37.9351   74.3353 H         1 DC8         0.0525
     32 H9         80.4451   43.4631   70.3241 H         1 DC8         0.0458
     33 H10        78.9248   41.9606   71.5850 H         1 DC8         0.0496
     34 H11        76.6080   39.3229   65.7264 H         1 DC8         0.0345
     35 H12        77.1424   41.0078   66.0466 H         1 DC8         0.0345
     36 H13        79.3950   41.4535   66.6343 H         1 DC8         0.0453
     37 H14        74.1283   35.4692   74.4361 H         1 DC8         0.2458
     38 H15        76.5655   39.1831   72.7773 H         1 DC8         0.0531
     39 H16        80.3656   43.9316   67.0866 H         1 DC8         0.2443
@<TRIPOS>BOND
     1    6    1 ar 
     2    1   13 ar 
     3    1   14 1  
     4    3    2 1  
     5   14    2 1  
     6    2   20 1  
     7    3    4 1  
     8    5    3 1  
     9    4   15 1  
    10    6    5 1  
    11    5   18 1  
    12   19    6 ar 
    13    7    8 ar 
    14   20    7 ar 
    15    8    9 ar 
    16    9   10 ar 
    17    9   21 1  
    18   10   22 ar 
    19   11   12 ar 
    20   11   19 ar 
    21   11   23 1  
    22   12   13 ar 
    23   15   16 1  
    24   15   17 1  
    25   15   18 1  
    26   20   22 ar 
    27    2   24 1  
    28    3   25 1  
    29    4   26 1  
    30    4   27 1  
    31    5   28 1  
    32    7   29 1  
    33    8   30 1  
    34   10   31 1  
    35   12   32 1  
    36   13   33 1  
    37   18   34 1  
    38   18   35 1  
    39   19   36 1  
    40   21   37 1  
    41   22   38 1  
    42   23   39 1  
@<TRIPOS>SUBSTRUCTURE
     1 DC8         1

