### 
### Created by X-TOOL on Mon Sep 10 21:12:57 2018
### 

@<TRIPOS>MOLECULE
2z4o_ligand
   76    80     1     0     0
SMALL
GAST_HUCK


@<TRIPOS>ATOM
      1 C2         20.8150   27.5840   14.9490 C.ar      1 065         0.1233
      2 O39        21.7420   28.5790   14.7800 O.3       1 065        -0.2910
      3 C40        22.9230   28.1220   15.3260 C.3       1 065         0.1868
      4 O41        22.7600   26.8340   15.7700 O.3       1 065        -0.2909
      5 C3         21.4380   26.5200   15.5880 C.ar      1 065         0.1250
      6 C4         20.6940   25.3930   15.8970 C.ar      1 065        -0.0149
      7 C5         19.3320   25.3180   15.5980 C.ar      1 065         0.0885
      8 C6         18.7270   26.3840   14.9700 C.ar      1 065        -0.0554
      9 C7         19.4590   27.5160   14.6390 C.ar      1 065        -0.0395
     10 S8         18.4410   23.8760   16.0410 S.o2      1 065         0.0633
     11 O9         17.3270   23.6190   15.0930 O.2       1 065        -0.1517
     12 O10        19.4260   22.7510   16.1670 O.2       1 065        -0.1517
     13 N11        17.8000   24.0950   17.5370 N.am      1 065        -0.2326
     14 C12        18.7450   24.4820   18.5680 C.3       1 065         0.0319
     15 C13        18.4200   23.8630   19.9310 C.3       1 065        -0.0296
     16 C14        18.3370   22.3480   19.8610 C.3       1 065        -0.0612
     17 C15        19.4830   24.2590   20.9660 C.3       1 065        -0.0612
     18 C16        16.5610   24.8690   17.5340 C.3       1 065         0.0578
     19 C17        15.4150   23.9930   18.0420 C.3       1 065         0.0967
     20 O18        14.2420   24.7490   18.3230 O.3       1 065        -0.3877
     21 C19        15.1050   22.8310   17.0990 C.3       1 065         0.0807
     22 N20        14.2160   21.9200   17.8200 N.am      1 065        -0.2550
     23 C21        14.4610   20.6740   18.1870 C.2       1 065         0.3203
     24 O22        15.5120   20.0920   17.9210 O.2       1 065        -0.3775
     25 O23        13.4370   20.0990   18.8730 O.3       1 065        -0.2578
     26 C24        13.5830   18.6990   19.0760 C.3       1 065         0.1189
     27 C25        13.0000   18.3800   20.4560 C.3       1 065         0.0815
     28 O26        11.5790   18.5010   20.2590 O.3       1 065        -0.3480
     29 C27        11.2920   18.0120   18.9550 C.3       1 065         0.1648
     30 O28        10.4050   18.8880   18.2630 O.3       1 065        -0.3509
     31 C29        11.1640   19.6190   17.3190 C.3       1 065         0.0512
     32 C30        12.2510   18.6250   16.8700 C.3       1 065        -0.0191
     33 C31        12.5990   17.9370   18.1860 C.3       1 065         0.0449
     34 C32        14.3990   23.2650   15.8210 C.3       1 065         0.0064
     35 C33        12.6910   21.7030   14.7750 C.ar      1 065        -0.0603
     36 C34        12.3370   20.5890   14.0150 C.ar      1 065        -0.0686
     37 C35        13.3090   19.8420   13.3610 C.ar      1 065        -0.0687
     38 C36        14.6380   20.2320   13.5140 C.ar      1 065        -0.0686
     39 C37        14.9880   21.3230   14.2930 C.ar      1 065        -0.0603
     40 C38        14.0140   22.0730   14.9470 C.ar      1 065        -0.0408
     41 H1         23.2087   28.7663   16.1705 H         1 065         0.0973
     42 H2         23.7133   28.1477   14.5613 H         1 065         0.0973
     43 H3         21.1788   24.5526   16.3805 H         1 065         0.0528
     44 H4         17.6704   26.3386   14.7322 H         1 065         0.0514
     45 H5         18.9751   28.3473   14.1391 H         1 065         0.0509
     46 H6         18.7293   25.5775   18.6664 H         1 065         0.0480
     47 H7         19.7505   24.1555   18.2641 H         1 065         0.0480
     48 H8         17.4444   24.2503   20.2600 H         1 065         0.0311
     49 H9         18.1026   21.9472   20.8582 H         1 065         0.0233
     50 H10        19.3015   21.9432   19.5206 H         1 065         0.0233
     51 H11        17.5468   22.0563   19.1536 H         1 065         0.0233
     52 H12        19.5491   25.3556   21.0225 H         1 065         0.0233
     53 H13        20.4581   23.8479   20.6658 H         1 065         0.0233
     54 H14        19.2032   23.8573   21.9511 H         1 065         0.0233
     55 H15        16.3403   25.2049   16.5101 H         1 065         0.0504
     56 H16        16.6731   25.7442   18.1909 H         1 065         0.0504
     57 H17        15.7502   23.5537   18.9931 H         1 065         0.0634
     58 H18        13.9509   25.1858   17.5312 H         1 065         0.2100
     59 H19        16.0422   22.3195   16.8346 H         1 065         0.0604
     60 H20        13.3166   22.2828   18.0641 H         1 065         0.1873
     61 H21        14.6258   18.3734   18.9477 H         1 065         0.0675
     62 H22        13.3549   19.0997   21.2083 H         1 065         0.0590
     63 H23        13.2676   17.3601   20.7693 H         1 065         0.0590
     64 H24        10.8381   17.0126   19.0270 H         1 065         0.0913
     65 H25        11.6146   20.5086   17.7833 H         1 065         0.0561
     66 H26        10.5389   19.9265   16.4677 H         1 065         0.0561
     67 H27        13.1222   19.1467   16.4471 H         1 065         0.0293
     68 H28        11.8598   17.9079   16.1333 H         1 065         0.0293
     69 H29        12.9457   16.9076   18.0125 H         1 065         0.0380
     70 H30        15.0711   23.9220   15.2495 H         1 065         0.0449
     71 H31        13.4867   23.8179   16.0894 H         1 065         0.0449
     72 H32        11.9115   22.2937   15.2425 H         1 065         0.0557
     73 H33        11.2945   20.3032   13.9337 H         1 065         0.0599
     74 H34        13.0426   18.9853   12.7526 H         1 065         0.0559
     75 H35        15.4162   19.6687   13.0118 H         1 065         0.0599
     76 H36        16.0322   21.5959   14.3945 H         1 065         0.0557
@<TRIPOS>BOND
     1    1    2 1  
     2    5    1 ar 
     3    9    1 ar 
     4    2    3 1  
     5    4    3 1  
     6    5    4 1  
     7    6    5 ar 
     8    7    6 ar 
     9    7    8 ar 
    10   10    7 1  
    11    8    9 ar 
    12   10   11 2  
    13   10   12 2  
    14   13   10 am 
    15   13   14 1  
    16   18   13 1  
    17   14   15 1  
    18   15   16 1  
    19   15   17 1  
    20   19   18 1  
    21   19   20 1  
    22   21   19 1  
    23   21   22 1  
    24   34   21 1  
    25   22   23 am 
    26   23   24 2  
    27   23   25 1  
    28   25   26 1  
    29   26   27 1  
    30   26   33 1  
    31   27   28 1  
    32   29   28 1  
    33   29   30 1  
    34   33   29 1  
    35   31   30 1  
    36   32   31 1  
    37   33   32 1  
    38   40   34 1  
    39   35   36 ar 
    40   35   40 ar 
    41   36   37 ar 
    42   37   38 ar 
    43   38   39 ar 
    44   39   40 ar 
    45    3   41 1  
    46    3   42 1  
    47    6   43 1  
    48    8   44 1  
    49    9   45 1  
    50   14   46 1  
    51   14   47 1  
    52   15   48 1  
    53   16   49 1  
    54   16   50 1  
    55   16   51 1  
    56   17   52 1  
    57   17   53 1  
    58   17   54 1  
    59   18   55 1  
    60   18   56 1  
    61   19   57 1  
    62   20   58 1  
    63   21   59 1  
    64   22   60 1  
    65   26   61 1  
    66   27   62 1  
    67   27   63 1  
    68   29   64 1  
    69   31   65 1  
    70   31   66 1  
    71   32   67 1  
    72   32   68 1  
    73   33   69 1  
    74   34   70 1  
    75   34   71 1  
    76   35   72 1  
    77   36   73 1  
    78   37   74 1  
    79   38   75 1  
    80   39   76 1  
@<TRIPOS>SUBSTRUCTURE
     1 065         1

