### 
### Created by X-TOOL on Mon Sep 10 21:12:56 2018
### 

@<TRIPOS>MOLECULE
2z5o_ligand
  103   102     1     0     0
SMALL
GAST_HUCK


@<TRIPOS>ATOM
      1 N          35.9310  -34.4600  -37.5320 N.4       1 UNK         0.2377
      2 CA         34.4870  -34.7120  -37.2310 C.3       1 UNK         0.0621
      3 C          33.8050  -35.6090  -38.2750 C.2       1 UNK         0.2264
      4 O          32.5790  -35.7400  -38.2710 O.2       1 UNK        -0.3907
      5 CB         33.7310  -33.3830  -37.0730 C.3       1 UNK        -0.0040
      6 N          34.6100  -36.2300  -39.1440 N.am      1 UNK        -0.2613
      7 CA         34.1350  -37.0960  -40.2380 C.3       1 UNK         0.1283
      8 C          33.0770  -36.4190  -41.1230 C.2       1 UNK         0.2036
      9 O          33.3170  -35.3300  -41.6460 O.2       1 UNK        -0.3944
     10 CB         33.6490  -38.4590  -39.7040 C.3       1 UNK        -0.0244
     11 N          31.9180  -37.0610  -41.2790 N.am      1 UNK        -0.2640
     12 CA         30.8170  -36.5260  -42.0840 C.3       1 UNK         0.1282
     13 C          30.0910  -35.3950  -41.3490 C.2       1 UNK         0.2036
     14 O          30.3530  -35.1690  -40.1750 O.2       1 UNK        -0.3944
     15 CB         29.8500  -37.6420  -42.4530 C.3       1 UNK        -0.0244
     16 N          29.1920  -34.6850  -42.0340 N.am      1 UNK        -0.2640
     17 CA         28.4540  -33.5630  -41.4270 C.3       1 UNK         0.1282
     18 C          27.2700  -34.0390  -40.6020 C.2       1 UNK         0.2036
     19 O          26.4380  -34.7920  -41.0900 O.2       1 UNK        -0.3944
     20 CB         27.9790  -32.5770  -42.4880 C.3       1 UNK        -0.0244
     21 N          27.2020  -33.6100  -39.3470 N.am      1 UNK        -0.2640
     22 CA         26.0370  -33.8830  -38.5100 C.3       1 UNK         0.1282
     23 C          25.4550  -32.5530  -38.0320 C.2       1 UNK         0.2036
     24 O          26.1860  -31.6840  -37.5550 O.2       1 UNK        -0.3944
     25 CB         26.3970  -34.8030  -37.3360 C.3       1 UNK        -0.0244
     26 N          24.1400  -32.4010  -38.1840 N.am      1 UNK        -0.2640
     27 CA         23.4470  -31.1310  -37.9540 C.3       1 UNK         0.1282
     28 C          23.6770  -30.5230  -36.5390 C.2       1 UNK         0.2036
     29 O          23.8150  -29.3060  -36.3750 O.2       1 UNK        -0.3944
     30 CB         21.9650  -31.3080  -38.2630 C.3       1 UNK        -0.0244
     31 N          23.7300  -31.3930  -35.5350 N.am      1 UNK        -0.2640
     32 CA         24.0230  -31.0400  -34.1480 C.3       1 UNK         0.1282
     33 C          24.9040  -32.1780  -33.5780 C.2       1 UNK         0.2036
     34 O          25.4440  -32.9700  -34.3540 O.2       1 UNK        -0.3944
     35 CB         22.7240  -30.8910  -33.3720 C.3       1 UNK        -0.0244
     36 N          25.0710  -32.2630  -32.2570 N.am      1 UNK        -0.2640
     37 CA         25.9210  -33.3130  -31.6590 C.3       1 UNK         0.1282
     38 C          25.5130  -33.6470  -30.2260 C.2       1 UNK         0.2036
     39 O          25.1730  -32.7480  -29.4510 O.2       1 UNK        -0.3944
     40 CB         27.3980  -32.9170  -31.7040 C.3       1 UNK        -0.0244
     41 N          25.5500  -34.9340  -29.8670 N.am      1 UNK        -0.2640
     42 CA         25.2330  -35.3350  -28.4930 C.3       1 UNK         0.1282
     43 C          26.1720  -34.6220  -27.4820 C.2       1 UNK         0.2031
     44 O          26.6530  -35.3010  -26.4090 O.2       1 UNK        -0.3944
     45 CB         25.3410  -36.8680  -28.3460 C.3       1 UNK        -0.0244
     46 N          26.4280  -33.2500  -27.8520 N.am      1 UNK        -0.2698
     47 CA         27.2890  -32.3510  -27.0560 C.3       1 UNK         0.0916
     48 C          28.7640  -33.1660  -26.6160 C.2       1 UNK         0.0598
     49 O          29.5780  -32.5150  -25.7860 O.co2     1 UNK        -0.5666
     50 CB         26.4270  -31.9710  -25.6060 C.3       1 UNK        -0.0300
     51 OXT        29.2090  -34.2610  -27.1850 O.co2     1 UNK        -0.5666
     52 H1         36.3250  -33.8685  -36.8171 H         1 UNK         0.2015
     53 H2         36.0131  -34.0048  -38.4276 H         1 UNK         0.2015
     54 H3         36.4277  -35.3369  -37.5539 H         1 UNK         0.2015
     55 H4         34.4407  -35.2403  -36.2673 H         1 UNK         0.1095
     56 H5         32.6728  -33.5871  -36.8524 H         1 UNK         0.0310
     57 H6         33.8062  -32.8052  -38.0060 H         1 UNK         0.0310
     58 H7         34.1728  -32.8057  -36.2475 H         1 UNK         0.0310
     59 H8         35.5964  -36.0985  -39.0453 H         1 UNK         0.1884
     60 H9         35.0034  -37.2958  -40.8830 H         1 UNK         0.0797
     61 H10        33.3023  -39.0792  -40.5437 H         1 UNK         0.0277
     62 H11        32.8205  -38.3018  -38.9977 H         1 UNK         0.0277
     63 H12        34.4776  -38.9680  -39.1899 H         1 UNK         0.0277
     64 H13        31.7956  -37.9448  -40.8274 H         1 UNK         0.1883
     65 H14        31.2386  -36.1137  -43.0125 H         1 UNK         0.0797
     66 H15        29.0279  -37.2301  -43.0567 H         1 UNK         0.0277
     67 H16        29.4417  -38.0916  -41.5359 H         1 UNK         0.0277
     68 H17        30.3814  -38.4108  -43.0331 H         1 UNK         0.0277
     69 H18        29.0136  -34.9218  -42.9890 H         1 UNK         0.1883
     70 H19        29.1452  -33.0343  -40.7541 H         1 UNK         0.0797
     71 H20        27.4331  -31.7533  -42.0048 H         1 UNK         0.0277
     72 H21        27.3133  -33.0925  -43.1959 H         1 UNK         0.0277
     73 H22        28.8477  -32.1736  -43.0289 H         1 UNK         0.0277
     74 H23        27.9657  -33.0883  -38.9667 H         1 UNK         0.1883
     75 H24        25.2792  -34.3949  -39.1212 H         1 UNK         0.0797
     76 H25        25.4999  -34.9883  -36.7270 H         1 UNK         0.0277
     77 H26        27.1680  -34.3219  -36.7162 H         1 UNK         0.0277
     78 H27        26.7811  -35.7583  -37.7231 H         1 UNK         0.0277
     79 H28        23.5997  -33.1927  -38.4691 H         1 UNK         0.1883
     80 H29        23.8521  -30.4065  -38.6758 H         1 UNK         0.0797
     81 H30        21.4388  -30.3573  -38.0921 H         1 UNK         0.0277
     82 H31        21.5436  -32.0834  -37.6064 H         1 UNK         0.0277
     83 H32        21.8431  -31.6109  -39.3134 H         1 UNK         0.0277
     84 H33        23.5574  -32.3556  -35.7437 H         1 UNK         0.1883
     85 H34        24.5754  -30.0896  -34.1090 H         1 UNK         0.0797
     86 H35        22.9487  -30.6253  -32.3285 H         1 UNK         0.0277
     87 H36        22.1707  -31.8413  -33.3973 H         1 UNK         0.0277
     88 H37        22.1129  -30.0986  -33.8287 H         1 UNK         0.0277
     89 H38        24.6125  -31.6040  -31.6608 H         1 UNK         0.1883
     90 H39        25.7955  -34.2236  -32.2631 H         1 UNK         0.0797
     91 H40        28.0056  -33.7155  -31.2531 H         1 UNK         0.0277
     92 H41        27.5445  -31.9830  -31.1418 H         1 UNK         0.0277
     93 H42        27.7060  -32.7679  -32.7494 H         1 UNK         0.0277
     94 H43        25.7962  -35.6297  -30.5418 H         1 UNK         0.1883
     95 H44        24.1973  -35.0364  -28.2738 H         1 UNK         0.0797
     96 H45        25.1009  -37.1549  -27.3116 H         1 UNK         0.0277
     97 H46        26.3654  -37.1882  -28.5869 H         1 UNK         0.0277
     98 H47        24.6336  -37.3532  -29.0346 H         1 UNK         0.0277
     99 H48        26.0037  -32.8924  -28.6839 H         1 UNK         0.1875
    100 H49        27.5166  -31.4372  -27.6245 H         1 UNK         0.0723
    101 H50        27.0363  -31.3004  -24.9823 H         1 UNK         0.0270
    102 H51        26.2165  -32.8972  -25.0511 H         1 UNK         0.0270
    103 H52        25.4799  -31.4736  -25.8621 H         1 UNK         0.0270
@<TRIPOS>BOND
     1    1    2 1  
     2    2    3 1  
     3    2    5 1  
     4    3    4 2  
     5    3    6 am 
     6    6    7 1  
     7    7    8 1  
     8    7   10 1  
     9    8    9 2  
    10    8   11 am 
    11   11   12 1  
    12   12   13 1  
    13   12   15 1  
    14   13   14 2  
    15   13   16 am 
    16   16   17 1  
    17   17   18 1  
    18   17   20 1  
    19   18   19 2  
    20   18   21 am 
    21   21   22 1  
    22   22   23 1  
    23   22   25 1  
    24   23   24 2  
    25   23   26 am 
    26   26   27 1  
    27   27   28 1  
    28   27   30 1  
    29   28   29 2  
    30   28   31 am 
    31   31   32 1  
    32   32   33 1  
    33   32   35 1  
    34   33   34 2  
    35   33   36 am 
    36   36   37 1  
    37   37   38 1  
    38   37   40 1  
    39   38   39 2  
    40   38   41 am 
    41   41   42 1  
    42   42   43 1  
    43   42   45 1  
    44   43   44 2  
    45   43   46 am 
    46   46   47 1  
    47   47   48 1  
    48   47   50 1  
    49   48   49 ar 
    50   48   51 ar 
    51    1   52 1  
    52    1   53 1  
    53    1   54 1  
    54    2   55 1  
    55    5   56 1  
    56    5   57 1  
    57    5   58 1  
    58    6   59 1  
    59    7   60 1  
    60   10   61 1  
    61   10   62 1  
    62   10   63 1  
    63   11   64 1  
    64   12   65 1  
    65   15   66 1  
    66   15   67 1  
    67   15   68 1  
    68   16   69 1  
    69   17   70 1  
    70   20   71 1  
    71   20   72 1  
    72   20   73 1  
    73   21   74 1  
    74   22   75 1  
    75   25   76 1  
    76   25   77 1  
    77   25   78 1  
    78   26   79 1  
    79   27   80 1  
    80   30   81 1  
    81   30   82 1  
    82   30   83 1  
    83   31   84 1  
    84   32   85 1  
    85   35   86 1  
    86   35   87 1  
    87   35   88 1  
    88   36   89 1  
    89   37   90 1  
    90   40   91 1  
    91   40   92 1  
    92   40   93 1  
    93   41   94 1  
    94   42   95 1  
    95   45   96 1  
    96   45   97 1  
    97   45   98 1  
    98   46   99 1  
    99   47  100 1  
   100   50  101 1  
   101   50  102 1  
   102   50  103 1  
@<TRIPOS>SUBSTRUCTURE
     1 UNK         1

