### 
### Created by X-TOOL on Mon Sep 10 21:12:56 2018
### 

@<TRIPOS>MOLECULE
2z60_ligand
   48    51     1     0     0
SMALL
GAST_HUCK


@<TRIPOS>ATOM
      1 N1         16.5060   -9.2590    8.3320 N.ar      1 P3Y        -0.2827
      2 C2         17.2470   -8.4830    7.4880 C.ar      1 P3Y         0.0050
      3 C3         18.1980   -7.5600    7.9830 C.ar      1 P3Y         0.0023
      4 C4         18.3460   -7.4790    9.3900 C.ar      1 P3Y        -0.0439
      5 C5         17.5490   -8.3090   10.2520 C.ar      1 P3Y         0.0123
      6 C6         16.6440   -9.1800    9.6830 C.ar      1 P3Y         0.1398
      7 C9         17.4640   -8.4560   11.6670 C.2       1 P3Y        -0.0075
      8 C10        16.4730   -9.4440   11.7990 C.2       1 P3Y         0.0396
      9 N11        15.9650   -9.8960   10.6090 N.pl3     1 P3Y        -0.2616
     10 C14        18.2100   -7.7730   12.7840 C.ar      1 P3Y        -0.0067
     11 C15        18.3520   -6.3410   12.8870 C.ar      1 P3Y         0.0921
     12 C16        19.0910   -5.7890   14.0020 C.ar      1 P3Y        -0.0377
     13 C17        19.6640   -6.6250   14.9760 C.ar      1 P3Y        -0.0760
     14 C18        19.5160   -8.0170   14.8690 C.ar      1 P3Y        -0.0784
     15 C19        18.8000   -8.5850   13.7850 C.ar      1 P3Y        -0.0709
     16 O1         17.7490   -5.5430   11.8760 O.3       1 P3Y        -0.3225
     17 C24        19.0080   -6.7250    7.0540 C.ar      1 P3Y         0.0138
     18 C25        19.2180   -5.3330    7.2550 C.ar      1 P3Y         0.0215
     19 N26        19.9670   -4.5750    6.3890 N.ar      1 P3Y        -0.2914
     20 C27        20.5360   -5.1640    5.2910 C.ar      1 P3Y         0.0298
     21 C28        20.3730   -6.5440    5.0260 C.ar      1 P3Y         0.0769
     22 C29        19.6030   -7.3100    5.9250 C.ar      1 P3Y        -0.0165
     23 C33        21.0130   -7.1580    3.8420 C.2       1 P3Y         0.2145
     24 O34        22.2250   -7.4060    3.8850 O.2       1 P3Y        -0.3815
     25 N35        20.2490   -7.4680    2.6990 N.am      1 P3Y        -0.2774
     26 C41        18.7740   -7.4760    2.6120 C.3       1 P3Y         0.0219
     27 C45        21.0070   -7.9270    1.5160 C.3       1 P3Y         0.0219
     28 C1         17.6720   -4.1120   12.0080 C.3       1 P3Y         0.0590
     29 H1         17.1039   -8.5759    6.4175 H         1 P3Y         0.0767
     30 H2         19.0633   -6.7882    9.8183 H         1 P3Y         0.0692
     31 H3         16.1373   -9.8186   12.7649 H         1 P3Y         0.0993
     32 H4         15.2392  -10.6106   10.4560 H         1 P3Y         0.2330
     33 H5         19.2044   -4.7143   14.0874 H         1 P3Y         0.0524
     34 H6         20.2168   -6.1975   15.8047 H         1 P3Y         0.0544
     35 H7         19.9530   -8.6632   15.6217 H         1 P3Y         0.0511
     36 H8         18.7017   -9.6626   13.7204 H         1 P3Y         0.0537
     37 H9         18.7724   -4.8548    8.1198 H         1 P3Y         0.0854
     38 H10        21.1241   -4.5593    4.6102 H         1 P3Y         0.0864
     39 H11        19.4680   -8.3697    5.7411 H         1 P3Y         0.0785
     40 H12        18.4683   -7.7564    1.5932 H         1 P3Y         0.0486
     41 H13        18.3873   -6.4736    2.8479 H         1 P3Y         0.0486
     42 H14        18.3683   -8.2039    3.3300 H         1 P3Y         0.0486
     43 H15        22.0852   -7.8662    1.7252 H         1 P3Y         0.0486
     44 H16        20.7641   -7.2879    0.6543 H         1 P3Y         0.0486
     45 H17        20.7359   -8.9684    1.2882 H         1 P3Y         0.0486
     46 H18        17.1726   -3.6886   11.1241 H         1 P3Y         0.0577
     47 H19        18.6871   -3.6962   12.0899 H         1 P3Y         0.0577
     48 H20        17.0974   -3.8574   12.9108 H         1 P3Y         0.0577
@<TRIPOS>BOND
     1    1    2 ar 
     2    1    6 ar 
     3    2    3 ar 
     4    3    4 ar 
     5    3   17 1  
     6    4    5 ar 
     7    5    6 ar 
     8    5    7 1  
     9    6    9 1  
    10    7    8 2  
    11    7   10 1  
    12    8    9 1  
    13   10   11 ar 
    14   10   15 ar 
    15   11   12 ar 
    16   11   16 1  
    17   12   13 ar 
    18   13   14 ar 
    19   14   15 ar 
    20   16   28 1  
    21   17   18 ar 
    22   17   22 ar 
    23   18   19 ar 
    24   19   20 ar 
    25   20   21 ar 
    26   21   22 ar 
    27   21   23 1  
    28   23   24 2  
    29   23   25 am 
    30   25   26 1  
    31   25   27 1  
    32    2   29 1  
    33    4   30 1  
    34    8   31 1  
    35    9   32 1  
    36   12   33 1  
    37   13   34 1  
    38   14   35 1  
    39   15   36 1  
    40   18   37 1  
    41   20   38 1  
    42   22   39 1  
    43   26   40 1  
    44   26   41 1  
    45   26   42 1  
    46   27   43 1  
    47   27   44 1  
    48   27   45 1  
    49   28   46 1  
    50   28   47 1  
    51   28   48 1  
@<TRIPOS>SUBSTRUCTURE
     1 P3Y         1

