### 
### Created by X-TOOL on Mon Sep 10 21:12:58 2018
### 

@<TRIPOS>MOLECULE
2z7g_ligand
   43    44     1     0     0
SMALL
GAST_HUCK


@<TRIPOS>ATOM
      1 C1         11.1280   12.4930   20.8060 C.ar      1 EH9         0.1298
      2 C2         11.2890   13.5410   21.6690 C.ar      1 EH9         0.1044
      3 C3         11.3170   14.8440   21.1580 C.ar      1 EH9         0.1594
      4 C5         11.0300   14.0770   19.0180 C.ar      1 EH9         0.0533
      5 C14        11.5140   14.8780   23.3390 C.2       1 EH9         0.1101
      6 N4         11.1890   15.1420   19.8320 N.ar      1 EH9        -0.2714
      7 N6         10.9990   12.8050   19.4730 N.ar      1 EH9        -0.2698
      8 N13        11.4920   15.6660   22.2350 N.pl3     1 EH9        -0.2161
      9 N15        11.4290   13.5780   22.9820 N.2       1 EH9        -0.2958
     10 C20        11.6060   17.1340   22.4080 C.3       1 EH9         0.0970
     11 C21        10.3050   17.9310   22.1900 C.3       1 EH9        -0.0200
     12 N24        11.0920   11.1990   21.2030 N.pl3     1 EH9        -0.3152
     13 C26         9.6850   17.7460   20.8140 C.3       1 EH9        -0.0502
     14 C28         8.3600   18.4180   20.4980 C.3       1 EH9        -0.0530
     15 C30         7.8760   17.8430   19.1520 C.3       1 EH9        -0.0533
     16 C31         8.0060   16.2970   19.0820 C.3       1 EH9        -0.0559
     17 C34         6.7940   15.5750   18.4960 C.3       1 EH9        -0.0653
     18 C36        12.9100   17.7480   21.9080 C.3       1 EH9         0.0826
     19 O38        13.9610   17.3190   22.7340 O.3       1 EH9        -0.3890
     20 C40        13.1900   17.8300   20.4080 C.3       1 EH9        -0.0361
     21 H1         10.9225   14.2496   17.9532 H         1 EH9         0.0996
     22 H2         11.5892   15.2404   24.3632 H         1 EH9         0.1348
     23 H3         11.7308   17.2218   23.4974 H         1 EH9         0.0676
     24 H4         10.5276   18.9994   22.3274 H         1 EH9         0.0296
     25 H5          9.5724   17.6090   22.9447 H         1 EH9         0.0296
     26 H6         10.9681   10.4500   20.5069 H         1 EH9         0.1820
     27 H7         11.1885   10.9636   22.2011 H         1 EH9         0.1820
     28 H8          9.5385   16.6652   20.6709 H         1 EH9         0.0266
     29 H9         10.4158   18.1173   20.0804 H         1 EH9         0.0266
     30 H10         8.4977   19.5063   20.4167 H         1 EH9         0.0265
     31 H11         7.6269   18.1991   21.2883 H         1 EH9         0.0265
     32 H12         8.4776   18.2841   18.3436 H         1 EH9         0.0265
     33 H13         6.8192   18.1144   19.0125 H         1 EH9         0.0265
     34 H14         8.1667   15.9211   20.1032 H         1 EH9         0.0263
     35 H15         8.8809   16.0555   18.4605 H         1 EH9         0.0263
     36 H16         6.9812   14.4911   18.4887 H         1 EH9         0.0230
     37 H17         6.6212   15.9242   17.4673 H         1 EH9         0.0230
     38 H18         5.9070   15.7897   19.1101 H         1 EH9         0.0230
     39 H19        12.7972   18.8112   22.1666 H         1 EH9         0.0621
     40 H20        14.0194   16.3713   22.7038 H         1 EH9         0.2099
     41 H21        14.1710   18.2995   20.2433 H         1 EH9         0.0255
     42 H22        12.4089   18.4326   19.9216 H         1 EH9         0.0255
     43 H23        13.1918   16.8170   19.9794 H         1 EH9         0.0255
@<TRIPOS>BOND
     1    1    2 ar 
     2    1    7 ar 
     3    1   12 1  
     4    2    3 ar 
     5    2    9 1  
     6    3    6 ar 
     7    3    8 1  
     8    6    4 ar 
     9    4    7 ar 
    10    8    5 1  
    11    5    9 2  
    12    8   10 1  
    13   10   11 1  
    14   10   18 1  
    15   11   13 1  
    16   13   14 1  
    17   14   15 1  
    18   15   16 1  
    19   16   17 1  
    20   18   19 1  
    21   18   20 1  
    22    4   21 1  
    23    5   22 1  
    24   10   23 1  
    25   11   24 1  
    26   11   25 1  
    27   12   26 1  
    28   12   27 1  
    29   13   28 1  
    30   13   29 1  
    31   14   30 1  
    32   14   31 1  
    33   15   32 1  
    34   15   33 1  
    35   16   34 1  
    36   16   35 1  
    37   17   36 1  
    38   17   37 1  
    39   17   38 1  
    40   18   39 1  
    41   19   40 1  
    42   20   41 1  
    43   20   42 1  
    44   20   43 1  
@<TRIPOS>SUBSTRUCTURE
     1 EH9         1

