### 
### Created by X-TOOL on Mon Sep 10 21:12:59 2018
### 

@<TRIPOS>MOLECULE
2z7r_ligand
   62    69     1     0     0
SMALL
GAST_HUCK


@<TRIPOS>ATOM
      1 O4         -0.1620   -7.1300   25.4320 O.3       1 STU        -0.3149
      2 C25        -1.4890   -6.7410   25.0470 C.3       1 STU         0.1668
      3 C24        -1.8190   -7.1200   23.5640 C.3       1 STU         0.0455
      4 C23        -0.6160   -7.8240   22.8830 C.3       1 STU         0.0141
      5 C22         0.6960   -6.9660   23.0330 C.3       1 STU         0.1556
      6 C21         0.9900   -6.8750   24.6010 C.3       1 STU         0.2020
      7 C26         1.9040   -8.0550   24.9410 C.3       1 STU        -0.0059
      8 N2          1.5970   -5.5100   24.9700 N.pl3     1 STU        -0.2292
      9 C18         0.7170   -4.4460   25.3810 C.ar      1 STU         0.0978
     10 C19        -0.6450   -4.3610   25.5240 C.ar      1 STU         0.0952
     11 C6         -1.3060   -3.1370   25.9480 C.ar      1 STU        -0.0018
     12 C7         -0.3820   -1.9920   26.2180 C.ar      1 STU         0.0320
     13 C10         0.9360   -2.0740   26.0790 C.ar      1 STU        -0.0168
     14 C11         1.5880   -3.2800   25.6480 C.ar      1 STU         0.0011
     15 C12         2.9140   -3.6510   25.4050 C.ar      1 STU        -0.0075
     16 C17         2.9440   -5.0440   24.9730 C.ar      1 STU         0.0695
     17 C16         4.1650   -5.6310   24.6580 C.ar      1 STU        -0.0408
     18 C15         5.3360   -4.9060   24.7500 C.ar      1 STU        -0.0739
     19 C14         5.3420   -3.5150   25.1790 C.ar      1 STU        -0.0759
     20 C13         4.1190   -2.9330   25.4940 C.ar      1 STU        -0.0696
     21 C9          1.5910   -0.7230   26.4230 C.3       1 STU         0.0603
     22 N1          0.3940    0.0230   26.7520 N.am      1 STU        -0.2790
     23 C8         -0.7730   -0.6210   26.6630 C.2       1 STU         0.1871
     24 O5         -1.8810   -0.1920   26.8880 O.2       1 STU        -0.3964
     25 C5         -2.7010   -3.3610   25.9880 C.ar      1 STU        -0.0072
     26 C20        -2.9100   -4.7370   25.5870 C.ar      1 STU         0.0681
     27 C1         -4.2250   -5.3160   25.5070 C.ar      1 STU        -0.0404
     28 C2         -5.3240   -4.4940   25.8300 C.ar      1 STU        -0.0732
     29 C3         -5.1210   -3.1280   26.2270 C.ar      1 STU        -0.0750
     30 C4         -3.8390   -2.5900   26.3000 C.ar      1 STU        -0.0685
     31 N3         -1.6940   -5.3070   25.3230 N.pl3     1 STU        -0.2376
     32 O6          0.3800   -5.6550   22.4960 O.3       1 STU        -0.3686
     33 C27         1.3950   -5.1690   21.6410 C.3       1 STU         0.0373
     34 N4         -0.9660   -8.0480   21.3630 N.4       1 STU         0.2291
     35 C28        -1.6300   -9.3720   21.1720 C.3       1 STU        -0.0445
     36 H1         -2.1915   -7.3003   25.6823 H         1 STU         0.0933
     37 H2         -2.0618   -6.2041   23.0052 H         1 STU         0.0372
     38 H3         -2.6853   -7.7978   23.5513 H         1 STU         0.0372
     39 H4         -0.4531   -8.8006   23.3623 H         1 STU         0.0880
     40 H5          1.5451   -7.4169   22.4985 H         1 STU         0.0710
     41 H6          2.8355   -7.9762   24.3612 H         1 STU         0.0284
     42 H7          1.3948   -8.9973   24.6905 H         1 STU         0.0284
     43 H8          2.1386   -8.0394   26.0156 H         1 STU         0.0284
     44 H9          4.1972   -6.6661   24.3377 H         1 STU         0.0538
     45 H10         6.2750   -5.3846   24.4963 H         1 STU         0.0561
     46 H11         6.2663   -2.9532   25.2503 H         1 STU         0.0516
     47 H12         4.0943   -1.8984   25.8167 H         1 STU         0.0566
     48 H13         2.1245   -0.2911   25.5635 H         1 STU         0.0679
     49 H14         2.2776   -0.8020   27.2788 H         1 STU         0.0679
     50 H15         0.4393    0.9813   27.0343 H         1 STU         0.1863
     51 H16        -4.3657   -6.3486   25.2087 H         1 STU         0.0539
     52 H17        -6.3296   -4.8955   25.7785 H         1 STU         0.0568
     53 H18        -5.9763   -2.5090   26.4726 H         1 STU         0.0516
     54 H19        -3.7134   -1.5568   26.6030 H         1 STU         0.0576
     55 H20         1.1103   -4.1768   21.2610 H         1 STU         0.0524
     56 H21         1.5257   -5.8615   20.7964 H         1 STU         0.0524
     57 H22         2.3390   -5.0904   22.2002 H         1 STU         0.0524
     58 H23        -0.1178   -8.0202   20.8191 H         1 STU         0.2014
     59 H24        -1.5875   -7.3170   21.0539 H         1 STU         0.2014
     60 H25        -1.8675   -9.5128   20.1072 H         1 STU         0.0777
     61 H26        -2.5577   -9.4055   21.7621 H         1 STU         0.0777
     62 H27        -0.9539  -10.1729   21.5059 H         1 STU         0.0777
@<TRIPOS>BOND
     1    1    2 1  
     2    1    6 1  
     3    2    3 1  
     4    2   31 1  
     5    3    4 1  
     6    4    5 1  
     7    4   34 1  
     8    5    6 1  
     9    5   32 1  
    10    6    7 1  
    11    6    8 1  
    12    8    9 1  
    13    8   16 1  
    14    9   10 ar 
    15    9   14 ar 
    16   10   11 ar 
    17   10   31 1  
    18   11   12 ar 
    19   11   25 1  
    20   12   13 ar 
    21   12   23 1  
    22   13   14 ar 
    23   13   21 1  
    24   14   15 1  
    25   15   16 ar 
    26   15   20 ar 
    27   16   17 ar 
    28   17   18 ar 
    29   18   19 ar 
    30   19   20 ar 
    31   21   22 1  
    32   22   23 am 
    33   23   24 2  
    34   25   26 ar 
    35   25   30 ar 
    36   26   27 ar 
    37   26   31 1  
    38   27   28 ar 
    39   28   29 ar 
    40   29   30 ar 
    41   32   33 1  
    42   34   35 1  
    43    2   36 1  
    44    3   37 1  
    45    3   38 1  
    46    4   39 1  
    47    5   40 1  
    48    7   41 1  
    49    7   42 1  
    50    7   43 1  
    51   17   44 1  
    52   18   45 1  
    53   19   46 1  
    54   20   47 1  
    55   21   48 1  
    56   21   49 1  
    57   22   50 1  
    58   27   51 1  
    59   28   52 1  
    60   29   53 1  
    61   30   54 1  
    62   33   55 1  
    63   33   56 1  
    64   33   57 1  
    65   34   58 1  
    66   34   59 1  
    67   35   60 1  
    68   35   61 1  
    69   35   62 1  
@<TRIPOS>SUBSTRUCTURE
     1 STU         1

