### 
### Created by X-TOOL on Sun Sep  9 21:50:44 2018
### 

@<TRIPOS>MOLECULE
2z8e_ligand
   30    30     1     0     0
SMALL
GAST_HUCK


@<TRIPOS>ATOM
      1 C1         20.5770   -8.9020   41.9390 C.3       1 NON         0.1823
      2 C2         21.4150   -7.6430   41.5540 C.3       1 NON         0.1208
      3 C3         22.8740   -7.9000   41.9190 C.3       1 NON         0.1110
      4 C4         23.0580   -8.4560   43.3580 C.3       1 NON         0.1116
      5 C5         22.1050   -9.6270   43.6340 C.3       1 NON         0.1130
      6 C6         22.1700  -10.0760   45.0810 C.3       1 NON         0.0730
      7 C7         21.1360   -6.1140   39.6680 C.2       1 NON         0.1733
      8 C8         21.0130   -5.9860   38.1810 C.3       1 NON         0.0257
      9 N2         21.2830   -7.3630   40.1110 N.am      1 NON        -0.2766
     10 O1         19.2370   -8.5420   41.7980 O.3       1 NON        -0.3651
     11 O3         23.6710   -6.7220   41.6700 O.3       1 NON        -0.3867
     12 O4         22.9120   -7.3800   44.3240 O.3       1 NON        -0.3865
     13 O5         20.7690   -9.2350   43.3020 O.3       1 NON        -0.3410
     14 O6         23.4510  -10.6940   45.3830 O.3       1 NON        -0.3924
     15 O7         21.1000   -5.1340   40.4260 O.2       1 NON        -0.3974
     16 H1         20.8358   -9.7534   41.2923 H         1 NON         0.0932
     17 H2         21.0474   -6.7746   42.1204 H         1 NON         0.0633
     18 H3         23.2386   -8.6820   41.2367 H         1 NON         0.0645
     19 H4         24.0845   -8.8423   43.4417 H         1 NON         0.0647
     20 H5         22.3968  -10.4734   42.9949 H         1 NON         0.0647
     21 H6         21.3674  -10.8049   45.2669 H         1 NON         0.0584
     22 H7         22.0304   -9.2022   45.7344 H         1 NON         0.0584
     23 H8         20.8963   -4.9256   37.9127 H         1 NON         0.0467
     24 H9         20.1342   -6.5504   37.8358 H         1 NON         0.0467
     25 H10        21.9182   -6.3878   37.7022 H         1 NON         0.0467
     26 H11        21.3041   -8.1195   39.4573 H         1 NON         0.1857
     27 H12        18.6856   -9.2740   42.0480 H         1 NON         0.2126
     28 H13        23.4225   -6.0380   42.2806 H         1 NON         0.2100
     29 H14        23.5199   -6.6813   44.1124 H         1 NON         0.2100
     30 H15        23.4638  -10.9649   46.2934 H         1 NON         0.2095
@<TRIPOS>BOND
     1    2    1 1  
     2    1   10 1  
     3    1   13 1  
     4    2    3 1  
     5    9    2 1  
     6    3    4 1  
     7    3   11 1  
     8    4    5 1  
     9    4   12 1  
    10    5    6 1  
    11   13    5 1  
    12    6   14 1  
    13    7    8 1  
    14    7    9 am 
    15    7   15 2  
    16    1   16 1  
    17    2   17 1  
    18    3   18 1  
    19    4   19 1  
    20    5   20 1  
    21    6   21 1  
    22    6   22 1  
    23    8   23 1  
    24    8   24 1  
    25    8   25 1  
    26    9   26 1  
    27   10   27 1  
    28   11   28 1  
    29   12   29 1  
    30   14   30 1  
@<TRIPOS>SUBSTRUCTURE
     1 NON         1

