### 
### Created by X-TOOL on Mon Sep 10 21:12:59 2018
### 

@<TRIPOS>MOLECULE
2z92_ligand
   58    62     1     0     0
SMALL
GAST_HUCK


@<TRIPOS>ATOM
      1 OAB       -17.9460    7.3040  -39.1180 O.3       1 ENE        -0.3802
      2 CAT       -17.3270    7.7870  -37.9190 C.3       1 ENE         0.1011
      3 CAG       -18.3570    8.5560  -37.1400 C.2       1 ENE        -0.0679
      4 CAF       -17.9860    9.4420  -36.0900 C.2       1 ENE        -0.0935
      5 CAM       -16.6740    9.6250  -35.7420 C.3       1 ENE        -0.0058
      6 CAY       -16.3370    8.8150  -34.4810 C.3       1 ENE         0.0982
      7 OAR       -17.4650    8.9890  -33.6090 O.3       1 ENE        -0.3627
      8 CAZ       -17.0170    8.6860  -32.2820 C.3       1 ENE         0.0945
      9 CAN       -17.5770    9.6660  -31.2470 C.3       1 ENE         0.0066
     10 CBB       -16.9630    9.3530  -29.8800 C.3       1 ENE         0.0933
     11 OAS       -17.5850   10.1810  -28.8870 O.3       1 ENE        -0.3565
     12 CBA       -17.0770    9.9820  -27.5580 C.3       1 ENE         0.1142
     13 CAL       -17.8680   11.0270  -26.7660 C.2       1 ENE        -0.0650
     14 CAE       -17.7750   11.0030  -25.3860 C.2       1 ENE        -0.0965
     15 CAD       -17.2360   10.0750  -24.4980 C.2       1 ENE        -0.0659
     16 CAJ       -16.6270    8.8440  -24.7290 C.2       1 ENE         0.0548
     17 OAO       -16.3660    8.2830  -26.0180 O.3       1 ENE        -0.3098
     18 CBC       -17.2910    8.5420  -27.0920 C.3       1 ENE         0.1464
     19 CAW       -16.7830    7.5700  -28.1370 C.3       1 ENE         0.1196
     20 OAC       -17.2260    6.2380  -27.8100 O.3       1 ENE        -0.3858
     21 CBD       -17.2530    7.8970  -29.5600 C.3       1 ENE         0.1167
     22 OAQ       -16.5620    7.0610  -30.4960 O.3       1 ENE        -0.3567
     23 CAV       -17.1650    7.2620  -31.7820 C.3       1 ENE         0.1029
     24 CAI       -16.7820    6.2550  -32.6900 C.2       1 ENE        -0.0653
     25 CAH       -16.4110    6.2910  -33.9940 C.2       1 ENE        -0.0652
     26 CAU       -16.3950    7.3760  -34.9160 C.3       1 ENE         0.1046
     27 OAP       -15.8310    7.0200  -36.1810 O.3       1 ENE        -0.3551
     28 CAX       -16.8240    6.5700  -37.1090 C.3       1 ENE         0.1166
     29 CAK       -16.1210    5.6090  -38.0610 C.3       1 ENE         0.0746
     30 OAA       -14.9730    6.2590  -38.6200 O.3       1 ENE        -0.3922
     31 H         -17.3102    6.8139  -39.6260 H         1 ENE         0.2127
     32 H         -16.4801    8.4442  -38.1656 H         1 ENE         0.0745
     33 H         -19.4110    8.4324  -37.3846 H         1 ENE         0.0476
     34 H         -18.7612    9.9857  -35.5521 H         1 ENE         0.0452
     35 H         -16.4966   10.6926  -35.5452 H         1 ENE         0.0416
     36 H         -16.0297    9.2926  -36.5693 H         1 ENE         0.0416
     37 H         -15.3786    9.0969  -34.0206 H         1 ENE         0.0663
     38 H         -15.9317    8.8624  -32.3119 H         1 ENE         0.0643
     39 H         -18.6705    9.5601  -31.1929 H         1 ENE         0.0319
     40 H         -17.3222   10.6956  -31.5385 H         1 ENE         0.0319
     41 H         -15.8779    9.5325  -29.8976 H         1 ENE         0.0626
     42 H         -16.0008   10.2046  -27.5122 H         1 ENE         0.0781
     43 H         -18.4851   11.7667  -27.2738 H         1 ENE         0.0541
     44 H         -18.2059   11.8775  -24.9007 H         1 ENE         0.0383
     45 H         -17.3017   10.3593  -23.4488 H         1 ENE         0.0322
     46 H         -16.3257    8.2626  -23.8589 H         1 ENE         0.1046
     47 H         -18.3405    8.3617  -26.8163 H         1 ENE         0.0740
     48 H         -15.6835    7.5976  -28.1221 H         1 ENE         0.0654
     49 H         -16.8865    5.9930  -26.9572 H         1 ENE         0.2100
     50 H         -18.3352    7.7154  -29.6363 H         1 ENE         0.0651
     51 H         -18.2459    7.1227  -31.6328 H         1 ENE         0.0747
     52 H         -16.7843    5.2537  -32.2617 H         1 ENE         0.0477
     53 H         -16.0716    5.3394  -34.4003 H         1 ENE         0.0477
     54 H         -17.4596    7.3613  -35.1925 H         1 ENE         0.0749
     55 H         -17.6583    6.0756  -36.5899 H         1 ENE         0.0668
     56 H         -16.8102    5.3201  -38.8682 H         1 ENE         0.0585
     57 H         -15.8041    4.7110  -37.5104 H         1 ENE         0.0585
     58 H         -14.3799    6.5083  -37.9210 H         1 ENE         0.2095
@<TRIPOS>BOND
     1    1    2 1  
     2    2    3 1  
     3    2   28 1  
     4    3    4 2  
     5    4    5 1  
     6    5    6 1  
     7    6    7 1  
     8    6   26 1  
     9    7    8 1  
    10    8    9 1  
    11    8   23 1  
    12    9   10 1  
    13   10   11 1  
    14   10   21 1  
    15   11   12 1  
    16   12   13 1  
    17   12   18 1  
    18   13   14 2  
    19   14   15 1  
    20   15   16 2  
    21   16   17 1  
    22   17   18 1  
    23   18   19 1  
    24   19   20 1  
    25   19   21 1  
    26   21   22 1  
    27   22   23 1  
    28   23   24 1  
    29   24   25 2  
    30   25   26 1  
    31   26   27 1  
    32   27   28 1  
    33   28   29 1  
    34   29   30 1  
    35    1   31 1  
    36    2   32 1  
    37    3   33 1  
    38    4   34 1  
    39    5   35 1  
    40    5   36 1  
    41    6   37 1  
    42    8   38 1  
    43    9   39 1  
    44    9   40 1  
    45   10   41 1  
    46   12   42 1  
    47   13   43 1  
    48   14   44 1  
    49   15   45 1  
    50   16   46 1  
    51   18   47 1  
    52   19   48 1  
    53   20   49 1  
    54   21   50 1  
    55   23   51 1  
    56   24   52 1  
    57   25   53 1  
    58   26   54 1  
    59   28   55 1  
    60   29   56 1  
    61   29   57 1  
    62   30   58 1  
@<TRIPOS>SUBSTRUCTURE
     1 ENE         1

