### 
### Created by X-TOOL on Mon Sep 10 21:12:55 2018
### 

@<TRIPOS>MOLECULE
2z94_ligand
   17    17     1     0     0
SMALL
GAST_HUCK


@<TRIPOS>ATOM
      1 C1         18.5010   -6.0130   26.1120 C.ar      1 TLD        -0.0623
      2 C2         17.7740   -5.4730   24.9260 C.ar      1 TLD         0.0172
      3 C3         17.9250   -4.1350   24.5660 C.ar      1 TLD         0.0177
      4 C4         18.8100   -3.2550   25.3750 C.ar      1 TLD        -0.0545
      5 C5         19.4650   -3.7650   26.4600 C.ar      1 TLD        -0.0587
      6 C6         19.3010   -5.2040   26.8460 C.ar      1 TLD        -0.0732
      7 C13        20.3530   -2.8750   27.2820 C.3       1 TLD        -0.0358
      8 S15        16.7180   -6.5950   23.9980 S.3       1 TLD        -0.1280
      9 S17        17.0640   -3.4260   23.1550 S.3       1 TLD        -0.1245
     10 H1         18.3883   -7.0556   26.3866 H         1 TLD         0.0529
     11 H2         18.9348   -2.2127   25.1047 H         1 TLD         0.0486
     12 H3         19.8222   -5.5965   27.7117 H         1 TLD         0.0482
     13 H4         20.3531   -1.8615   26.8545 H         1 TLD         0.0377
     14 H5         21.3778   -3.2748   27.2779 H         1 TLD         0.0377
     15 H6         19.9784   -2.8369   28.3155 H         1 TLD         0.0377
     16 H7         16.7481   -7.5097   24.4206 H         1 TLD         0.1190
     17 H8         17.7381   -3.0652   22.4982 H         1 TLD         0.1205
@<TRIPOS>BOND
     1    1    2 ar 
     2    1    6 ar 
     3    2    3 ar 
     4    2    8 1  
     5    3    4 ar 
     6    3    9 1  
     7    4    5 ar 
     8    5    6 ar 
     9    5    7 1  
    10    1   10 1  
    11    4   11 1  
    12    6   12 1  
    13    7   13 1  
    14    7   14 1  
    15    7   15 1  
    16    8   16 1  
    17    9   17 1  
@<TRIPOS>SUBSTRUCTURE
     1 TLD         1

