### 
### Created by X-TOOL on Mon Sep 10 21:12:55 2018
### 

@<TRIPOS>MOLECULE
2z9g_ligand
   12    12     1     0     0
SMALL
GAST_HUCK


@<TRIPOS>ATOM
      1 C1         21.3200   -1.7070   18.7490 C.ar      1 BNZ        -0.0618
      2 C2         20.7960   -2.9760   18.1710 C.ar      1 BNZ        -0.0618
      3 C3         19.5290   -3.0470   17.7080 C.ar      1 BNZ        -0.0618
      4 C4         18.6490   -1.8460   17.7750 C.ar      1 BNZ        -0.0618
      5 C5         19.1220   -0.6880   18.3010 C.ar      1 BNZ        -0.0618
      6 C6         20.5180   -0.6130   18.8110 C.ar      1 BNZ        -0.0618
      7 H1         22.3378   -1.6571   19.1187 H         1 BNZ         0.0618
      8 H2         21.4364   -3.8492   18.1216 H         1 BNZ         0.0618
      9 H3         19.1538   -3.9738   17.2894 H         1 BNZ         0.0618
     10 H4         17.6318   -1.8975   17.4038 H         1 BNZ         0.0618
     11 H5         18.4811    0.1849   18.3498 H         1 BNZ         0.0618
     12 H6         20.8938    0.3129   19.2311 H         1 BNZ         0.0618
@<TRIPOS>BOND
     1    1    2 ar 
     2    1    6 ar 
     3    2    3 ar 
     4    3    4 ar 
     5    4    5 ar 
     6    5    6 ar 
     7    1    7 1  
     8    2    8 1  
     9    3    9 1  
    10    4   10 1  
    11    5   11 1  
    12    6   12 1  
@<TRIPOS>SUBSTRUCTURE
     1 BNZ         1

