### 
### Created by X-TOOL on Mon Sep 10 21:12:57 2018
### 

@<TRIPOS>MOLECULE
2za5_ligand
   56    60     1     0     0
SMALL
GAST_HUCK


@<TRIPOS>ATOM
      1 C1         22.2370   77.6270   83.0030 C.ar      1 2FF        -0.0422
      2 C2         22.7300   78.2010   84.1830 C.ar      1 2FF        -0.0228
      3 C3         21.8060   78.7030   85.2150 C.ar      1 2FF         0.1177
      4 C4         20.4280   78.6140   85.0280 C.ar      1 2FF        -0.0037
      5 C5         19.9180   78.0380   83.8350 C.ar      1 2FF        -0.0331
      6 C6         20.8250   77.5280   82.8200 C.ar      1 2FF         0.0194
      7 O13        22.5840   79.2510   86.3210 O.3       1 2FF        -0.3049
      8 C8         23.9340   79.4370   85.8820 C.3       1 2FF         0.0565
      9 C7         24.1170   78.4980   84.7080 C.3       1 2FF        -0.0136
     10 C10        24.6090   77.0690   85.0950 C.3       1 2FF        -0.0548
     11 C11        26.1060   77.1010   85.4520 C.3       1 2FF         0.0246
     12 N22        26.8230   77.9270   84.4930 N.am      1 2FF        -0.2739
     13 C13        26.3670   79.2790   84.1490 C.3       1 2FF         0.0246
     14 C14        24.9610   79.1300   83.5750 C.3       1 2FF        -0.0548
     15 C15        27.7220   77.3350   83.5290 C.2       1 2FF         0.2335
     16 C32        28.2330   75.9210   83.6330 C.2       1 2FF         0.1882
     17 O35        28.4020   75.1860   82.4590 O.3       1 2FF        -0.2349
     18 C18        28.9400   73.9340   82.8240 C.2       1 2FF         0.1708
     19 C19        29.1030   73.8900   84.2250 C.2       1 2FF        -0.0365
     20 C20        28.6720   75.1530   84.7430 C.2       1 2FF        -0.0373
     21 C21        29.2030   72.8610   81.7930 C.1       1 2FF        -0.0275
     22 C22        29.4180   72.1130   80.9190 C.1       1 2FF        -0.0624
     23 C46        29.7370   71.0530   79.8830 C.ar      1 2FF         0.0228
     24 C24        29.8850   71.4350   78.5380 C.ar      1 2FF        -0.0473
     25 C25        30.1610   70.4660   77.5540 C.ar      1 2FF        -0.0613
     26 C26        30.2710   69.1080   77.9470 C.ar      1 2FF        -0.0623
     27 C27        30.1010   68.7190   79.2980 C.ar      1 2FF        -0.0613
     28 C28        29.8250   69.6910   80.2790 C.ar      1 2FF        -0.0473
     29 O61        28.0710   77.9710   82.5980 O.2       1 2FF        -0.3882
     30 C30        20.2450   76.9110   81.5320 C.3       1 2FF         0.0006
     31 N64        20.4350   77.9100   80.4930 N.4       1 2FF         0.2301
     32 H1         22.9176   77.2640   82.2414 H         1 2FF         0.0715
     33 H2         19.7496   78.9824   85.7890 H         1 2FF         0.0617
     34 H3         18.8468   77.9782   83.6801 H         1 2FF         0.0784
     35 H4         24.6378   79.1840   86.6886 H         1 2FF         0.0518
     36 H5         24.0951   80.4789   85.5683 H         1 2FF         0.0518
     37 H6         24.4526   76.3883   84.2452 H         1 2FF         0.0174
     38 H7         24.0361   76.7100   85.9627 H         1 2FF         0.0174
     39 H8         26.5096   76.0780   85.4267 H         1 2FF         0.0512
     40 H9         26.2320   77.5200   86.4612 H         1 2FF         0.0512
     41 H10        27.0372   79.7270   83.4007 H         1 2FF         0.0512
     42 H11        26.3451   79.9127   85.0478 H         1 2FF         0.0512
     43 H12        24.5540   80.1128   83.2948 H         1 2FF         0.0174
     44 H13        24.9736   78.4732   82.6927 H         1 2FF         0.0174
     45 H14        29.4856   73.0511   84.8045 H         1 2FF         0.0415
     46 H15        28.6795   75.4643   85.7865 H         1 2FF         0.0455
     47 H16        29.7865   72.4775   78.2578 H         1 2FF         0.0624
     48 H17        30.2869   70.7528   76.5162 H         1 2FF         0.0616
     49 H18        30.4892   68.3538   77.1996 H         1 2FF         0.0612
     50 H19        30.1832   67.6746   79.5766 H         1 2FF         0.0616
     51 H20        29.6826   69.4060   81.3151 H         1 2FF         0.0624
     52 H21        19.1749   76.6913   81.6608 H         1 2FF         0.0968
     53 H22        20.7811   75.9853   81.2757 H         1 2FF         0.0968
     54 H23        20.0720   77.5602   79.6201 H         1 2FF         0.2007
     55 H24        21.4183   78.1077   80.3928 H         1 2FF         0.2007
     56 H25        19.9464   78.7547   80.7456 H         1 2FF         0.2007
@<TRIPOS>BOND
     1    1    2 ar 
     2    1    6 ar 
     3    2    3 ar 
     4    2    9 1  
     5    3    4 ar 
     6    3    7 1  
     7    4    5 ar 
     8    5    6 ar 
     9    6   30 1  
    10    7    8 1  
    11    8    9 1  
    12    9   10 1  
    13    9   14 1  
    14   10   11 1  
    15   11   12 1  
    16   12   13 1  
    17   12   15 am 
    18   13   14 1  
    19   15   16 1  
    20   15   29 2  
    21   16   17 1  
    22   16   20 2  
    23   17   18 1  
    24   18   19 2  
    25   18   21 1  
    26   19   20 1  
    27   21   22 3  
    28   22   23 1  
    29   23   24 ar 
    30   23   28 ar 
    31   24   25 ar 
    32   25   26 ar 
    33   26   27 ar 
    34   27   28 ar 
    35   30   31 1  
    36    1   32 1  
    37    4   33 1  
    38    5   34 1  
    39    8   35 1  
    40    8   36 1  
    41   10   37 1  
    42   10   38 1  
    43   11   39 1  
    44   11   40 1  
    45   13   41 1  
    46   13   42 1  
    47   14   43 1  
    48   14   44 1  
    49   19   45 1  
    50   20   46 1  
    51   24   47 1  
    52   25   48 1  
    53   26   49 1  
    54   27   50 1  
    55   28   51 1  
    56   30   52 1  
    57   30   53 1  
    58   31   54 1  
    59   31   55 1  
    60   31   56 1  
@<TRIPOS>SUBSTRUCTURE
     1 2FF         1

