### 
### Created by X-TOOL on Mon Sep 10 21:12:58 2018
### 

@<TRIPOS>MOLECULE
2zas_ligand
   32    33     1     0     0
SMALL
GAST_HUCK


@<TRIPOS>ATOM
      1 O2         16.5670   23.4480   42.3290 O.3       1 1OH        -0.3128
      2 C13        16.2750   24.7520   42.0490 C.ar      1 1OH         0.1185
      3 C14        15.1420   25.3580   42.5920 C.ar      1 1OH        -0.0059
      4 C15        14.8560   26.6920   42.2850 C.ar      1 1OH        -0.0558
      5 C12        17.1220   25.4780   41.2100 C.ar      1 1OH        -0.0059
      6 C11        16.8410   26.8040   40.9150 C.ar      1 1OH        -0.0558
      7 C4         15.7020   27.4270   41.4470 C.ar      1 1OH        -0.0815
      8 C2         15.4160   28.8740   41.1150 C.3       1 1OH        -0.0496
      9 C5         16.4640   29.7570   41.7830 C.3       1 1OH        -0.1001
     10 C3         14.0620   29.3260   41.6500 C.3       1 1OH        -0.1001
     11 C1         15.4480   29.0210   39.6100 C.ar      1 1OH        -0.0770
     12 C6         16.6270   29.3760   38.9420 C.ar      1 1OH        -0.0528
     13 C7         16.6470   29.4930   37.5520 C.ar      1 1OH        -0.0412
     14 C8         15.4890   29.2540   36.8190 C.ar      1 1OH        -0.0417
     15 C9         14.3140   28.8950   37.4770 C.ar      1 1OH        -0.0412
     16 C10        14.2960   28.7700   38.8640 C.ar      1 1OH        -0.0528
     17 H1         16.6838   23.3450   43.2661 H         1 1OH         0.2603
     18 H2         14.4864   24.7976   43.2487 H         1 1OH         0.0630
     19 H3         13.9711   27.1609   42.6999 H         1 1OH         0.0773
     20 H4         18.0012   25.0046   40.7881 H         1 1OH         0.0630
     21 H5         17.5070   27.3635   40.2681 H         1 1OH         0.0773
     22 H6         16.4128   29.6255   42.8739 H         1 1OH         0.0075
     23 H7         16.2706   30.8102   41.5312 H         1 1OH         0.0075
     24 H8         17.4648   29.4725   41.4260 H         1 1OH         0.0075
     25 H9         13.2665   28.7166   41.1963 H         1 1OH         0.0075
     26 H10        13.9025   30.3845   41.3968 H         1 1OH         0.0075
     27 H11        14.0399   29.2030   42.7429 H         1 1OH         0.0075
     28 H12        17.5315   29.5614   39.5100 H         1 1OH         0.0779
     29 H13        17.5636   29.7698   37.0438 H         1 1OH         0.0675
     30 H14        15.5005   29.3467   35.7390 H         1 1OH         0.0789
     31 H15        13.4103   28.7123   36.9068 H         1 1OH         0.0675
     32 H16        13.3818   28.4760   39.3668 H         1 1OH         0.0779
@<TRIPOS>BOND
     1    1    2 1  
     2    2    3 ar 
     3    2    5 ar 
     4    3    4 ar 
     5    4    7 ar 
     6    5    6 ar 
     7    6    7 ar 
     8    7    8 1  
     9    8    9 1  
    10    8   10 1  
    11    8   11 1  
    12   11   12 ar 
    13   11   16 ar 
    14   12   13 ar 
    15   13   14 ar 
    16   14   15 ar 
    17   15   16 ar 
    18    1   17 1  
    19    3   18 1  
    20    4   19 1  
    21    5   20 1  
    22    6   21 1  
    23    9   22 1  
    24    9   23 1  
    25    9   24 1  
    26   10   25 1  
    27   10   26 1  
    28   10   27 1  
    29   12   28 1  
    30   13   29 1  
    31   14   30 1  
    32   15   31 1  
    33   16   32 1  
@<TRIPOS>SUBSTRUCTURE
     1 1OH         1

