### 
### Created by X-TOOL on Mon Sep 10 21:12:58 2018
### 

@<TRIPOS>MOLECULE
2zaz_ligand
   41    44     1     0     0
SMALL
GAST_HUCK


@<TRIPOS>ATOM
      1 O2         49.3680   37.8820   27.0200 O.2       1 GK1        -0.3493
      2 C20        50.1020   36.8910   27.0670 C.2       1 GK1         0.1686
      3 C19        49.5180   35.5620   27.3840 C.2       1 GK1         0.1697
      4 S          50.2330   33.9970   26.9910 S.3       1 GK1         0.0178
      5 C18        48.8620   33.1110   27.7030 C.2       1 GK1         0.0351
      6 N3         48.3400   35.4040   28.0110 N.2       1 GK1        -0.2813
      7 C17        47.9570   34.0830   28.1830 C.2       1 GK1         0.0462
      8 C13        46.7750   33.7320   28.8360 C.ar      1 GK1        -0.0149
      9 C12        46.2280   34.6450   29.7290 C.ar      1 GK1        -0.0434
     10 C14        46.1720   32.4940   28.6220 C.ar      1 GK1        -0.0542
     11 C15        44.9950   32.1990   29.3200 C.ar      1 GK1        -0.0482
     12 C16        44.4430   33.1180   30.2250 C.ar      1 GK1         0.0319
     13 C11        45.0610   34.3530   30.4300 C.ar      1 GK1         0.0278
     14 N2         44.5430   35.2660   31.2940 N.ar      1 GK1        -0.3229
     15 C10        43.4200   34.9990   31.9880 C.ar      1 GK1        -0.0115
     16 C9         42.7700   33.7810   31.8200 C.ar      1 GK1        -0.0148
     17 C8         43.2770   32.8240   30.9390 C.ar      1 GK1         0.0879
     18 N1         42.6560   31.6210   30.7410 N.pl3     1 GK1        -0.2667
     19 C7         41.5420   31.2130   31.4230 C.ar      1 GK1         0.0581
     20 C2         40.2650   31.5900   30.9830 C.ar      1 GK1        -0.0318
     21 C1         40.0780   32.4540   29.7580 C.3       1 GK1        -0.0383
     22 C6         41.6840   30.4070   32.5770 C.ar      1 GK1        -0.0163
     23 C5         40.5430   29.9810   33.2800 C.ar      1 GK1         0.0713
     24 O1         40.6600   29.2120   34.4090 O.3       1 GK1        -0.3404
     25 C4         39.2700   30.3630   32.8240 C.ar      1 GK1        -0.0513
     26 C3         39.1400   31.1510   31.6800 C.ar      1 GK1        -0.0777
     27 H1         51.1698   36.9898   26.8775 H         1 GK1         0.1405
     28 H2         48.7444   32.0297   27.7576 H         1 GK1         0.0888
     29 H3         46.7176   35.5999   29.8824 H         1 GK1         0.0574
     30 H4         46.6035   31.7775   27.9324 H         1 GK1         0.0598
     31 H5         44.5029   31.2466   29.1589 H         1 GK1         0.0652
     32 H6         43.0224   35.7342   32.6782 H         1 GK1         0.0799
     33 H7         41.8635   33.5733   32.3769 H         1 GK1         0.0546
     34 H8         43.0513   30.9833   30.0353 H         1 GK1         0.2151
     35 H9         39.0046   32.6283   29.5927 H         1 GK1         0.0349
     36 H10        40.5060   31.9453   28.8817 H         1 GK1         0.0349
     37 H11        40.5871   33.4175   29.9076 H         1 GK1         0.0349
     38 H12        42.6713   30.1181   32.9189 H         1 GK1         0.0440
     39 H13        39.7947   29.0188   34.7503 H         1 GK1         0.2456
     40 H14        38.3853   30.0442   33.3632 H         1 GK1         0.0432
     41 H15        38.1519   31.4254   31.3286 H         1 GK1         0.0500
@<TRIPOS>BOND
     1    1    2 2  
     2    2    3 1  
     3    3    4 1  
     4    3    6 2  
     5    4    5 1  
     6    5    7 2  
     7    6    7 1  
     8    7    8 1  
     9    8    9 ar 
    10    8   10 ar 
    11    9   13 ar 
    12   10   11 ar 
    13   11   12 ar 
    14   12   13 ar 
    15   12   17 ar 
    16   13   14 ar 
    17   14   15 ar 
    18   15   16 ar 
    19   16   17 ar 
    20   17   18 1  
    21   18   19 1  
    22   19   20 ar 
    23   19   22 ar 
    24   20   21 1  
    25   20   26 ar 
    26   22   23 ar 
    27   23   24 1  
    28   23   25 ar 
    29   25   26 ar 
    30    2   27 1  
    31    5   28 1  
    32    9   29 1  
    33   10   30 1  
    34   11   31 1  
    35   15   32 1  
    36   16   33 1  
    37   18   34 1  
    38   21   35 1  
    39   21   36 1  
    40   21   37 1  
    41   22   38 1  
    42   24   39 1  
    43   25   40 1  
    44   26   41 1  
@<TRIPOS>SUBSTRUCTURE
     1 GK1         1

