### 
### Created by X-TOOL on Mon Sep 10 21:12:57 2018
### 

@<TRIPOS>MOLECULE
2zb0_ligand
   48    51     1     0     0
SMALL
GAST_HUCK


@<TRIPOS>ATOM
      1 N5         48.8280   37.7680   26.1990 N.1       1 GK3        -0.3283
      2 C5         48.8270   36.5420   26.7180 C.1       1 GK3         0.0967
      3 C18        48.8050   35.1770   27.3020 C.ar      1 GK3         0.0824
      4 C2         49.9450   34.3550   27.2360 C.ar      1 GK3        -0.0423
      5 C29        49.9010   33.0740   27.7910 C.ar      1 GK3        -0.0642
      6 C19        48.7190   32.6180   28.4020 C.ar      1 GK3        -0.0324
      7 C22        47.6260   34.7170   27.9190 C.ar      1 GK3        -0.0065
      8 C15        47.5690   33.4340   28.4860 C.ar      1 GK3         0.0768
      9 N3         46.4430   32.9380   29.0880 N.am      1 GK3        -0.2316
     10 C3         45.5340   33.6050   29.8330 C.2       1 GK3         0.2311
     11 O1         45.5840   34.9200   30.0670 O.2       1 GK3        -0.3739
     12 C25        44.3250   32.8600   30.3680 C.ar      1 GK3         0.0544
     13 C9         44.0670   31.5650   29.9120 C.ar      1 GK3        -0.0425
     14 C10        43.4430   33.4670   31.2770 C.ar      1 GK3        -0.0425
     15 C16        42.3180   32.7820   31.7420 C.ar      1 GK3        -0.0506
     16 C13        42.0780   31.4700   31.2990 C.ar      1 GK3        -0.0168
     17 C27        42.9480   30.8750   30.3710 C.ar      1 GK3        -0.0506
     18 C28        40.9290   30.7640   31.6750 C.ar      1 GK3        -0.0088
     19 C14        40.9170   29.8050   32.6880 C.ar      1 GK3        -0.0423
     20 C17        39.7100   29.1600   32.9570 C.ar      1 GK3         0.0371
     21 C12        39.5280   28.1850   34.0660 C.2       1 GK3         0.2128
     22 O2         38.7310   27.2210   34.1440 O.3       1 GK3        -0.1929
     23 C7         38.9620   26.7500   35.2680 C.2       1 GK3         0.1958
     24 C21        38.2060   25.5580   35.7720 C.3       1 GK3         0.0290
     25 N4         39.9080   27.3760   35.9760 N.2       1 GK3        -0.2502
     26 N7         40.2930   28.3390   35.1660 N.2       1 GK3        -0.2501
     27 C20        38.5450   29.4450   32.2370 C.ar      1 GK3        -0.0508
     28 C26        38.5510   30.3790   31.2280 C.ar      1 GK3        -0.0545
     29 C23        39.7410   31.0350   30.9400 C.ar      1 GK3        -0.0324
     30 C1         39.6660   32.0470   29.8220 C.3       1 GK3        -0.0278
     31 H1         50.8499   34.7129   26.7584 H         1 GK3         0.0589
     32 H2         50.7747   32.4336   27.7510 H         1 GK3         0.0601
     33 H3         48.6899   31.6174   28.8180 H         1 GK3         0.0574
     34 H4         46.7539   35.3597   27.9566 H         1 GK3         0.0602
     35 H5         46.2724   31.9610   28.9603 H         1 GK3         0.2252
     36 H6         44.7380   31.0972   29.2007 H         1 GK3         0.0665
     37 H7         43.6371   34.4765   31.6209 H         1 GK3         0.0665
     38 H8         41.6366   33.2578   32.4379 H         1 GK3         0.0623
     39 H9         42.7473   29.8728   30.0099 H         1 GK3         0.0623
     40 H10        41.8152   29.5691   33.2471 H         1 GK3         0.0645
     41 H11        38.5585   25.3003   36.7816 H         1 GK3         0.0498
     42 H12        38.3727   24.7057   35.0969 H         1 GK3         0.0498
     43 H13        37.1320   25.7931   35.8075 H         1 GK3         0.0498
     44 H14        37.6260   28.9229   32.4776 H         1 GK3         0.0640
     45 H15        37.6478   30.5984   30.6701 H         1 GK3         0.0568
     46 H16        40.6550   32.5058   29.6758 H         1 GK3         0.0406
     47 H17        38.9349   32.8267   30.0816 H         1 GK3         0.0406
     48 H18        39.3536   31.5458   28.8940 H         1 GK3         0.0406
@<TRIPOS>BOND
     1    1    2 3  
     2    2    3 1  
     3    3    4 ar 
     4    3    7 ar 
     5    4    5 ar 
     6    5    6 ar 
     7    6    8 ar 
     8    7    8 ar 
     9    8    9 1  
    10    9   10 am 
    11   10   11 2  
    12   10   12 1  
    13   12   13 ar 
    14   12   14 ar 
    15   13   17 ar 
    16   14   15 ar 
    17   15   16 ar 
    18   16   17 ar 
    19   16   18 1  
    20   18   19 ar 
    21   18   29 ar 
    22   19   20 ar 
    23   20   21 1  
    24   20   27 ar 
    25   21   22 1  
    26   21   26 2  
    27   22   23 1  
    28   23   24 1  
    29   23   25 2  
    30   25   26 1  
    31   27   28 ar 
    32   28   29 ar 
    33   29   30 1  
    34    4   31 1  
    35    5   32 1  
    36    6   33 1  
    37    7   34 1  
    38    9   35 1  
    39   13   36 1  
    40   14   37 1  
    41   15   38 1  
    42   17   39 1  
    43   19   40 1  
    44   24   41 1  
    45   24   42 1  
    46   24   43 1  
    47   27   44 1  
    48   28   45 1  
    49   30   46 1  
    50   30   47 1  
    51   30   48 1  
@<TRIPOS>SUBSTRUCTURE
     1 GK3         1

