### 
### Created by X-TOOL on Mon Sep 10 21:12:57 2018
### 

@<TRIPOS>MOLECULE
2zb1_ligand
   47    50     1     0     0
SMALL
GAST_HUCK


@<TRIPOS>ATOM
      1 O2         45.7200   34.8960   32.5820 O.2       1 GK4        -0.3855
      2 C17        45.7430   33.7180   32.1950 C.2       1 GK4         0.2037
      3 N3         46.9130   33.0920   31.9880 N.am      1 GK4        -0.2862
      4 C18        48.1540   33.8290   32.1750 C.3       1 GK4         0.0332
      5 C19        49.2800   33.1550   31.4260 C.3       1 GK4        -0.0209
      6 C21        49.2780   33.6720   29.9930 C.3       1 GK4        -0.0481
      7 C20        50.2910   34.2050   31.0040 C.3       1 GK4        -0.0481
      8 C14        44.4420   32.9440   32.0480 C.ar      1 GK4         0.0482
      9 C13        44.4170   31.5670   31.7720 C.ar      1 GK4        -0.0430
     10 C12        43.2070   30.8760   31.6830 C.ar      1 GK4        -0.0506
     11 C15        43.2340   33.6040   32.2620 C.ar      1 GK4        -0.0430
     12 C16        42.0360   32.9150   32.1840 C.ar      1 GK4        -0.0506
     13 C11        42.0000   31.5660   31.8690 C.ar      1 GK4        -0.0168
     14 C9         40.7560   30.9350   31.8330 C.ar      1 GK4        -0.0088
     15 C7         39.7590   31.1380   30.8780 C.ar      1 GK4        -0.0324
     16 C8         39.9510   32.0670   29.7180 C.3       1 GK4        -0.0278
     17 C6         38.5430   30.4580   30.9870 C.ar      1 GK4        -0.0545
     18 C5         38.3010   29.5920   32.0460 C.ar      1 GK4        -0.0508
     19 C10        40.4930   30.0690   32.8940 C.ar      1 GK4        -0.0423
     20 C4         39.2910   29.3860   33.0070 C.ar      1 GK4         0.0371
     21 C3         39.1150   28.5320   34.1010 C.2       1 GK4         0.2128
     22 N2         40.0380   28.3150   35.0720 N.2       1 GK4        -0.2501
     23 N1         39.4920   27.4050   35.9820 N.2       1 GK4        -0.2502
     24 O1         38.0990   27.8400   34.3740 O.3       1 GK4        -0.1929
     25 C2         38.2920   27.1830   35.4370 C.2       1 GK4         0.1958
     26 C1         37.1470   26.3110   35.8800 C.3       1 GK4         0.0290
     27 H1         46.9313   32.1319   31.7090 H         1 GK4         0.1844
     28 H2         48.3991   33.8616   33.2468 H         1 GK4         0.0522
     29 H3         48.0283   34.8541   31.7963 H         1 GK4         0.0522
     30 H4         49.5226   32.1273   31.7341 H         1 GK4         0.0320
     31 H5         48.4593   34.3169   29.6411 H         1 GK4         0.0269
     32 H6         49.6102   33.0201   29.1716 H         1 GK4         0.0269
     33 H7         51.3540   33.9384   30.9100 H         1 GK4         0.0269
     34 H8         50.2031   35.2352   31.3795 H         1 GK4         0.0269
     35 H9         45.3494   31.0337   31.6262 H         1 GK4         0.0665
     36 H10        43.2004   29.8129   31.4715 H         1 GK4         0.0623
     37 H11        43.2322   34.6635   32.4910 H         1 GK4         0.0665
     38 H12        41.1074   33.4412   32.3731 H         1 GK4         0.0623
     39 H13        39.0425   32.0718   29.0979 H         1 GK4         0.0406
     40 H14        40.8054   31.7277   29.1140 H         1 GK4         0.0406
     41 H15        40.1460   33.0834   30.0906 H         1 GK4         0.0406
     42 H16        37.7775   30.6084   30.2343 H         1 GK4         0.0568
     43 H17        37.3490   29.0796   32.1251 H         1 GK4         0.0640
     44 H18        41.2519   29.9251   33.6545 H         1 GK4         0.0645
     45 H19        37.4216   25.7889   36.8085 H         1 GK4         0.0498
     46 H20        36.9241   25.5722   35.0961 H         1 GK4         0.0498
     47 H21        36.2589   26.9349   36.0591 H         1 GK4         0.0498
@<TRIPOS>BOND
     1    1    2 2  
     2    2    3 am 
     3    2    8 1  
     4    3    4 1  
     5    4    5 1  
     6    5    6 1  
     7    5    7 1  
     8    6    7 1  
     9    8    9 ar 
    10    8   11 ar 
    11    9   10 ar 
    12   10   13 ar 
    13   11   12 ar 
    14   12   13 ar 
    15   13   14 1  
    16   14   15 ar 
    17   14   19 ar 
    18   15   16 1  
    19   15   17 ar 
    20   17   18 ar 
    21   18   20 ar 
    22   19   20 ar 
    23   20   21 1  
    24   21   22 2  
    25   21   24 1  
    26   22   23 1  
    27   23   25 2  
    28   24   25 1  
    29   25   26 1  
    30    3   27 1  
    31    4   28 1  
    32    4   29 1  
    33    5   30 1  
    34    6   31 1  
    35    6   32 1  
    36    7   33 1  
    37    7   34 1  
    38    9   35 1  
    39   10   36 1  
    40   11   37 1  
    41   12   38 1  
    42   16   39 1  
    43   16   40 1  
    44   16   41 1  
    45   17   42 1  
    46   18   43 1  
    47   19   44 1  
    48   26   45 1  
    49   26   46 1  
    50   26   47 1  
@<TRIPOS>SUBSTRUCTURE
     1 GK4         1

