### 
### Created by X-TOOL on Mon Sep 10 21:12:59 2018
### 

@<TRIPOS>MOLECULE
2zbk_ligand
   42    44     1     0     0
SMALL
GAST_HUCK


@<TRIPOS>ATOM
      1 C1        -61.9170   83.8600  -11.6370 C.2       1 RDC         0.2451
      2 C2        -61.3450   82.5000  -11.8850 C.ar      1 RDC         0.0834
      3 C3        -61.8130   81.3490  -11.0760 C.ar      1 RDC         0.0971
      4 C4        -61.3060   80.0740  -11.2810 C.ar      1 RDC        -0.0045
      5 C5        -60.3400   79.8190  -12.2390 C.ar      1 RDC         0.0931
      6 C6        -59.8030   80.9020  -13.1020 C.ar      1 RDC         0.0654
      7 C7        -60.3100   82.2880  -12.9200 C.ar      1 RDC        -0.0069
      8 C8        -59.8450   83.4590  -13.7550 C.3       1 RDC         0.0497
      9 C9        -58.3580   83.4740  -13.9770 C.2       1 RDC         0.1176
     10 C10       -57.4850   84.2580  -13.0900 C.2       1 RDC        -0.0220
     11 C11       -57.8260   84.6240  -11.8520 C.2       1 RDC        -0.0641
     12 C12       -56.8440   85.4060  -11.0920 C.2       1 RDC        -0.0558
     13 C13       -57.1310   86.1380  -10.0120 C.2       1 RDC        -0.0298
     14 C14       -58.5220   86.2300   -9.4320 C.3       1 RDC         0.1255
     15 C15       -59.4510   87.0280  -10.3380 C.3       1 RDC         0.1057
     16 C16       -60.9090   86.7220  -10.0080 C.3       1 RDC         0.0093
     17 C17       -61.7000   86.1940  -11.1990 C.3       1 RDC         0.0858
     18 C18       -61.8330   87.2710  -12.2670 C.3       1 RDC        -0.0343
     19 O1        -61.0700   85.0360  -11.7510 O.3       1 RDC        -0.2787
     20 O2        -63.0940   83.9980  -11.3290 O.2       1 RDC        -0.3725
     21 O3        -62.7560   81.5510  -10.1190 O.3       1 RDC        -0.3313
     22 O4        -59.8880   78.5440  -12.3830 O.3       1 RDC        -0.3330
     23 CL1       -58.7560   80.5650  -14.1280 Cl        1 RDC        -0.0932
     24 O5        -57.8600   82.8610  -14.9040 O.2       1 RDC        -0.3923
     25 O6        -58.8320   87.5970   -9.1870 O.3       1 RDC        -0.3469
     26 H1        -61.6764   79.2554  -10.6746 H         1 RDC         0.0425
     27 H2        -60.1315   84.3894  -13.2429 H         1 RDC         0.0645
     28 H3        -60.3442   83.4106  -14.7340 H         1 RDC         0.0645
     29 H4        -56.5066   84.5564  -13.4636 H         1 RDC         0.0499
     30 H5        -58.7907   84.3540  -11.4250 H         1 RDC         0.0706
     31 H6        -55.8096   85.3884  -11.4320 H         1 RDC         0.0474
     32 H7        -56.3273   86.6921   -9.5293 H         1 RDC         0.0885
     33 H8        -58.8317   85.3798   -8.8065 H         1 RDC         0.0863
     34 H9        -59.2414   87.2988  -11.3833 H         1 RDC         0.0661
     35 H10       -61.3879   87.6466   -9.6534 H         1 RDC         0.0322
     36 H11       -60.9347   85.9660   -9.2093 H         1 RDC         0.0322
     37 H12       -62.7063   85.9147  -10.8536 H         1 RDC         0.0645
     38 H13       -62.4056   86.8744  -13.1184 H         1 RDC         0.0258
     39 H14       -60.8323   87.5749  -12.6079 H         1 RDC         0.0258
     40 H15       -62.3573   88.1418  -11.8464 H         1 RDC         0.0258
     41 H16       -62.9980   82.4695  -10.1034 H         1 RDC         0.2508
     42 H17       -60.3304   77.9801  -11.7595 H         1 RDC         0.2502
@<TRIPOS>BOND
     1    1    2 1  
     2    1   19 1  
     3    1   20 2  
     4    2    3 ar 
     5    2    7 ar 
     6    3    4 ar 
     7    3   21 1  
     8    4    5 ar 
     9    5    6 ar 
    10    5   22 1  
    11    6    7 ar 
    12    6   23 1  
    13    7    8 1  
    14    8    9 1  
    15    9   10 1  
    16    9   24 2  
    17   10   11 2  
    18   11   12 1  
    19   12   13 2  
    20   13   14 1  
    21   14   15 1  
    22   14   25 1  
    23   15   16 1  
    24   15   25 1  
    25   16   17 1  
    26   17   18 1  
    27   17   19 1  
    28    4   26 1  
    29    8   27 1  
    30    8   28 1  
    31   10   29 1  
    32   11   30 1  
    33   12   31 1  
    34   13   32 1  
    35   14   33 1  
    36   15   34 1  
    37   16   35 1  
    38   16   36 1  
    39   17   37 1  
    40   18   38 1  
    41   18   39 1  
    42   18   40 1  
    43   21   41 1  
    44   22   42 1  
@<TRIPOS>SUBSTRUCTURE
     1 RDC         1

