### 
### Created by X-TOOL on Mon Sep 10 21:12:57 2018
### 

@<TRIPOS>MOLECULE
2zc9_ligand
   52    54     1     0     0
SMALL
GAST_HUCK


@<TRIPOS>ATOM
      1 C1         18.1650  -14.9640   24.7310 C.3       1 22U         0.0416
      2 N1         16.3050  -15.7140   23.2320 N.4       1 22U         0.2394
      3 C2         17.6270  -15.0160   23.2870 C.3       1 22U         0.0746
      4 C3         17.4490  -13.6090   22.7270 C.2       1 22U         0.2313
      5 O1         16.4680  -12.9820   23.1440 O.2       1 22U        -0.3903
      6 N2         18.1330  -13.1630   21.6570 N.am      1 22U        -0.2470
      7 C4         19.2070  -13.9150   20.9810 C.3       1 22U         0.0371
      8 C5         19.9730  -12.7300   20.3520 C.3       1 22U        -0.0281
      9 C6         18.8240  -11.7770   19.9170 C.3       1 22U        -0.0104
     10 C7         17.8360  -11.8460   21.1120 C.3       1 22U         0.1339
     11 C8         16.4020  -11.7500   20.6340 C.2       1 22U         0.2037
     12 N3         15.7260  -10.6080   20.9320 N.am      1 22U        -0.2737
     13 C9         14.3690  -10.4430   20.3670 C.3       1 22U         0.0645
     14 C10        13.3410  -10.3610   21.5130 C.ar      1 22U        -0.0205
     15 C11        13.2880   -9.2590   22.3860 C.ar      1 22U        -0.0446
     16 C12        12.3350   -9.2340   23.4100 C.ar      1 22U         0.0338
     17 C13        11.4380  -10.2950   23.5610 C.ar      1 22U        -0.0548
     18 C14        11.5120  -11.3900   22.7010 C.ar      1 22U        -0.0680
     19 C15        12.4440  -11.4030   21.6720 C.ar      1 22U        -0.0583
     20 O2         15.8850  -12.6720   20.0140 O.2       1 22U        -0.3944
     21 C16        19.5640  -14.3300   24.8080 C.ar      1 22U        -0.0353
     22 C17        20.6640  -14.8530   24.1100 C.ar      1 22U        -0.0600
     23 C18        21.9170  -14.2340   24.2320 C.ar      1 22U        -0.0686
     24 C19        22.0730  -13.0830   24.9910 C.ar      1 22U        -0.0687
     25 C20        20.9960  -12.5890   25.7570 C.ar      1 22U        -0.0686
     26 C21        19.7440  -13.1800   25.5860 C.ar      1 22U        -0.0600
     27 CL1        12.2410   -7.8830   24.5260 Cl        1 22U        -0.0725
     28 H1         18.2186  -15.9892   25.1261 H         1 22U         0.0507
     29 H2         17.4727  -14.3699   25.3457 H         1 22U         0.0507
     30 H3         15.9754  -15.7348   22.2796 H         1 22U         0.2017
     31 H4         15.6402  -15.2204   23.8069 H         1 22U         0.2017
     32 H5         16.4086  -16.6571   23.5723 H         1 22U         0.2017
     33 H6         18.3488  -15.5636   22.6632 H         1 22U         0.1123
     34 H7         18.8122  -14.6023   20.2183 H         1 22U         0.0524
     35 H8         19.8290  -14.4764   21.6937 H         1 22U         0.0524
     36 H9         20.5677  -13.0562   19.4861 H         1 22U         0.0287
     37 H10        20.6321  -12.2472   21.0886 H         1 22U         0.0287
     38 H11        18.3478  -12.1301   18.9904 H         1 22U         0.0313
     39 H12        19.1954  -10.7520   19.7708 H         1 22U         0.0313
     40 H13        18.0336  -11.0522   21.8474 H         1 22U         0.0802
     41 H14        16.1328   -9.9035   21.5136 H         1 22U         0.1878
     42 H15        14.1327  -11.3033   19.7236 H         1 22U         0.0683
     43 H16        14.3294   -9.5185   19.7723 H         1 22U         0.0683
     44 H17        13.9813   -8.4344   22.2660 H         1 22U         0.0562
     45 H18        10.6881  -10.2668   24.3432 H         1 22U         0.0565
     46 H19        10.8418  -12.2313   22.8358 H         1 22U         0.0599
     47 H20        12.4695  -12.2403   20.9840 H         1 22U         0.0559
     48 H21        20.5461  -15.7284   23.4816 H         1 22U         0.0557
     49 H22        22.7754  -14.6609   23.7262 H         1 22U         0.0599
     50 H23        23.0238  -12.5625   24.9955 H         1 22U         0.0559
     51 H24        21.1373  -11.7742   26.4578 H         1 22U         0.0599
     52 H25        18.8829  -12.7346   26.0710 H         1 22U         0.0557
@<TRIPOS>BOND
     1    1    3 1  
     2    1   21 1  
     3    3    2 1  
     4    3    4 1  
     5    4    5 2  
     6    4    6 am 
     7    6    7 1  
     8    6   10 1  
     9    7    8 1  
    10    8    9 1  
    11    9   10 1  
    12   10   11 1  
    13   11   12 am 
    14   11   20 2  
    15   12   13 1  
    16   13   14 1  
    17   14   15 ar 
    18   14   19 ar 
    19   15   16 ar 
    20   16   17 ar 
    21   16   27 1  
    22   17   18 ar 
    23   18   19 ar 
    24   21   22 ar 
    25   21   26 ar 
    26   22   23 ar 
    27   23   24 ar 
    28   24   25 ar 
    29   25   26 ar 
    30    1   28 1  
    31    1   29 1  
    32    2   30 1  
    33    2   31 1  
    34    2   32 1  
    35    3   33 1  
    36    7   34 1  
    37    7   35 1  
    38    8   36 1  
    39    8   37 1  
    40    9   38 1  
    41    9   39 1  
    42   10   40 1  
    43   12   41 1  
    44   13   42 1  
    45   13   43 1  
    46   15   44 1  
    47   17   45 1  
    48   18   46 1  
    49   19   47 1  
    50   22   48 1  
    51   23   49 1  
    52   24   50 1  
    53   25   51 1  
    54   26   52 1  
@<TRIPOS>SUBSTRUCTURE
     1 22U         1

