### 
### Created by X-TOOL on Mon Sep 10 21:12:57 2018
### 

@<TRIPOS>MOLECULE
2zda_ligand
   58    60     1     0     0
SMALL
GAST_HUCK


@<TRIPOS>ATOM
      1 N1         18.5340  -13.4950   21.7020 N.am      1 32U        -0.2470
      2 C1         18.4020  -12.1880   21.1060 C.3       1 32U         0.1339
      3 C7         17.0550  -12.0990   20.4110 C.2       1 32U         0.2037
      4 O22        16.6070  -13.0590   19.7980 O.2       1 32U        -0.3944
      5 N23        16.4400  -10.8940   20.4880 N.am      1 32U        -0.2737
      6 C24        15.1610  -10.8260   19.7490 C.3       1 32U         0.0645
      7 C25        14.0560  -10.8140   20.8210 C.ar      1 32U        -0.0210
      8 C26        13.6330  -12.0110   21.3850 C.ar      1 32U        -0.0584
      9 C27        12.6360  -12.0280   22.3570 C.ar      1 32U        -0.0633
     10 C28        12.0380  -10.8380   22.7830 C.ar      1 32U         0.0188
     11 C21        10.8850  -10.8290   23.9030 C.cat     1 32U         0.2318
     12 N46        10.5950   -9.6970   24.5280 N.pl3     1 32U        -0.2729
     13 N47        10.2350  -11.9340   24.1950 N.pl3     1 32U        -0.2729
     14 C29        12.4720   -9.6480   22.2100 C.ar      1 32U        -0.0633
     15 C30        13.4720   -9.6230   21.2350 C.ar      1 32U        -0.0584
     16 C2         19.4930  -12.2580   19.9960 C.3       1 32U        -0.0104
     17 C3         20.5540  -13.1510   20.6840 C.3       1 32U        -0.0281
     18 C4         19.7150  -14.2790   21.3400 C.3       1 32U         0.0371
     19 C14        17.6420  -13.9000   22.6520 C.2       1 32U         0.2313
     20 C5         17.7070  -15.2630   23.2930 C.3       1 32U         0.0746
     21 N13        16.4070  -15.9690   23.2170 N.4       1 32U         0.2394
     22 C33        18.2000  -15.1780   24.7660 C.3       1 32U         0.0416
     23 O32        16.7470  -13.1380   23.0070 O.2       1 32U        -0.3903
     24 C6         19.6330  -14.6780   24.8320 C.ar      1 32U        -0.0353
     25 C8         20.7020  -15.4890   24.4400 C.ar      1 32U        -0.0600
     26 C9         22.0080  -15.0060   24.5090 C.ar      1 32U        -0.0686
     27 C10        22.2700  -13.7180   24.9670 C.ar      1 32U        -0.0687
     28 C11        21.1970  -12.9070   25.3620 C.ar      1 32U        -0.0686
     29 C12        19.8990  -13.3910   25.2910 C.ar      1 32U        -0.0600
     30 H1         18.5525  -11.3660   21.8213 H         1 32U         0.0802
     31 H2         16.8169  -10.1209   20.9982 H         1 32U         0.1878
     32 H3         15.0499  -11.7031   19.0945 H         1 32U         0.0683
     33 H4         15.1169   -9.9087   19.1435 H         1 32U         0.0683
     34 H5         14.0845  -12.9430   21.0646 H         1 32U         0.0557
     35 H6         12.3208  -12.9718   22.7871 H         1 32U         0.0599
     36 H7          9.8580   -9.6801   25.2473 H         1 32U         0.3180
     37 H8         11.1066   -8.8341   24.2945 H         1 32U         0.3180
     38 H9         10.4645  -12.8110   23.7061 H         1 32U         0.3180
     39 H10         9.4963  -11.9226   24.9127 H         1 32U         0.3180
     40 H11        12.0223   -8.7145   22.5284 H         1 32U         0.0599
     41 H12        13.7904   -8.6806   20.8041 H         1 32U         0.0557
     42 H13        19.8947  -11.2614   19.7604 H         1 32U         0.0313
     43 H14        19.1063  -12.7240   19.0777 H         1 32U         0.0313
     44 H15        21.1110  -12.5837   21.4442 H         1 32U         0.0287
     45 H16        21.2575  -13.5639   19.9460 H         1 32U         0.0287
     46 H17        19.4755  -15.0833   20.6288 H         1 32U         0.0524
     47 H18        20.2143  -14.7062   22.2222 H         1 32U         0.0524
     48 H19        18.4414  -15.8572   22.7295 H         1 32U         0.1123
     49 H20        16.4897  -16.8734   23.6544 H         1 32U         0.2017
     50 H21        16.1441  -16.0859   22.2510 H         1 32U         0.2017
     51 H22        15.7026  -15.4283   23.6939 H         1 32U         0.2017
     52 H23        18.1465  -16.1778   25.2216 H         1 32U         0.0507
     53 H24        17.5515  -14.4859   25.3231 H         1 32U         0.0507
     54 H25        20.5152  -16.4949   24.0818 H         1 32U         0.0557
     55 H26        22.8303  -15.6420   24.2019 H         1 32U         0.0599
     56 H27        23.2876  -13.3479   25.0174 H         1 32U         0.0559
     57 H28        21.3816  -11.9017   25.7229 H         1 32U         0.0599
     58 H29        19.0766  -12.7553   25.5986 H         1 32U         0.0557
@<TRIPOS>BOND
     1    1    2 1  
     2    1   18 1  
     3    1   19 am 
     4    2    3 1  
     5    2   16 1  
     6    3    4 2  
     7    3    5 am 
     8    5    6 1  
     9    6    7 1  
    10    7    8 ar 
    11    7   15 ar 
    12    8    9 ar 
    13    9   10 ar 
    14   10   11 1  
    15   10   14 ar 
    16   11   12 ar 
    17   11   13 ar 
    18   14   15 ar 
    19   16   17 1  
    20   17   18 1  
    21   19   20 1  
    22   19   23 2  
    23   20   21 1  
    24   20   22 1  
    25   22   24 1  
    26   24   25 ar 
    27   24   29 ar 
    28   25   26 ar 
    29   26   27 ar 
    30   27   28 ar 
    31   28   29 ar 
    32    2   30 1  
    33    5   31 1  
    34    6   32 1  
    35    6   33 1  
    36    8   34 1  
    37    9   35 1  
    38   12   36 1  
    39   12   37 1  
    40   13   38 1  
    41   13   39 1  
    42   14   40 1  
    43   15   41 1  
    44   16   42 1  
    45   16   43 1  
    46   17   44 1  
    47   17   45 1  
    48   18   46 1  
    49   18   47 1  
    50   20   48 1  
    51   21   49 1  
    52   21   50 1  
    53   21   51 1  
    54   22   52 1  
    55   22   53 1  
    56   25   54 1  
    57   26   55 1  
    58   27   56 1  
    59   28   57 1  
    60   29   58 1  
@<TRIPOS>SUBSTRUCTURE
     1 32U         1

