### 
### Created by X-TOOL on Mon Sep 10 21:12:57 2018
### 

@<TRIPOS>MOLECULE
2zdk_ligand
   61    63     1     0     0
SMALL
GAST_HUCK


@<TRIPOS>ATOM
      1 N1        -28.2180    1.1660   15.6290 N.am      1 50U        -0.2517
      2 C1        -27.3600    0.6920   14.5660 C.3       1 50U         0.1337
      3 C7        -26.2580    1.6720   14.2550 C.2       1 50U         0.2037
      4 O22       -26.4490    2.8830   14.2990 O.2       1 50U        -0.3944
      5 N23       -25.1720    1.0840   13.9540 N.am      1 50U        -0.2737
      6 C24       -24.0160    1.8370   13.5330 C.3       1 50U         0.0645
      7 C25       -22.8910    1.6630   14.5790 C.ar      1 50U        -0.0210
      8 C26       -23.1280    2.0080   15.9130 C.ar      1 50U        -0.0584
      9 C27       -22.1060    1.8500   16.8660 C.ar      1 50U        -0.0633
     10 C28       -20.8550    1.3520   16.4840 C.ar      1 50U         0.0188
     11 C21       -19.7110    1.1550   17.4450 C.cat     1 50U         0.2318
     12 N46       -19.5400    1.9560   18.4330 N.pl3     1 50U        -0.2729
     13 N47       -18.9210    0.1650   17.2410 N.pl3     1 50U        -0.2729
     14 C29       -20.6190    1.0040   15.1340 C.ar      1 50U        -0.0633
     15 C30       -21.6500    1.1670   14.1960 C.ar      1 50U        -0.0584
     16 C2        -28.4040    0.6790   13.4290 C.3       1 50U        -0.0104
     17 C3        -29.8010    0.6590   14.0610 C.3       1 50U        -0.0281
     18 C4        -29.6640    1.2570   15.4840 C.3       1 50U         0.0369
     19 C14       -27.7110    1.4180   16.7930 C.2       1 50U         0.1807
     20 C5        -28.5150    2.0160   17.9480 C.3       1 50U         0.0378
     21 C43       -28.5040    1.0490   19.1550 C.3       1 50U        -0.0332
     22 C44       -29.0880   -0.3620   18.8720 C.3       1 50U        -0.0390
     23 C49       -28.7730   -1.3790   19.9770 C.3       1 50U        -0.0501
     24 C48       -29.1740   -2.8440   19.6310 C.3       1 50U        -0.0528
     25 C47       -30.6150   -2.9330   19.1270 C.3       1 50U        -0.0530
     26 C46       -31.0910   -1.7790   18.2420 C.3       1 50U        -0.0528
     27 C45       -30.5990   -0.3640   18.5680 C.3       1 50U        -0.0501
     28 O32       -26.5330    1.2180   17.0320 O.2       1 50U        -0.3967
     29 H1        -26.9384   -0.3026   14.7734 H         1 50U         0.0802
     30 H2        -25.1184    0.0870   14.0098 H         1 50U         0.1878
     31 H3        -24.2801    2.9016   13.4497 H         1 50U         0.0683
     32 H4        -23.6711    1.4672   12.5561 H         1 50U         0.0683
     33 H5        -24.0954    2.3956   16.2114 H         1 50U         0.0557
     34 H6        -22.2880    2.1151   17.9012 H         1 50U         0.0599
     35 H7        -18.7545    1.8113   19.0833 H         1 50U         0.3180
     36 H8        -20.1883    2.7436   18.5757 H         1 50U         0.3180
     37 H9        -19.0794   -0.4639   16.4408 H         1 50U         0.3180
     38 H10       -18.1283   -0.0010   17.8774 H         1 50U         0.3180
     39 H11       -19.6542    0.6163   14.8276 H         1 50U         0.0599
     40 H12       -21.4765    0.9027   13.1591 H         1 50U         0.0557
     41 H13       -28.2645   -0.2166   12.8057 H         1 50U         0.0313
     42 H14       -28.2893    1.5796   12.8079 H         1 50U         0.0313
     43 H15       -30.1741   -0.3741   14.1199 H         1 50U         0.0287
     44 H16       -30.4954    1.2660   13.4616 H         1 50U         0.0287
     45 H17       -30.0189    2.2971   15.5305 H         1 50U         0.0524
     46 H18       -30.1931    0.6550   16.2374 H         1 50U         0.0524
     47 H19       -29.5527    2.1811   17.6227 H         1 50U         0.0502
     48 H20       -28.0670    2.9755   18.2457 H         1 50U         0.0502
     49 H21       -29.0932    1.5061   19.9636 H         1 50U         0.0292
     50 H22       -27.4617    0.9268   19.4847 H         1 50U         0.0292
     51 H23       -28.5852   -0.7195   17.9613 H         1 50U         0.0302
     52 H24       -29.3144   -1.0790   20.8863 H         1 50U         0.0268
     53 H25       -27.6903   -1.3543   20.1699 H         1 50U         0.0268
     54 H26       -29.0736   -3.4637   20.5343 H         1 50U         0.0265
     55 H27       -28.4992   -3.2230   18.8494 H         1 50U         0.0265
     56 H28       -31.2760   -2.9779   20.0051 H         1 50U         0.0265
     57 H29       -30.7115   -3.8629   18.5474 H         1 50U         0.0265
     58 H30       -32.1897   -1.7616   18.2920 H         1 50U         0.0265
     59 H31       -30.7743   -2.0052   17.2132 H         1 50U         0.0265
     60 H32       -30.7937    0.2920   17.7068 H         1 50U         0.0268
     61 H33       -31.1434    0.0128   19.4465 H         1 50U         0.0268
@<TRIPOS>BOND
     1    1    2 1  
     2    1   18 1  
     3    1   19 am 
     4    2    3 1  
     5    2   16 1  
     6    3    4 2  
     7    3    5 am 
     8    5    6 1  
     9    6    7 1  
    10    7    8 ar 
    11    7   15 ar 
    12    8    9 ar 
    13    9   10 ar 
    14   10   11 1  
    15   10   14 ar 
    16   11   12 ar 
    17   11   13 ar 
    18   14   15 ar 
    19   16   17 1  
    20   17   18 1  
    21   19   20 1  
    22   19   28 2  
    23   20   21 1  
    24   21   22 1  
    25   22   23 1  
    26   22   27 1  
    27   23   24 1  
    28   24   25 1  
    29   25   26 1  
    30   26   27 1  
    31    2   29 1  
    32    5   30 1  
    33    6   31 1  
    34    6   32 1  
    35    8   33 1  
    36    9   34 1  
    37   12   35 1  
    38   12   36 1  
    39   13   37 1  
    40   13   38 1  
    41   14   39 1  
    42   15   40 1  
    43   16   41 1  
    44   16   42 1  
    45   17   43 1  
    46   17   44 1  
    47   18   45 1  
    48   18   46 1  
    49   20   47 1  
    50   20   48 1  
    51   21   49 1  
    52   21   50 1  
    53   22   51 1  
    54   23   52 1  
    55   23   53 1  
    56   24   54 1  
    57   24   55 1  
    58   25   56 1  
    59   25   57 1  
    60   26   58 1  
    61   26   59 1  
    62   27   60 1  
    63   27   61 1  
@<TRIPOS>SUBSTRUCTURE
     1 50U         1

