### 
### Created by X-TOOL on Mon Sep 10 21:12:57 2018
### 

@<TRIPOS>MOLECULE
2zdl_ligand
   56    58     1     0     0
SMALL
GAST_HUCK


@<TRIPOS>ATOM
      1 O32       -27.1140    1.2500   17.3120 O.2       1 45U        -0.3942
      2 C14       -28.2890    1.2680   16.9750 C.2       1 45U         0.2068
      3 C5        -29.2010    1.5240   18.1660 C.3       1 45U         0.1372
      4 O21       -30.2100    0.5790   18.2950 O.3       1 45U        -0.3563
      5 C44       -30.4210   -0.5130   19.1540 C.3       1 45U         0.0617
      6 C49       -29.0460   -1.2220   19.2190 C.3       1 45U        -0.0264
      7 C48       -29.2770   -2.6990   19.5300 C.3       1 45U        -0.0506
      8 C47       -30.7170   -2.9980   19.2280 C.3       1 45U        -0.0506
      9 C45       -31.2390   -1.7150   18.5130 C.3       1 45U        -0.0264
     10 N1        -28.6000    1.0760   15.6800 N.am      1 45U        -0.2498
     11 C1        -27.6310    0.5370   14.7420 C.3       1 45U         0.1338
     12 C2        -28.4420    0.4190   13.4560 C.3       1 45U        -0.0104
     13 C3        -29.8100    1.0510   13.6610 C.3       1 45U        -0.0281
     14 C4        -30.0450    1.0760   15.1600 C.3       1 45U         0.0369
     15 C7        -26.5880    1.6070   14.5670 C.2       1 45U         0.2037
     16 O22       -26.7650    2.7840   14.8010 O.2       1 45U        -0.3944
     17 N23       -25.4480    1.1950   14.0890 N.am      1 45U        -0.2737
     18 C24       -24.3670    2.0320   13.5620 C.3       1 45U         0.0645
     19 C25       -23.2710    1.8660   14.6350 C.ar      1 45U        -0.0210
     20 C26       -22.0060    1.3780   14.3650 C.ar      1 45U        -0.0584
     21 C27       -20.9680    1.2070   15.3150 C.ar      1 45U        -0.0633
     22 C28       -21.0350    1.4970   16.6720 C.ar      1 45U         0.0188
     23 C21       -19.8770    1.2890   17.6450 C.cat     1 45U         0.2318
     24 N46       -19.0610    0.2870   17.3180 N.pl3     1 45U        -0.2729
     25 N47       -19.7140    2.0500   18.7200 N.pl3     1 45U        -0.2729
     26 C29       -22.2870    1.9780   16.9340 C.ar      1 45U        -0.0633
     27 C30       -23.3580    2.1610   15.9910 C.ar      1 45U        -0.0584
     28 H1        -29.6633    2.5149   18.0458 H         1 45U         0.0804
     29 H2        -28.5918    1.5122   19.0818 H         1 45U         0.0804
     30 H3        -30.8265   -0.1902   20.1243 H         1 45U         0.0598
     31 H4        -28.4313   -0.7679   20.0102 H         1 45U         0.0290
     32 H5        -28.5311   -1.1225   18.2521 H         1 45U         0.0290
     33 H6        -29.0656   -2.8980   20.5910 H         1 45U         0.0266
     34 H7        -28.6233   -3.3227   18.9026 H         1 45U         0.0266
     35 H8        -31.2789   -3.1823   20.1555 H         1 45U         0.0266
     36 H9        -30.8023   -3.8734   18.5675 H         1 45U         0.0266
     37 H10       -31.0516   -1.7743   17.4307 H         1 45U         0.0290
     38 H11       -32.3166   -1.5860   18.6921 H         1 45U         0.0290
     39 H12       -27.1950   -0.4208   15.0623 H         1 45U         0.0802
     40 H13       -28.5638   -0.6426   13.1951 H         1 45U         0.0313
     41 H14       -27.9161    0.9388   12.6416 H         1 45U         0.0313
     42 H15       -30.5858    0.4505   13.1635 H         1 45U         0.0287
     43 H16       -29.8220    2.0737   13.2562 H         1 45U         0.0287
     44 H17       -30.5862    1.9822   15.4695 H         1 45U         0.0524
     45 H18       -30.5965    0.1862   15.4978 H         1 45U         0.0524
     46 H19       -25.2953    0.2068   14.0810 H         1 45U         0.1878
     47 H20       -24.6827    3.0820   13.4740 H         1 45U         0.0683
     48 H21       -24.0235    1.6690   12.5821 H         1 45U         0.0683
     49 H22       -21.7894    1.1026   13.3392 H         1 45U         0.0557
     50 H23       -20.0289    0.8107   14.9461 H         1 45U         0.0599
     51 H24       -18.2496    0.0684   17.9135 H         1 45U         0.3180
     52 H25       -19.2419   -0.2686   16.4698 H         1 45U         0.3180
     53 H26       -20.3800    2.8102   18.9186 H         1 45U         0.3180
     54 H27       -18.9215    1.8804   19.3557 H         1 45U         0.3180
     55 H28       -22.4954    2.2508   17.9622 H         1 45U         0.0599
     56 H29       -24.2966    2.5557   16.3629 H         1 45U         0.0557
@<TRIPOS>BOND
     1    1    2 2  
     2    2    3 1  
     3    2   10 am 
     4    3    4 1  
     5    4    5 1  
     6    5    6 1  
     7    5    9 1  
     8    6    7 1  
     9    7    8 1  
    10    8    9 1  
    11   10   11 1  
    12   10   14 1  
    13   11   12 1  
    14   11   15 1  
    15   12   13 1  
    16   13   14 1  
    17   15   16 2  
    18   15   17 am 
    19   17   18 1  
    20   18   19 1  
    21   19   20 ar 
    22   19   27 ar 
    23   20   21 ar 
    24   21   22 ar 
    25   22   23 1  
    26   22   26 ar 
    27   23   24 ar 
    28   23   25 ar 
    29   26   27 ar 
    30    3   28 1  
    31    3   29 1  
    32    5   30 1  
    33    6   31 1  
    34    6   32 1  
    35    7   33 1  
    36    7   34 1  
    37    8   35 1  
    38    8   36 1  
    39    9   37 1  
    40    9   38 1  
    41   11   39 1  
    42   12   40 1  
    43   12   41 1  
    44   13   42 1  
    45   13   43 1  
    46   14   44 1  
    47   14   45 1  
    48   17   46 1  
    49   18   47 1  
    50   18   48 1  
    51   20   49 1  
    52   21   50 1  
    53   24   51 1  
    54   24   52 1  
    55   25   53 1  
    56   25   54 1  
    57   26   55 1  
    58   27   56 1  
@<TRIPOS>SUBSTRUCTURE
     1 45U         1

