### 
### Created by X-TOOL on Mon Sep 10 21:12:57 2018
### 

@<TRIPOS>MOLECULE
2zdm_ligand
   59    61     1     0     0
SMALL
GAST_HUCK


@<TRIPOS>ATOM
      1 O32       -26.6630    1.1520   17.1460 O.2       1 46U        -0.3942
      2 C14       -27.8210    1.2100   16.7650 C.2       1 46U         0.2068
      3 C5        -28.7790    1.6750   17.8730 C.3       1 46U         0.1372
      4 O21       -29.5470    0.7560   18.6000 O.3       1 46U        -0.3563
      5 C44       -29.3230   -0.6090   18.7210 C.3       1 46U         0.0617
      6 C49       -30.5900   -1.4470   18.7640 C.3       1 46U        -0.0264
      7 C48       -30.4370   -2.9300   18.9920 C.3       1 46U        -0.0507
      8 C47       -29.7920   -2.9940   20.3180 C.3       1 46U        -0.0529
      9 C46       -28.4840   -2.2660   20.3640 C.3       1 46U        -0.0507
     10 C45       -28.6890   -0.8300   20.0270 C.3       1 46U        -0.0264
     11 N1        -28.2210    0.9450   15.5780 N.am      1 46U        -0.2498
     12 C1        -27.1950    0.5070   14.6360 C.3       1 46U         0.1338
     13 C2        -27.8160    0.2810   13.2540 C.3       1 46U        -0.0104
     14 C3        -29.2250    0.8260   13.4310 C.3       1 46U        -0.0281
     15 C4        -29.5640    0.8420   14.9210 C.3       1 46U         0.0369
     16 C7        -26.0800    1.5080   14.3320 C.2       1 46U         0.2037
     17 O22       -26.2290    2.7270   14.4250 O.2       1 46U        -0.3944
     18 N23       -24.8470    1.0860   13.9490 N.am      1 46U        -0.2737
     19 C24       -23.6840    1.9440   13.6630 C.3       1 46U         0.0645
     20 C25       -22.5750    1.7540   14.6850 C.ar      1 46U        -0.0210
     21 C26       -21.3520    1.2480   14.2390 C.ar      1 46U        -0.0584
     22 C27       -20.3190    1.0630   15.1510 C.ar      1 46U        -0.0633
     23 C28       -20.4690    1.3680   16.4970 C.ar      1 46U         0.0188
     24 C21       -19.3280    1.1530   17.4440 C.cat     1 46U         0.2318
     25 N46       -18.5040    0.1500   17.2140 N.pl3     1 46U        -0.2729
     26 N47       -19.1320    1.9360   18.4910 N.pl3     1 46U        -0.2729
     27 C29       -21.6540    1.8630   16.9540 C.ar      1 46U        -0.0633
     28 C30       -22.7000    2.0540   16.0500 C.ar      1 46U        -0.0584
     29 H1        -29.4888    2.3699   17.4004 H         1 46U         0.0804
     30 H2        -28.1665    2.2193   18.6069 H         1 46U         0.0804
     31 H3        -28.6764   -0.9484   17.8984 H         1 46U         0.0598
     32 H4        -31.1063   -1.3132   17.8020 H         1 46U         0.0290
     33 H5        -31.2188   -1.0521   19.5756 H         1 46U         0.0290
     34 H6        -29.8001   -3.3857   18.2196 H         1 46U         0.0266
     35 H7        -31.4157   -3.4319   19.0033 H         1 46U         0.0266
     36 H8        -29.6156   -4.0496   20.5722 H         1 46U         0.0265
     37 H9        -30.4694   -2.5463   21.0601 H         1 46U         0.0265
     38 H10       -27.7911   -2.7154   19.6375 H         1 46U         0.0266
     39 H11       -28.0579   -2.3458   21.3750 H         1 46U         0.0266
     40 H12       -29.3270   -0.3803   20.8021 H         1 46U         0.0290
     41 H13       -27.7084   -0.3317   20.0245 H         1 46U         0.0290
     42 H14       -26.7549   -0.4240   15.0227 H         1 46U         0.0802
     43 H15       -27.8332   -0.7882   12.9963 H         1 46U         0.0313
     44 H16       -27.2699    0.8366   12.4775 H         1 46U         0.0313
     45 H17       -29.9398    0.1832   12.8963 H         1 46U         0.0287
     46 H18       -29.2791    1.8484   13.0287 H         1 46U         0.0287
     47 H19       -30.1935    1.7082   15.1727 H         1 46U         0.0524
     48 H20       -30.0783   -0.0838   15.2182 H         1 46U         0.0524
     49 H21       -24.7163    0.0993   13.8520 H         1 46U         0.1878
     50 H22       -24.0055    2.9958   13.6785 H         1 46U         0.0683
     51 H23       -23.2946    1.6943   12.6650 H         1 46U         0.0683
     52 H24       -21.2097    1.0021   13.1929 H         1 46U         0.0557
     53 H25       -19.3710    0.6701   14.8017 H         1 46U         0.0599
     54 H26       -17.7111   -0.0210   17.8488 H         1 46U         0.3180
     55 H27       -18.6531   -0.4626   16.3995 H         1 46U         0.3180
     56 H28       -19.7734    2.7208   18.6744 H         1 46U         0.3180
     57 H29       -18.3379    1.7613   19.1233 H         1 46U         0.3180
     58 H30       -21.7819    2.1045   18.0030 H         1 46U         0.0599
     59 H31       -23.6417    2.4478   16.4150 H         1 46U         0.0557
@<TRIPOS>BOND
     1    1    2 2  
     2    2    3 1  
     3    2   11 am 
     4    3    4 1  
     5    4    5 1  
     6    5    6 1  
     7    5   10 1  
     8    6    7 1  
     9    7    8 1  
    10    8    9 1  
    11    9   10 1  
    12   11   12 1  
    13   11   15 1  
    14   12   13 1  
    15   12   16 1  
    16   13   14 1  
    17   14   15 1  
    18   16   17 2  
    19   16   18 am 
    20   18   19 1  
    21   19   20 1  
    22   20   21 ar 
    23   20   28 ar 
    24   21   22 ar 
    25   22   23 ar 
    26   23   24 1  
    27   23   27 ar 
    28   24   25 ar 
    29   24   26 ar 
    30   27   28 ar 
    31    3   29 1  
    32    3   30 1  
    33    5   31 1  
    34    6   32 1  
    35    6   33 1  
    36    7   34 1  
    37    7   35 1  
    38    8   36 1  
    39    8   37 1  
    40    9   38 1  
    41    9   39 1  
    42   10   40 1  
    43   10   41 1  
    44   12   42 1  
    45   13   43 1  
    46   13   44 1  
    47   14   45 1  
    48   14   46 1  
    49   15   47 1  
    50   15   48 1  
    51   18   49 1  
    52   19   50 1  
    53   19   51 1  
    54   21   52 1  
    55   22   53 1  
    56   25   54 1  
    57   25   55 1  
    58   26   56 1  
    59   26   57 1  
    60   27   58 1  
    61   28   59 1  
@<TRIPOS>SUBSTRUCTURE
     1 46U         1

