### 
### Created by X-TOOL on Mon Sep 10 21:12:57 2018
### 

@<TRIPOS>MOLECULE
2zdn_ligand
   58    60     1     0     0
SMALL
GAST_HUCK


@<TRIPOS>ATOM
      1 C47       -31.2940   -1.9020   18.7110 C.3       1 49U        -0.0528
      2 C45       -30.6810   -0.5410   18.2600 C.3       1 49U        -0.0501
      3 C44       -29.1640   -0.6340   18.6100 C.3       1 49U        -0.0390
      4 C49       -29.1170   -1.6550   19.7750 C.3       1 49U        -0.0501
      5 C48       -30.2290   -2.6770   19.4830 C.3       1 49U        -0.0528
      6 C21       -28.4740    0.6340   19.1180 C.3       1 49U        -0.0332
      7 C5        -28.5490    1.6470   18.0200 C.3       1 49U         0.0378
      8 C14       -27.6260    1.3410   16.8970 C.2       1 49U         0.1807
      9 O32       -26.4130    1.2220   17.0330 O.2       1 49U        -0.3967
     10 N1        -28.1900    1.2020   15.7020 N.am      1 49U        -0.2517
     11 C1        -27.4160    0.7930   14.5370 C.3       1 49U         0.1337
     12 C7        -26.2180    1.6490   14.2790 C.2       1 49U         0.2037
     13 O22       -26.2630    2.8550   14.4520 O.2       1 49U        -0.3944
     14 C2        -28.4510    0.9520   13.4430 C.3       1 49U        -0.0104
     15 C3        -29.8480    0.9250   14.0150 C.3       1 49U        -0.0281
     16 C4        -29.6150    1.4530   15.4150 C.3       1 49U         0.0369
     17 N23       -25.0840    1.1450   13.8960 N.am      1 49U        -0.2737
     18 C24       -23.8870    1.8350   13.5870 C.3       1 49U         0.0645
     19 C25       -22.8330    1.6870   14.6120 C.ar      1 49U        -0.0210
     20 C30       -23.0260    1.9730   15.9290 C.ar      1 49U        -0.0584
     21 C29       -21.9870    1.8100   16.8380 C.ar      1 49U        -0.0633
     22 C28       -20.7410    1.3600   16.4560 C.ar      1 49U         0.0188
     23 C9        -19.6160    1.1830   17.4360 C.cat     1 49U         0.2318
     24 N46       -19.4740    2.0300   18.4450 N.pl3     1 49U        -0.2729
     25 N47       -18.7650    0.1810   17.2910 N.pl3     1 49U        -0.2729
     26 C27       -20.5600    1.0730   15.1090 C.ar      1 49U        -0.0633
     27 C26       -21.5910    1.2310   14.1800 C.ar      1 49U        -0.0584
     28 H1        -31.6071   -2.4792   17.8285 H         1 49U         0.0265
     29 H2        -32.1645   -1.7211   19.3586 H         1 49U         0.0265
     30 H3        -31.1510    0.2918   18.8036 H         1 49U         0.0268
     31 H4        -30.8182   -0.3967   17.1782 H         1 49U         0.0268
     32 H5        -28.6148   -1.0028   17.7311 H         1 49U         0.0302
     33 H6        -29.3033   -1.1501   20.7344 H         1 49U         0.0268
     34 H7        -28.1373   -2.1541   19.8075 H         1 49U         0.0268
     35 H8        -29.8397   -3.5071   18.8752 H         1 49U         0.0265
     36 H9        -30.6446   -3.0730   20.4213 H         1 49U         0.0265
     37 H10       -27.4231    0.4195   19.3620 H         1 49U         0.0292
     38 H11       -28.9891    1.0104   20.0141 H         1 49U         0.0292
     39 H12       -28.2881    2.6331   18.4318 H         1 49U         0.0502
     40 H13       -29.5784    1.6719   17.6332 H         1 49U         0.0502
     41 H14       -27.0901   -0.2533   14.6313 H         1 49U         0.0802
     42 H15       -28.3415    0.1292   12.7212 H         1 49U         0.0313
     43 H16       -28.2898    1.9124   12.9315 H         1 49U         0.0313
     44 H17       -30.2541   -0.0971   14.0341 H         1 49U         0.0287
     45 H18       -30.5267    1.5787   13.4475 H         1 49U         0.0287
     46 H19       -29.8317    2.5305   15.4599 H         1 49U         0.0524
     47 H20       -30.2516    0.9206   16.1369 H         1 49U         0.0524
     48 H21       -25.0525    0.1493   13.8088 H         1 49U         0.1878
     49 H22       -24.1204    2.9047   13.4813 H         1 49U         0.0683
     50 H23       -23.4998    1.4481   12.6328 H         1 49U         0.0683
     51 H24       -23.9918    2.3285   16.2694 H         1 49U         0.0557
     52 H25       -22.1622    2.0445   17.8817 H         1 49U         0.0599
     53 H26       -18.7022    1.9071   19.1159 H         1 49U         0.3180
     54 H27       -20.1355    2.8113   18.5585 H         1 49U         0.3180
     55 H28       -18.8743   -0.4781   16.5071 H         1 49U         0.3180
     56 H29       -17.9930    0.0598   17.9620 H         1 49U         0.3180
     57 H30       -19.5937    0.7173   14.7701 H         1 49U         0.0599
     58 H31       -21.4256    1.0009   13.1337 H         1 49U         0.0557
@<TRIPOS>BOND
     1    1    2 1  
     2    1    5 1  
     3    2    3 1  
     4    3    4 1  
     5    3    6 1  
     6    4    5 1  
     7    6    7 1  
     8    7    8 1  
     9    8    9 2  
    10    8   10 am 
    11   10   11 1  
    12   10   16 1  
    13   11   12 1  
    14   11   14 1  
    15   12   13 2  
    16   12   17 am 
    17   14   15 1  
    18   15   16 1  
    19   17   18 1  
    20   18   19 1  
    21   19   20 ar 
    22   19   27 ar 
    23   20   21 ar 
    24   21   22 ar 
    25   22   23 1  
    26   22   26 ar 
    27   23   24 ar 
    28   23   25 ar 
    29   26   27 ar 
    30    1   28 1  
    31    1   29 1  
    32    2   30 1  
    33    2   31 1  
    34    3   32 1  
    35    4   33 1  
    36    4   34 1  
    37    5   35 1  
    38    5   36 1  
    39    6   37 1  
    40    6   38 1  
    41    7   39 1  
    42    7   40 1  
    43   11   41 1  
    44   14   42 1  
    45   14   43 1  
    46   15   44 1  
    47   15   45 1  
    48   16   46 1  
    49   16   47 1  
    50   17   48 1  
    51   18   49 1  
    52   18   50 1  
    53   20   51 1  
    54   21   52 1  
    55   24   53 1  
    56   24   54 1  
    57   25   55 1  
    58   25   56 1  
    59   26   57 1  
    60   27   58 1  
@<TRIPOS>SUBSTRUCTURE
     1 49U         1

