### 
### Created by X-TOOL on Mon Sep 10 21:12:58 2018
### 

@<TRIPOS>MOLECULE
2zdt_ligand
   51    54     1     0     0
SMALL
GAST_HUCK


@<TRIPOS>ATOM
      1 C4         44.9900    7.7840   32.3550 C.ar      1 46C         0.0547
      2 C5         43.7810    7.7660   33.1860 C.ar      1 46C        -0.0480
      3 C6         43.3960    9.0110   33.8360 C.ar      1 46C        -0.0489
      4 C10        46.9530    8.9150   31.2900 C.2       1 46C         0.0244
      5 N12        46.4940    6.5070   30.8710 N.am      1 46C        -0.1831
      6 C13        45.3870    6.5400   31.6110 C.2       1 46C         0.2361
      7 C15        47.7340   10.1060   30.9950 C.ar      1 46C        -0.0319
      8 C17        48.5160    7.5860   29.7570 C.2       1 46C         0.1746
      9 C20        50.9310    8.0740   29.1850 C.3       1 46C        -0.0496
     10 C26        46.8430    5.2350   30.2080 C.3       1 46C         0.1021
     11 C1         44.2220   10.2100   33.6400 C.ar      1 46C         0.0383
     12 C2         45.4310   10.2140   32.8130 C.ar      1 46C        -0.0443
     13 C3         45.7950    8.9730   32.1710 C.ar      1 46C        -0.0127
     14 C11        47.2990    7.6610   30.6710 C.2       1 46C         0.1609
     15 CL14       43.7890   11.6300   34.3890 Cl        1 46C        -0.0689
     16 O16        44.6710    5.5460   31.6800 O.2       1 46C        -0.3887
     17 O18        48.3610    7.2010   28.5990 O.2       1 46C        -0.3668
     18 C19        49.8970    7.9610   30.2860 C.3       1 46C         0.0254
     19 C27        47.9650    4.5110   30.8820 C.ar      1 46C        -0.0088
     20 C30        47.7190    3.9370   32.1980 C.ar      1 46C        -0.0538
     21 C31        48.8160    3.2610   32.8770 C.ar      1 46C        -0.0542
     22 C32        50.1170    3.1750   32.2150 C.ar      1 46C         0.0032
     23 C33        50.3710    3.7490   30.8860 C.ar      1 46C        -0.0542
     24 C34        49.2630    4.4360   30.2040 C.ar      1 46C        -0.0538
     25 C39        48.5990   10.6600   32.0400 C.ar      1 46C        -0.0630
     26 C40        49.3750   11.8700   31.7400 C.ar      1 46C        -0.0680
     27 C41        49.2700   12.5050   30.4110 C.ar      1 46C        -0.0678
     28 C42        48.3910   11.9240   29.3760 C.ar      1 46C        -0.0680
     29 C43        47.6100   10.7100   29.6630 C.ar      1 46C        -0.0630
     30 C49        51.2370    2.4550   32.9530 C.2       1 46C         0.0584
     31 O50        52.4030    2.6410   32.6110 O.co2     1 46C        -0.5625
     32 O51        50.9340    1.6910   33.9090 O.co2     1 46C        -0.5625
     33 H1         43.1971    6.8613   33.3112 H         1 46C         0.0649
     34 H2         42.5092    9.0526   34.4580 H         1 46C         0.0581
     35 H3         51.9035    8.3453   29.6217 H         1 46C         0.0253
     36 H4         50.6213    8.8498   28.4693 H         1 46C         0.0253
     37 H5         51.0193    7.1090   28.6644 H         1 46C         0.0253
     38 H6         47.1385    5.4504   29.1706 H         1 46C         0.0801
     39 H7         45.9559    4.5846   30.2091 H         1 46C         0.0801
     40 H8         46.0272   11.1107   32.6883 H         1 46C         0.0584
     41 H9         50.2234    7.1886   30.9979 H         1 46C         0.0484
     42 H10        49.8254    8.9294   30.8028 H         1 46C         0.0484
     43 H11        46.7418    4.0113   32.6614 H         1 46C         0.0565
     44 H12        48.6700    2.8275   33.8598 H         1 46C         0.0634
     45 H13        51.3471    3.6685   30.4214 H         1 46C         0.0634
     46 H14        49.4029    4.8763   29.2234 H         1 46C         0.0565
     47 H15        48.6646   10.1870   33.0132 H         1 46C         0.0567
     48 H16        50.0253   12.2974   32.4946 H         1 46C         0.0601
     49 H17        49.8403   13.4010   30.1942 H         1 46C         0.0567
     50 H18        48.3208   12.3934   28.4014 H         1 46C         0.0601
     51 H19        46.9614   10.2741   28.9117 H         1 46C         0.0567
@<TRIPOS>BOND
     1    1    2 ar 
     2    1    6 1  
     3   13    1 ar 
     4    2    3 ar 
     5    3   11 ar 
     6    4    7 1  
     7    4   13 1  
     8    4   14 2  
     9    6    5 am 
    10    5   10 1  
    11    5   14 1  
    12    6   16 2  
    13    7   25 ar 
    14    7   29 ar 
    15   14    8 1  
    16    8   17 2  
    17    8   18 1  
    18   18    9 1  
    19   10   19 1  
    20   11   12 ar 
    21   11   15 1  
    22   12   13 ar 
    23   19   20 ar 
    24   19   24 ar 
    25   20   21 ar 
    26   21   22 ar 
    27   22   23 ar 
    28   22   30 1  
    29   23   24 ar 
    30   25   26 ar 
    31   26   27 ar 
    32   27   28 ar 
    33   28   29 ar 
    34   30   31 ar 
    35   30   32 ar 
    36    2   33 1  
    37    3   34 1  
    38    9   35 1  
    39    9   36 1  
    40    9   37 1  
    41   10   38 1  
    42   10   39 1  
    43   12   40 1  
    44   18   41 1  
    45   18   42 1  
    46   20   43 1  
    47   21   44 1  
    48   23   45 1  
    49   24   46 1  
    50   25   47 1  
    51   26   48 1  
    52   27   49 1  
    53   28   50 1  
    54   29   51 1  
@<TRIPOS>SUBSTRUCTURE
     1 46C         1

