### 
### Created by X-TOOL on Mon Sep 10 21:12:58 2018
### 

@<TRIPOS>MOLECULE
2zdx_ligand
   38    40     1     0     0
SMALL
GAST_HUCK


@<TRIPOS>ATOM
      1 N1        -28.2480   13.0680   10.7890 N.pl3     1 P4A        -0.2194
      2 N2        -28.5620   12.8970   12.1240 N.2       1 P4A        -0.2327
      3 C3        -27.5950   12.1220   12.7590 C.2       1 P4A         0.0244
      4 C4        -26.5820   11.7830   11.7210 C.2       1 P4A        -0.0016
      5 C5        -27.0560   12.4040   10.5110 C.2       1 P4A         0.0746
      6 C6        -27.6140   11.7220   14.2810 C.ar      1 P4A         0.0048
      7 C7        -25.2900   10.9240   11.9650 C.ar      1 P4A        -0.0516
      8 C8        -26.4690   12.4260    9.0900 C.3       1 P4A         0.0006
      9 C12       -24.1780   11.4370   12.7470 C.ar      1 P4A        -0.0730
     10 C13       -23.0000   10.6490   12.9920 C.ar      1 P4A        -0.0393
     11 C14       -22.9010    9.2960   12.4490 C.ar      1 P4A         0.0849
     12 C15       -23.9950    8.7570   11.6560 C.ar      1 P4A        -0.0393
     13 C16       -25.1730    9.5590   11.4190 C.ar      1 P4A        -0.0730
     14 C21       -28.0410   12.6770   15.3320 C.ar      1 P4A         0.0899
     15 C22       -28.0230   12.2820   16.7160 C.ar      1 P4A        -0.0036
     16 C23       -27.5940   10.9550   17.0970 C.ar      1 P4A         0.0804
     17 C24       -27.1930   10.0220   16.1170 C.ar      1 P4A        -0.0428
     18 C25       -27.1990   10.3890   14.7360 C.ar      1 P4A        -0.0697
     19 O29       -27.5650   10.5990   18.4120 O.3       1 P4A        -0.3350
     20 O30       -28.4490   13.9340   15.0550 O.3       1 P4A        -0.3332
     21 O33       -21.7490    8.5140   12.6940 O.3       1 P4A        -0.3249
     22 C34       -21.8590    7.7960   13.9630 C.3       1 P4A         0.0582
     23 H         -28.8014   13.5965   10.1146 H         1 P4A         0.2541
     24 H         -25.4790   12.8815    9.1142 H         1 P4A         0.0450
     25 H         -26.3918   11.4057    8.7143 H         1 P4A         0.0450
     26 H         -27.1215   13.0063    8.4377 H         1 P4A         0.0450
     27 H         -24.2381   12.4446   13.1584 H         1 P4A         0.0531
     28 H         -22.1815   11.0609   13.5824 H         1 P4A         0.0529
     29 H         -23.9261    7.7511   11.2419 H         1 P4A         0.0529
     30 H         -25.9900    9.1479   10.8260 H         1 P4A         0.0531
     31 H         -28.3356   12.9898   17.4837 H         1 P4A         0.0465
     32 H         -26.8787    9.0213   16.4136 H         1 P4A         0.0460
     33 H         -26.8847    9.6542   13.9948 H         1 P4A         0.0566
     34 H         -27.8645   11.3365   18.9487 H         1 P4A         0.2486
     35 H         -29.3485   14.0536   15.3684 H         1 P4A         0.2494
     36 H         -21.9733    8.5130   14.7760 H         1 P4A         0.0576
     37 H         -22.7274    7.1379   13.9325 H         1 P4A         0.0576
     38 H         -20.9581    7.2037   14.1232 H         1 P4A         0.0576
@<TRIPOS>BOND
     1    1    2 1  
     2    1    5 1  
     3    2    3 2  
     4    3    4 1  
     5    3    6 1  
     6    4    5 2  
     7    4    7 1  
     8    5    8 1  
     9    6   14 ar 
    10    6   18 ar 
    11    7    9 ar 
    12    7   13 ar 
    13    9   10 ar 
    14   10   11 ar 
    15   11   12 ar 
    16   11   21 1  
    17   12   13 ar 
    18   14   15 ar 
    19   14   20 1  
    20   15   16 ar 
    21   16   17 ar 
    22   16   19 1  
    23   17   18 ar 
    24   21   22 1  
    25    1   23 1  
    26    8   24 1  
    27    8   25 1  
    28    8   26 1  
    29    9   27 1  
    30   10   28 1  
    31   12   29 1  
    32   13   30 1  
    33   15   31 1  
    34   17   32 1  
    35   18   33 1  
    36   19   34 1  
    37   20   35 1  
    38   22   36 1  
    39   22   37 1  
    40   22   38 1  
@<TRIPOS>SUBSTRUCTURE
     1 P4A         1

