### 
### Created by X-TOOL on Mon Sep 10 21:12:58 2018
### 

@<TRIPOS>MOLECULE
2zdz_ligand
   59    62     1     0     0
SMALL
GAST_HUCK


@<TRIPOS>ATOM
      1 C23        16.8280  -10.7960   19.2680 C.ar      1 310        -0.0566
      2 C22        15.8920  -11.0840   18.2520 C.ar      1 310         0.0104
      3 C21        16.7370   -5.6460   16.2110 C.cat     1 310         0.3264
      4 C20        15.5540   -7.7230   17.0410 C.2       1 310         0.2074
      5 C24        18.1300  -11.3060   19.1990 C.ar      1 310        -0.0650
      6 C26        17.6040  -12.4040   17.1030 C.ar      1 310        -0.0513
      7 C27        16.2970  -11.8940   17.1690 C.ar      1 310         0.0450
      8 C18        14.5410  -10.5230   18.3710 C.2       1 310         0.0637
      9 C10         9.5910   -7.6380   16.5140 C.ar      1 310        -0.0285
     10 C7         10.2010   -4.2120   14.0010 C.ar      1 310        -0.0219
     11 C5          8.4350   -3.2380   15.3500 C.ar      1 310        -0.0219
     12 C6          9.2480   -4.3320   15.0240 C.ar      1 310         0.1220
     13 C1          8.5670    0.3980   13.0210 C.3       1 310         0.0091
     14 C2          9.6850   -0.5900   12.9200 C.2       1 310         0.1220
     15 C3          9.5460   -1.8940   13.6380 C.ar      1 310         0.0215
     16 C4          8.5840   -2.0220   14.6650 C.ar      1 310        -0.0506
     17 C11        10.4820   -8.5730   17.0590 C.ar      1 310        -0.0615
     18 C12        11.8030   -8.2100   17.3690 C.ar      1 310        -0.0093
     19 C13        12.2070   -6.8770   17.1260 C.ar      1 310        -0.0615
     20 C14        11.3160   -5.9390   16.5770 C.ar      1 310        -0.0285
     21 C15        12.7120   -9.2130   17.9550 C.2       1 310         0.0602
     22 C16        12.4290  -10.0550   19.0210 C.2       1 310        -0.0691
     23 C17        13.5580  -10.8670   19.2770 C.2       1 310        -0.0687
     24 O1         10.4860   -0.4680   11.9910 O.2       1 310        -0.3841
     25 C8         10.3480   -2.9990   13.3120 C.ar      1 310        -0.0506
     26 O2          9.0160   -5.4940   15.7400 O.3       1 310        -0.2543
     27 C9         10.0000   -6.3210   16.2660 C.ar      1 310         0.1173
     28 N1         14.0180   -9.5130   17.5700 N.pl3     1 310        -0.2492
     29 C19        14.7530   -8.8700   16.4900 C.3       1 310         0.1408
     30 O3         15.8030   -7.5820   18.2340 O.2       1 310        -0.3943
     31 N2         15.9900   -6.8080   16.0230 N.am      1 310        -0.2219
     32 N3         16.8940   -4.8080   15.1160 N.pl3     1 310        -0.2543
     33 N4         16.9930   -5.1500   17.4870 N.pl3     1 310        -0.2543
     34 C25        18.5170  -12.1060   18.1200 C.ar      1 310        -0.0649
     35 CL1        15.2190  -12.3030   15.8810 Cl        1 310        -0.0727
     36 H1         16.5369  -10.1755   20.1078 H         1 310         0.0592
     37 H2         18.8408  -11.0796   19.9855 H         1 310         0.0609
     38 H3         17.9040  -13.0260   16.2674 H         1 310         0.0613
     39 H4          8.5752   -7.9369   16.2820 H         1 310         0.0554
     40 H5         10.8256   -5.0594   13.7424 H         1 310         0.0568
     41 H6          7.6902   -3.3310   16.1321 H         1 310         0.0568
     42 H7          8.8202    1.2986   12.4423 H         1 310         0.0447
     43 H8          8.4131    0.6710   14.0754 H         1 310         0.0447
     44 H9          7.6455   -0.0487   12.6196 H         1 310         0.0447
     45 H10         7.9576   -1.1764   14.9253 H         1 310         0.0646
     46 H11        10.1477   -9.5876   17.2433 H         1 310         0.0581
     47 H12        13.2195   -6.5739   17.3668 H         1 310         0.0581
     48 H13        11.6436   -4.9221   16.3937 H         1 310         0.0554
     49 H14        11.4897  -10.0855   19.5712 H         1 310         0.0335
     50 H15        13.6378  -11.6285   20.0514 H         1 310         0.0354
     51 H16        11.0859   -2.9144   12.5225 H         1 310         0.0646
     52 H17        15.4310   -9.5996   16.0230 H         1 310         0.0855
     53 H18        14.0443   -8.4940   15.7375 H         1 310         0.0855
     54 H19        15.7309   -7.0272   15.0823 H         1 310         0.1857
     55 H20        17.4378   -3.9380   15.2071 H         1 310         0.3199
     56 H21        16.4667   -5.0560   14.2122 H         1 310         0.3199
     57 H22        16.8807   -5.7605   18.3090 H         1 310         0.3199
     58 H23        17.2946   -4.1727   17.6087 H         1 310         0.3199
     59 H24        19.5271  -12.4964   18.0713 H         1 310         0.0587
@<TRIPOS>BOND
     1    2    1 ar 
     2    1    5 ar 
     3    2    7 ar 
     4    8    2 1  
     5   31    3 ar 
     6    3   32 ar 
     7    3   33 ar 
     8   29    4 1  
     9    4   30 2  
    10    4   31 am 
    11    5   34 ar 
    12    7    6 ar 
    13    6   34 ar 
    14    7   35 1  
    15    8   23 2  
    16   28    8 1  
    17   17    9 ar 
    18    9   27 ar 
    19   12   10 ar 
    20   10   25 ar 
    21   12   11 ar 
    22   11   16 ar 
    23   26   12 1  
    24   14   13 1  
    25   15   14 1  
    26   14   24 2  
    27   16   15 ar 
    28   25   15 ar 
    29   18   17 ar 
    30   18   19 ar 
    31   21   18 1  
    32   19   20 ar 
    33   20   27 ar 
    34   21   22 2  
    35   28   21 1  
    36   22   23 1  
    37   27   26 1  
    38   28   29 1  
    39    1   36 1  
    40    5   37 1  
    41    6   38 1  
    42    9   39 1  
    43   10   40 1  
    44   11   41 1  
    45   13   42 1  
    46   13   43 1  
    47   13   44 1  
    48   16   45 1  
    49   17   46 1  
    50   19   47 1  
    51   20   48 1  
    52   22   49 1  
    53   23   50 1  
    54   25   51 1  
    55   29   52 1  
    56   29   53 1  
    57   31   54 1  
    58   32   55 1  
    59   32   56 1  
    60   33   57 1  
    61   33   58 1  
    62   34   59 1  
@<TRIPOS>SUBSTRUCTURE
     1 310         1

