### 
### Created by X-TOOL on Mon Sep 10 21:12:59 2018
### 

@<TRIPOS>MOLECULE
2ze1_ligand
   57    60     1     0     0
SMALL
GAST_HUCK


@<TRIPOS>ATOM
      1 C1         18.5940  -12.7900   17.4350 C.ar      1 411        -0.0657
      2 C2         18.3740  -12.0040   18.5730 C.ar      1 411        -0.0655
      3 C3         17.1320  -11.3770   18.7670 C.ar      1 411        -0.0574
      4 C4         16.0990  -11.5420   17.8250 C.ar      1 411        -0.0043
      5 C5         16.3330  -12.3370   16.6850 C.ar      1 411        -0.0574
      6 C6         17.5750  -12.9590   16.4900 C.ar      1 411        -0.0655
      7 C7         14.8060  -10.8820   18.0270 C.2       1 411         0.0620
      8 C8         13.8310  -11.1330   18.9800 C.2       1 411        -0.0703
      9 C9         12.7590  -10.2290   18.7730 C.2       1 411        -0.0710
     10 C10        13.0690   -9.4330   17.6780 C.2       1 411         0.0570
     11 N1         14.3250   -9.8470   17.2390 N.pl3     1 411        -0.2504
     12 C11        15.0440   -9.2570   16.1150 C.3       1 411         0.1405
     13 C12        15.6880   -7.9890   16.6060 C.2       1 411         0.2074
     14 O1         16.0210   -7.7870   17.7680 O.2       1 411        -0.3943
     15 N2         15.8600   -7.0120   15.5670 N.am      1 411        -0.2220
     16 C13        16.4280   -5.7510   15.7390 C.cat     1 411         0.3264
     17 N3         16.8700   -5.3650   16.9960 N.pl3     1 411        -0.2543
     18 N4         16.5700   -4.8920   14.6690 N.pl3     1 411        -0.2543
     19 C14        12.2920   -8.3410   17.0640 C.ar      1 411        -0.0135
     20 C15        11.1580   -8.5590   16.2590 C.ar      1 411        -0.0666
     21 C16        10.4620   -7.4720   15.6880 C.ar      1 411        -0.0406
     22 C17        10.9050   -6.1540   15.9110 C.ar      1 411         0.0670
     23 C18        12.0340   -5.9480   16.7170 C.ar      1 411        -0.0406
     24 C19        12.7200   -7.0220   17.2810 C.ar      1 411        -0.0666
     25 N5         10.3130   -4.9520   15.4400 N.am      1 411        -0.2324
     26 C20         8.9580   -4.6400   15.3730 C.2       1 411         0.2340
     27 O2          8.0090   -5.3460   15.6830 O.2       1 411        -0.3724
     28 C21         8.6370   -3.2810   14.8720 C.ar      1 411         0.0591
     29 C22         7.5310   -2.5690   15.3760 C.ar      1 411        -0.0387
     30 C23         7.2490   -1.2820   14.9020 C.ar      1 411        -0.0535
     31 C24         8.0650   -0.7050   13.9250 C.ar      1 411        -0.0480
     32 C25         9.1650   -1.4180   13.4370 C.ar      1 411         0.0185
     33 C26         9.4610   -2.7010   13.8970 C.ar      1 411        -0.0317
     34 BR         10.2770   -0.6500   12.1210 Br        1 411        -0.0487
     35 H1         19.5551  -13.2685   17.2856 H         1 411         0.0584
     36 H2         19.1634  -11.8792   19.3053 H         1 411         0.0607
     37 H3         16.9684  -10.7636   19.6457 H         1 411         0.0590
     38 H4         15.5455  -12.4690   15.9518 H         1 411         0.0590
     39 H5         17.7453  -13.5688   15.6101 H         1 411         0.0607
     40 H6         13.8803  -11.8954   19.7560 H         1 411         0.0350
     41 H7         11.8498  -10.1690   19.3693 H         1 411         0.0322
     42 H8         14.3431   -9.0303   15.2981 H         1 411         0.0854
     43 H9         15.8145   -9.9543   15.7543 H         1 411         0.0854
     44 H10        15.5478   -7.2557   14.6487 H         1 411         0.1857
     45 H11        17.2908   -4.4346   17.1307 H         1 411         0.3199
     46 H12        16.7774   -6.0088   17.7946 H         1 411         0.3199
     47 H13        16.2430   -5.1752   13.7343 H         1 411         0.3199
     48 H14        17.0031   -3.9674   14.8048 H         1 411         0.3199
     49 H15        10.8161   -9.5712   16.0759 H         1 411         0.0571
     50 H16         9.5850   -7.6520   15.0768 H         1 411         0.0508
     51 H17        12.3785   -4.9374   16.9043 H         1 411         0.0508
     52 H18        13.5943   -6.8366   17.8944 H         1 411         0.0571
     53 H19        10.9443   -4.2462   15.1184 H         1 411         0.2267
     54 H20         6.8972   -3.0182   16.1320 H         1 411         0.0693
     55 H21         6.3990   -0.7340   15.2922 H         1 411         0.0636
     56 H22         7.8470    0.2878   13.5482 H         1 411         0.0678
     57 H23        10.3155   -3.2418   13.5065 H         1 411         0.0697
@<TRIPOS>BOND
     1    1    2 ar 
     2    1    6 ar 
     3    2    3 ar 
     4    3    4 ar 
     5    4    5 ar 
     6    4    7 1  
     7    5    6 ar 
     8    7    8 2  
     9    7   11 1  
    10    8    9 1  
    11    9   10 2  
    12   10   11 1  
    13   10   19 1  
    14   11   12 1  
    15   12   13 1  
    16   13   14 2  
    17   13   15 am 
    18   15   16 ar 
    19   16   17 ar 
    20   16   18 ar 
    21   19   20 ar 
    22   19   24 ar 
    23   20   21 ar 
    24   21   22 ar 
    25   22   23 ar 
    26   22   25 1  
    27   23   24 ar 
    28   25   26 am 
    29   26   27 2  
    30   26   28 1  
    31   28   29 ar 
    32   28   33 ar 
    33   29   30 ar 
    34   30   31 ar 
    35   31   32 ar 
    36   32   33 ar 
    37   32   34 1  
    38    1   35 1  
    39    2   36 1  
    40    3   37 1  
    41    5   38 1  
    42    6   39 1  
    43    8   40 1  
    44    9   41 1  
    45   12   42 1  
    46   12   43 1  
    47   15   44 1  
    48   17   45 1  
    49   17   46 1  
    50   18   47 1  
    51   18   48 1  
    52   20   49 1  
    53   21   50 1  
    54   23   51 1  
    55   24   52 1  
    56   25   53 1  
    57   29   54 1  
    58   30   55 1  
    59   31   56 1  
    60   33   57 1  
@<TRIPOS>SUBSTRUCTURE
     1 411         1

