### 
### Created by X-TOOL on Mon Sep 10 21:12:59 2018
### 

@<TRIPOS>MOLECULE
2zfs_ligand
   64    66     1     0     0
SMALL
GAST_HUCK


@<TRIPOS>ATOM
      1 C14        28.6330   -1.0330   16.7230 C.2       1 12U         0.2262
      2 O32        27.5260   -0.7840   17.2090 O.2       1 12U        -0.3908
      3 C5         29.7830   -1.2450   17.6730 C.3       1 12U         0.0567
      4 N21        29.5330   -0.5000   18.9370 N.4       1 12U         0.2461
      5 C49        29.8540    0.9440   18.9280 C.3       1 12U        -0.0209
      6 C48        31.2790    1.1990   19.2940 C.3       1 12U        -0.0097
      7 C47        31.3910    1.2800   20.7990 C.3       1 12U        -0.0480
      8 C46        31.2250    2.6480   21.3890 C.3       1 12U        -0.0529
      9 C52        29.9080    3.2210   21.1430 C.3       1 12U        -0.0529
     10 C51        29.4170    2.7770   19.8420 C.3       1 12U        -0.0480
     11 C50        28.7690    1.4960   19.5650 C.3       1 12U        -0.0097
     12 N1         28.7020   -1.0400   15.4270 N.am      1 12U        -0.2474
     13 C1         27.7440   -0.7940   14.6310 C.3       1 12U         0.1339
     14 C7         26.6100   -1.7090   14.5000 C.2       1 12U         0.2037
     15 O22        26.6790   -2.8940   14.8240 O.2       1 12U        -0.3944
     16 C2         28.3430   -0.6200   13.2310 C.3       1 12U        -0.0104
     17 C3         29.6590   -1.3350   13.2780 C.3       1 12U        -0.0281
     18 C4         29.9930   -1.3170   14.7630 C.3       1 12U         0.0371
     19 N23        25.4700   -1.3260   14.0110 N.am      1 12U        -0.2737
     20 C24        24.3470   -2.1350   13.6570 C.3       1 12U         0.0645
     21 C25        23.2520   -2.0120   14.7090 C.ar      1 12U        -0.0210
     22 C30        23.3090   -2.4080   16.0240 C.ar      1 12U        -0.0584
     23 C29        22.1860   -2.2110   16.8550 C.ar      1 12U        -0.0633
     24 C28        20.9650   -1.6340   16.4790 C.ar      1 12U         0.0188
     25 C9         19.8400   -1.4820   17.4860 C.cat     1 12U         0.2318
     26 N10        19.0160   -0.4670   17.2910 N.pl3     1 12U        -0.2729
     27 N11        19.6820   -2.3110   18.5070 N.pl3     1 12U        -0.2729
     28 C27        20.9130   -1.2380   15.1660 C.ar      1 12U        -0.0633
     29 C26        22.0300   -1.4310   14.3260 C.ar      1 12U        -0.0584
     30 H1         30.7116   -0.8792   17.2105 H         1 12U         0.1062
     31 H2         29.8815   -2.3180   17.8943 H         1 12U         0.1062
     32 H3         30.0855   -0.9318   19.6611 H         1 12U         0.2035
     33 H4         28.5544   -0.5945   19.1595 H         1 12U         0.2035
     34 H5         29.7885    1.2981   17.8886 H         1 12U         0.0851
     35 H6         31.6108    2.1480   18.8475 H         1 12U         0.0320
     36 H7         31.9087    0.3781   18.9206 H         1 12U         0.0320
     37 H8         32.3855    0.9068   21.0848 H         1 12U         0.0267
     38 H9         30.6169    0.6290   21.2313 H         1 12U         0.0267
     39 H10        31.9835    3.3129   20.9501 H         1 12U         0.0265
     40 H11        31.3803    2.5816   22.4759 H         1 12U         0.0265
     41 H12        29.9785    4.3187   21.1526 H         1 12U         0.0265
     42 H13        29.2125    2.8913   21.9289 H         1 12U         0.0265
     43 H14        30.2920    2.8087   19.1761 H         1 12U         0.0267
     44 H15        28.6909    3.5421   19.5301 H         1 12U         0.0267
     45 H16        28.4863    0.9525   20.4786 H         1 12U         0.0320
     46 H17        27.8910    1.5930   18.9095 H         1 12U         0.0320
     47 H18        27.3209    0.1675   14.9572 H         1 12U         0.0802
     48 H19        28.4907    0.4461   13.0039 H         1 12U         0.0313
     49 H20        27.6864   -1.0692   12.4714 H         1 12U         0.0313
     50 H21        30.4222   -0.8012   12.6928 H         1 12U         0.0287
     51 H22        29.5648   -2.3654   12.9046 H         1 12U         0.0287
     52 H23        30.3947   -2.2896   15.0834 H         1 12U         0.0524
     53 H24        30.7239   -0.5263   14.9879 H         1 12U         0.0524
     54 H25        25.3649   -0.3425   13.8638 H         1 12U         0.1878
     55 H26        24.6650   -3.1856   13.5859 H         1 12U         0.0683
     56 H27        23.9540   -1.8042   12.6843 H         1 12U         0.0683
     57 H28        24.2081   -2.8672   16.4188 H         1 12U         0.0557
     58 H29        22.2761   -2.5377   17.8847 H         1 12U         0.0599
     59 H30        18.2314   -0.3087   17.9393 H         1 12U         0.3180
     60 H31        19.1585    0.1656   16.4907 H         1 12U         0.3180
     61 H32        20.3363   -3.0954   18.6395 H         1 12U         0.3180
     62 H33        18.9049   -2.1712   19.1684 H         1 12U         0.3180
     63 H34        20.0136   -0.7769   14.7743 H         1 12U         0.0599
     64 H35        21.9384   -1.1032   13.2968 H         1 12U         0.0557
@<TRIPOS>BOND
     1    1    2 2  
     2    1    3 1  
     3    1   12 am 
     4    3    4 1  
     5    4    5 1  
     6    5    6 1  
     7    5   11 1  
     8    6    7 1  
     9    7    8 1  
    10    8    9 1  
    11    9   10 1  
    12   10   11 1  
    13   12   13 1  
    14   12   18 1  
    15   13   14 1  
    16   13   16 1  
    17   14   15 2  
    18   14   19 am 
    19   16   17 1  
    20   17   18 1  
    21   19   20 1  
    22   20   21 1  
    23   21   22 ar 
    24   21   29 ar 
    25   22   23 ar 
    26   23   24 ar 
    27   24   25 1  
    28   24   28 ar 
    29   25   26 ar 
    30   25   27 ar 
    31   28   29 ar 
    32    3   30 1  
    33    3   31 1  
    34    4   32 1  
    35    4   33 1  
    36    5   34 1  
    37    6   35 1  
    38    6   36 1  
    39    7   37 1  
    40    7   38 1  
    41    8   39 1  
    42    8   40 1  
    43    9   41 1  
    44    9   42 1  
    45   10   43 1  
    46   10   44 1  
    47   11   45 1  
    48   11   46 1  
    49   13   47 1  
    50   16   48 1  
    51   16   49 1  
    52   17   50 1  
    53   17   51 1  
    54   18   52 1  
    55   18   53 1  
    56   19   54 1  
    57   20   55 1  
    58   20   56 1  
    59   22   57 1  
    60   23   58 1  
    61   26   59 1  
    62   26   60 1  
    63   27   61 1  
    64   27   62 1  
    65   28   63 1  
    66   29   64 1  
@<TRIPOS>SUBSTRUCTURE
     1 12U         1

