### 
### Created by X-TOOL on Mon Sep 10 21:12:59 2018
### 

@<TRIPOS>MOLECULE
2zft_ligand
   58    60     1     0     0
SMALL
GAST_HUCK


@<TRIPOS>ATOM
      1 N1        -28.6490    0.8580   15.7200 N.am      1 10U        -0.2474
      2 C14       -28.4160    0.9120   17.0430 C.2       1 10U         0.2262
      3 O32       -27.2760    0.8660   17.5140 O.2       1 10U        -0.3908
      4 C15       -29.6090    1.0240   17.9380 C.3       1 10U         0.0567
      5 C5        -29.9720    1.1270   15.1080 C.3       1 10U         0.0371
      6 C4        -29.7860    1.1040   13.5950 C.3       1 10U        -0.0281
      7 C3        -28.4600    0.3900   13.4900 C.3       1 10U        -0.0104
      8 C2        -27.6230    0.5070   14.7560 C.3       1 10U         0.1339
      9 C7        -26.5220    1.4880   14.5720 C.2       1 10U         0.2037
     10 N23       -25.3690    1.1760   14.0640 N.am      1 10U        -0.2737
     11 C24       -24.2520    1.9970   13.8110 C.3       1 10U         0.0645
     12 C25       -23.1560    1.8750   14.7890 C.ar      1 10U        -0.0210
     13 C30       -23.2500    2.2580   16.0810 C.ar      1 10U        -0.0584
     14 C29       -22.1760    2.1160   16.9550 C.ar      1 10U        -0.0633
     15 C28       -20.9650    1.5810   16.5600 C.ar      1 10U         0.0188
     16 C31       -19.8280    1.4440   17.5380 C.cat     1 10U         0.2318
     17 N49       -19.6410    2.3610   18.4870 N.pl3     1 10U        -0.2729
     18 N48       -19.0210    0.3940   17.4330 N.pl3     1 10U        -0.2729
     19 C27       -20.8710    1.1840   15.2210 C.ar      1 10U        -0.0633
     20 C26       -21.9470    1.3240   14.3340 C.ar      1 10U        -0.0584
     21 O22       -26.6450    2.6580   14.8980 O.2       1 10U        -0.3944
     22 N16       -29.3560    0.4470   19.2270 N.4       1 10U         0.2461
     23 C17       -30.0140   -0.8220   19.5070 C.3       1 10U        -0.0209
     24 C21       -29.0850   -1.6140   20.4560 C.3       1 10U        -0.0097
     25 C20       -29.5930   -3.0660   20.4260 C.3       1 10U        -0.0478
     26 C19       -30.0470   -3.2670   18.9710 C.3       1 10U        -0.0478
     27 C18       -30.3890   -1.8630   18.3810 C.3       1 10U        -0.0097
     28 H1        -30.4560    0.4994   17.4718 H         1 10U         0.1062
     29 H2        -29.8614    2.0870   18.0657 H         1 10U         0.1062
     30 H3        -30.3405    2.1132   15.4268 H         1 10U         0.0524
     31 H4        -30.6911    0.3515   15.4104 H         1 10U         0.0524
     32 H5        -29.7339    2.1201   13.1770 H         1 10U         0.0287
     33 H6        -30.5897    0.5429   13.0958 H         1 10U         0.0287
     34 H7        -27.8930    0.8236   12.6530 H         1 10U         0.0313
     35 H8        -28.6495   -0.6752   13.2917 H         1 10U         0.0313
     36 H9        -27.1732   -0.4603   15.0241 H         1 10U         0.0802
     37 H10       -25.2572    0.2136   13.8163 H         1 10U         0.1878
     38 H11       -24.5912    3.0434   13.8072 H         1 10U         0.0683
     39 H12       -23.8547    1.7367   12.8188 H         1 10U         0.0683
     40 H13       -24.1786    2.6836   16.4437 H         1 10U         0.0557
     41 H14       -22.2941    2.4371   17.9836 H         1 10U         0.0599
     42 H15       -18.8615    2.2615   19.1528 H         1 10U         0.3180
     43 H16       -20.2760    3.1691   18.5545 H         1 10U         0.3180
     44 H17       -19.1796   -0.3055   16.6938 H         1 10U         0.3180
     45 H18       -18.2367    0.2794   18.0908 H         1 10U         0.3180
     46 H19       -19.9419    0.7572   14.8608 H         1 10U         0.0599
     47 H20       -21.8466    1.0085   13.3018 H         1 10U         0.0557
     48 H21       -29.6573    1.1095   19.9244 H         1 10U         0.2035
     49 H22       -28.3619    0.3019   19.3087 H         1 10U         0.2035
     50 H23       -30.9509   -0.5701   20.0254 H         1 10U         0.0851
     51 H24       -29.1447   -1.2085   21.4768 H         1 10U         0.0320
     52 H25       -28.0446   -1.5650   20.1023 H         1 10U         0.0320
     53 H26       -30.4348   -3.2009   21.1211 H         1 10U         0.0267
     54 H27       -28.7871   -3.7683   20.6854 H         1 10U         0.0267
     55 H28       -30.9375   -3.9121   18.9423 H         1 10U         0.0267
     56 H29       -29.2386   -3.7316   18.3873 H         1 10U         0.0267
     57 H30       -29.7979   -1.6747   17.4726 H         1 10U         0.0320
     58 H31       -31.4606   -1.7988   18.1411 H         1 10U         0.0320
@<TRIPOS>BOND
     1    1    2 am 
     2    1    5 1  
     3    1    8 1  
     4    2    3 2  
     5    2    4 1  
     6    4   22 1  
     7    5    6 1  
     8    6    7 1  
     9    7    8 1  
    10    8    9 1  
    11    9   10 am 
    12    9   21 2  
    13   10   11 1  
    14   11   12 1  
    15   12   13 ar 
    16   12   20 ar 
    17   13   14 ar 
    18   14   15 ar 
    19   15   16 1  
    20   15   19 ar 
    21   16   17 ar 
    22   16   18 ar 
    23   19   20 ar 
    24   22   23 1  
    25   23   24 1  
    26   23   27 1  
    27   24   25 1  
    28   25   26 1  
    29   26   27 1  
    30    4   28 1  
    31    4   29 1  
    32    5   30 1  
    33    5   31 1  
    34    6   32 1  
    35    6   33 1  
    36    7   34 1  
    37    7   35 1  
    38    8   36 1  
    39   10   37 1  
    40   11   38 1  
    41   11   39 1  
    42   13   40 1  
    43   14   41 1  
    44   17   42 1  
    45   17   43 1  
    46   18   44 1  
    47   18   45 1  
    48   19   46 1  
    49   20   47 1  
    50   22   48 1  
    51   22   49 1  
    52   23   50 1  
    53   24   51 1  
    54   24   52 1  
    55   25   53 1  
    56   25   54 1  
    57   26   55 1  
    58   26   56 1  
    59   27   57 1  
    60   27   58 1  
@<TRIPOS>SUBSTRUCTURE
     1 10U         1

