### 
### Created by X-TOOL on Mon Sep 10 21:12:59 2018
### 

@<TRIPOS>MOLECULE
2zg1_ligand
   39    39     1     0     0
SMALL
GAST_HUCK


@<TRIPOS>ATOM
      1 C1         47.7910   11.0910   48.2000 C.2       1 SIA         0.1039
      2 C2         48.3010   10.1130   49.2530 C.3       1 SIA         0.2179
      3 C3         48.2790   10.7830   50.6320 C.3       1 SIA         0.0351
      4 C4         46.8440   11.0900   51.0650 C.3       1 SIA         0.0850
      5 C5         45.9880    9.8260   50.9870 C.3       1 SIA         0.0964
      6 C6         46.0640    9.2530   49.5690 C.3       1 SIA         0.1143
      7 C7         45.1970    7.9930   49.4390 C.3       1 SIA         0.1114
      8 C8         45.7030    7.0850   48.3190 C.3       1 SIA         0.1065
      9 C9         44.7290    5.9390   48.0770 C.3       1 SIA         0.0727
     10 C10        44.1160    9.8210   52.5320 C.2       1 SIA         0.1733
     11 C11        45.0770    9.6670   53.7070 C.3       1 SIA         0.0257
     12 N5         44.6140   10.1400   51.3370 N.am      1 SIA        -0.2790
     13 O1A        47.6170   12.2880   48.5210 O.co2     1 SIA        -0.5426
     14 O1B        47.5710   10.6630   47.0470 O.co2     1 SIA        -0.5426
     15 O2         49.5880    9.7090   48.9390 O.3       1 SIA        -0.3631
     16 O4         46.8390   11.5890   52.3940 O.3       1 SIA        -0.3893
     17 O6         47.4450    8.9540   49.2380 O.3       1 SIA        -0.3385
     18 O7         45.1960    7.2740   50.6640 O.3       1 SIA        -0.3865
     19 O8         45.8560    7.8360   47.1280 O.3       1 SIA        -0.3869
     20 O9         45.1860    5.1500   46.9880 O.3       1 SIA        -0.3924
     21 O10        42.9090    9.6650   52.7200 O.2       1 SIA        -0.3974
     22 H1         48.8502   11.7219   50.5858 H         1 SIA         0.0336
     23 H2         48.7410   10.1085   51.3679 H         1 SIA         0.0336
     24 H3         46.4219   11.8515   50.3927 H         1 SIA         0.0618
     25 H4         46.3763    9.0811   51.6971 H         1 SIA         0.0608
     26 H5         45.6877   10.0089   48.8641 H         1 SIA         0.0646
     27 H6         44.1670    8.3000   49.2051 H         1 SIA         0.0647
     28 H7         46.6787    6.6690   48.6105 H         1 SIA         0.0643
     29 H8         43.7346    6.3465   47.8424 H         1 SIA         0.0584
     30 H9         44.6657    5.3148   48.9805 H         1 SIA         0.0584
     31 H10        44.5101    9.4044   54.6123 H         1 SIA         0.0467
     32 H11        45.6109   10.6147   53.8707 H         1 SIA         0.0467
     33 H12        45.8028    8.8708   53.4852 H         1 SIA         0.0467
     34 H13        44.0310   10.6037   50.6699 H         1 SIA         0.1856
     35 H14        49.8856    9.0758   49.5817 H         1 SIA         0.2112
     36 H15        47.3719   12.3742   52.4382 H         1 SIA         0.2099
     37 H16        44.8815    7.8381   51.3607 H         1 SIA         0.2100
     38 H17        46.4637    8.5500   47.2810 H         1 SIA         0.2100
     39 H18        45.2403    5.6898   46.2081 H         1 SIA         0.2095
@<TRIPOS>BOND
     1    2    1 1  
     2    1   13 ar 
     3    1   14 ar 
     4    3    2 1  
     5    2   15 1  
     6   17    2 1  
     7    4    3 1  
     8    5    4 1  
     9    4   16 1  
    10    5    6 1  
    11   12    5 1  
    12    6    7 1  
    13    6   17 1  
    14    7    8 1  
    15    7   18 1  
    16    8    9 1  
    17    8   19 1  
    18    9   20 1  
    19   10   11 1  
    20   10   12 am 
    21   10   21 2  
    22    3   22 1  
    23    3   23 1  
    24    4   24 1  
    25    5   25 1  
    26    6   26 1  
    27    7   27 1  
    28    8   28 1  
    29    9   29 1  
    30    9   30 1  
    31   11   31 1  
    32   11   32 1  
    33   11   33 1  
    34   12   34 1  
    35   15   35 1  
    36   16   36 1  
    37   18   37 1  
    38   19   38 1  
    39   20   39 1  
@<TRIPOS>SUBSTRUCTURE
     1 SIA         1

