### 
### Created by X-TOOL on Mon Sep 10 21:12:59 2018
### 

@<TRIPOS>MOLECULE
2zg3_ligand
   38    38     1     0     0
SMALL
GAST_HUCK


@<TRIPOS>ATOM
      1 C1         46.9620   11.3490   49.1030 C.2       1 SIA         0.0637
      2 C2         47.5930   10.6120   50.2960 C.3       1 SIA         0.1137
      3 C3         47.3120   11.3550   51.6130 C.3       1 SIA         0.0137
      4 C4         45.8400   11.2950   52.0230 C.3       1 SIA         0.0845
      5 C5         45.2660    9.8880   51.9010 C.3       1 SIA         0.0967
      6 C6         45.5860    9.3300   50.5240 C.3       1 SIA         0.1147
      7 C7         44.9490    7.9590   50.2680 C.3       1 SIA         0.1116
      8 C8         45.3000    7.4800   48.8670 C.3       1 SIA         0.1065
      9 C9         44.5430    6.2020   48.5130 C.3       1 SIA         0.0727
     10 C10        43.2060    9.3310   53.0400 C.2       1 SIA         0.1733
     11 C11        43.4450    7.8340   53.1730 C.3       1 SIA         0.0257
     12 N5         43.8290    9.9630   52.0520 N.am      1 SIA        -0.2790
     13 O1A        46.5900   12.5360   49.2450 O.co2     1 SIA        -0.5663
     14 O1B        46.8540   10.7400   48.0100 O.co2     1 SIA        -0.5663
     15 O4         45.7070   11.7300   53.3630 O.3       1 SIA        -0.3892
     16 O6         47.0210    9.2880   50.3420 O.3       1 SIA        -0.3543
     17 O7         45.3900    7.0130   51.2260 O.3       1 SIA        -0.3865
     18 O8         44.9700    8.4980   47.9390 O.3       1 SIA        -0.3869
     19 O9         44.9530    5.7390   47.2330 O.3       1 SIA        -0.3924
     20 O10        42.4290    9.9030   53.8080 O.2       1 SIA        -0.3974
     21 H1         48.6809   10.5407   50.1500 H         1 SIA         0.0767
     22 H2         47.6002   12.4095   51.4904 H         1 SIA         0.0334
     23 H3         47.9179   10.8995   52.4101 H         1 SIA         0.0334
     24 H4         45.2668   11.9663   51.3667 H         1 SIA         0.0619
     25 H5         45.6946    9.2381   52.6781 H         1 SIA         0.0608
     26 H6         45.1711   10.0253   49.7794 H         1 SIA         0.0648
     27 H7         43.8563    8.0574   50.3471 H         1 SIA         0.0647
     28 H8         46.3803    7.2786   48.8178 H         1 SIA         0.0643
     29 H9         43.4629    6.4096   48.4976 H         1 SIA         0.0584
     30 H10        44.7573    5.4299   49.2666 H         1 SIA         0.0584
     31 H11        42.8706    7.4454   54.0268 H         1 SIA         0.0467
     32 H12        44.5166    7.6468   53.3364 H         1 SIA         0.0467
     33 H13        43.1206    7.3276   52.2520 H         1 SIA         0.0467
     34 H14        43.2947   10.5010   51.4000 H         1 SIA         0.1856
     35 H15        46.0628   12.6068   53.4469 H         1 SIA         0.2099
     36 H16        45.1674    7.3190   52.0974 H         1 SIA         0.2100
     37 H17        45.4418    9.2922   48.1608 H         1 SIA         0.2100
     38 H18        44.7673    6.4055   46.5820 H         1 SIA         0.2095
@<TRIPOS>BOND
     1    2    1 1  
     2    1   13 ar 
     3    1   14 ar 
     4    3    2 1  
     5   16    2 1  
     6    4    3 1  
     7    5    4 1  
     8    4   15 1  
     9    5    6 1  
    10   12    5 1  
    11    6    7 1  
    12    6   16 1  
    13    7    8 1  
    14    7   17 1  
    15    8    9 1  
    16    8   18 1  
    17    9   19 1  
    18   10   11 1  
    19   10   12 am 
    20   10   20 2  
    21    2   21 1  
    22    3   22 1  
    23    3   23 1  
    24    4   24 1  
    25    5   25 1  
    26    6   26 1  
    27    7   27 1  
    28    8   28 1  
    29    9   29 1  
    30    9   30 1  
    31   11   31 1  
    32   11   32 1  
    33   11   33 1  
    34   12   34 1  
    35   15   35 1  
    36   17   36 1  
    37   18   37 1  
    38   19   38 1  
@<TRIPOS>SUBSTRUCTURE
     1 SIA         1

