### 
### Created by X-TOOL on Mon Sep 10 21:13:02 2018
### 

@<TRIPOS>MOLECULE
2zga_ligand
   43    43     1     0     0
SMALL
GAST_HUCK


@<TRIPOS>ATOM
      1 N1         -2.4640  -20.2510   18.0140 N.am      1 YDP        -0.3001
      2 C5         -3.9760  -17.9940   16.8360 C.ar      1 YDP        -0.0401
      3 C6         -4.2010  -19.3270   16.4680 C.ar      1 YDP         0.0498
      4 C8         -3.4000  -20.4770   17.0580 C.2       1 YDP         0.2025
      5 C10        -8.3970  -17.2140   19.8470 C.3       1 YDP        -0.0406
      6 C20        -4.6870  -16.9370   16.2550 C.ar      1 YDP        -0.0295
      7 C24        -9.0190  -17.0490   14.0200 C.3       1 YDP         0.0709
      8 C27        -5.6660  -17.2230   15.3030 C.ar      1 YDP         0.1127
      9 C18        -5.9080  -18.5510   14.9480 C.ar      1 YDP        -0.0295
     10 C2         -5.1900  -19.6070   15.5240 C.ar      1 YDP        -0.0401
     11 S9         -6.6070  -15.9200   14.5440 S.o2      1 YDP         0.0736
     12 O40        -6.1790  -14.6880   15.1710 O.2       1 YDP        -0.1495
     13 N32        -8.2400  -16.2580   14.9900 N.am      1 YDP        -0.2246
     14 C33        -8.7360  -15.7230   16.2580 C.3       1 YDP         0.0364
     15 C34        -8.5770  -16.6020   17.4710 C.2       1 YDP        -0.0909
     16 C35        -8.5110  -16.1790   18.7480 C.2       1 YDP        -0.0856
     17 C11        -8.5590  -14.7380   19.1930 C.3       1 YDP        -0.0406
     18 C25        -9.5900  -18.3910   14.5340 C.3       1 YDP        -0.0178
     19 N22       -10.7830  -18.6770   13.7170 N.4       1 YDP         0.2197
     20 O11        -6.5190  -16.1520   13.1150 O.2       1 YDP        -0.1495
     21 O2         -3.6900  -21.6180   16.7430 O.2       1 YDP        -0.3849
     22 H          -2.0014  -21.0370   18.4707 H         1 YDP         0.1808
     23 H          -2.2230  -19.2951   18.2759 H         1 YDP         0.1808
     24 H          -3.2264  -17.7736   17.5960 H         1 YDP         0.0670
     25 H          -9.2651  -17.8724   19.8158 H         1 YDP         0.0375
     26 H          -7.4896  -17.7998   19.6999 H         1 YDP         0.0375
     27 H          -8.3545  -16.7124   20.8138 H         1 YDP         0.0375
     28 H          -4.4788  -15.9063   16.5421 H         1 YDP         0.0649
     29 H          -8.3325  -17.3004   13.2115 H         1 YDP         0.0532
     30 H          -9.8790  -16.4365   13.7490 H         1 YDP         0.0532
     31 H          -6.6741  -18.7717   14.2047 H         1 YDP         0.0649
     32 H          -5.4017  -20.6372   15.2377 H         1 YDP         0.0670
     33 H          -9.8091  -15.5841   16.1262 H         1 YDP         0.0553
     34 H          -8.1476  -14.8273   16.4569 H         1 YDP         0.0553
     35 H          -8.5093  -17.6764   17.2999 H         1 YDP         0.0258
     36 H          -7.7261  -14.1937   18.7479 H         1 YDP         0.0375
     37 H          -9.4998  -14.2910   18.8718 H         1 YDP         0.0375
     38 H          -8.4856  -14.6920   20.2796 H         1 YDP         0.0375
     39 H          -9.8467  -18.3270   15.5914 H         1 YDP         0.0829
     40 H          -8.8536  -19.1894   14.4431 H         1 YDP         0.0829
     41 H         -11.1978  -19.5582   14.0200 H         1 YDP         0.1995
     42 H         -11.4608  -17.9235   13.8318 H         1 YDP         0.1995
     43 H         -10.5130  -18.7465   12.7358 H         1 YDP         0.1995
@<TRIPOS>BOND
     1    4    1 am 
     2    2    3 ar 
     3    6    2 ar 
     4    3    4 1  
     5   10    3 ar 
     6    4   21 2  
     7   16    5 1  
     8    8    6 ar 
     9   13    7 1  
    10    7   18 1  
    11    8    9 ar 
    12   11    8 1  
    13    9   10 ar 
    14   11   12 2  
    15   13   11 am 
    16   11   20 2  
    17   14   13 1  
    18   15   14 1  
    19   15   16 2  
    20   16   17 1  
    21   18   19 1  
    22    1   22 1  
    23    1   23 1  
    24    2   24 1  
    25    5   25 1  
    26    5   26 1  
    27    5   27 1  
    28    6   28 1  
    29    7   29 1  
    30    7   30 1  
    31    9   31 1  
    32   10   32 1  
    33   14   33 1  
    34   14   34 1  
    35   15   35 1  
    36   17   36 1  
    37   17   37 1  
    38   17   38 1  
    39   18   39 1  
    40   18   40 1  
    41   19   41 1  
    42   19   42 1  
    43   19   43 1  
@<TRIPOS>SUBSTRUCTURE
     1 YDP         1

