### 
### Created by X-TOOL on Sun Sep  9 21:51:04 2018
### 

@<TRIPOS>MOLECULE
2zgm_ligand
   45    46     1     0     0
SMALL
GAST_HUCK


@<TRIPOS>ATOM
      1 C1          9.5060   -8.0180   40.8820 C.3       1 NON         0.1884
      2 C2         10.7320   -7.9960   39.9460 C.3       1 NON         0.1341
      3 C3         10.4040   -7.1080   38.7420 C.3       1 NON         0.1141
      4 C4          9.1630   -7.6750   38.0200 C.3       1 NON         0.1119
      5 C5          7.9920   -7.7170   39.0530 C.3       1 NON         0.1130
      6 C6          6.7630   -8.2950   38.3670 C.3       1 NON         0.0730
      7 O1          9.8470   -8.8610   42.0000 O.3       1 NON        -0.3401
      8 O2         11.8810   -7.4560   40.6390 O.3       1 NON        -0.3841
      9 O3         11.5270   -7.0720   37.8460 O.3       1 NON        -0.3864
     10 O4          9.4520   -9.0030   37.5230 O.3       1 NON        -0.3865
     11 O5          8.3540   -8.5640   40.1890 O.3       1 NON        -0.3405
     12 O6          5.6630   -8.3480   39.2860 O.3       1 NON        -0.3924
     13 C1'         7.9870   -9.6400   45.6890 C.3       1 NON         0.1854
     14 C2'         7.5830  -10.5300   44.4890 C.3       1 NON         0.1339
     15 C3'         8.6700  -10.4210   43.4340 C.3       1 NON         0.1144
     16 C4'         8.7900   -8.9450   42.9960 C.3       1 NON         0.1184
     17 C5'         9.1300   -8.1060   44.2720 C.3       1 NON         0.1134
     18 C6'         9.2110   -6.6170   43.9020 C.3       1 NON         0.0730
     19 O1'         6.9690   -9.7430   46.6960 O.3       1 NON        -0.3649
     20 O2'         7.4800  -11.9000   44.8940 O.3       1 NON        -0.3841
     21 O3'         8.3320  -11.2280   42.3090 O.3       1 NON        -0.3864
     22 O5'         8.0900   -8.2560   45.2810 O.3       1 NON        -0.3407
     23 O6'         9.5130   -5.8360   45.0640 O.3       1 NON        -0.3924
     24 H1          9.2775   -6.9998   41.2297 H         1 NON         0.0938
     25 H2         10.9561   -9.0179   39.6061 H         1 NON         0.0671
     26 H3         10.1870   -6.0872   39.0897 H         1 NON         0.0648
     27 H4          8.8904   -7.0231   37.1770 H         1 NON         0.0647
     28 H5          7.7760   -6.6988   39.4087 H         1 NON         0.0647
     29 H6          6.9891   -9.3112   38.0117 H         1 NON         0.0584
     30 H7          6.4915   -7.6593   37.5114 H         1 NON         0.0584
     31 H8         12.0859   -8.0057   41.3862 H         1 NON         0.2101
     32 H9         11.3197   -6.5185   37.1022 H         1 NON         0.2100
     33 H10        10.1654   -8.9574   36.8973 H         1 NON         0.2100
     34 H11         5.8953   -8.8980   40.0249 H         1 NON         0.2095
     35 H12         8.9523   -9.9794   46.0926 H         1 NON         0.0935
     36 H13         6.6202  -10.1900   44.0798 H         1 NON         0.0671
     37 H14         9.6280  -10.7612   43.8541 H         1 NON         0.0648
     38 H15         7.8428   -8.5931   42.5612 H         1 NON         0.0651
     39 H16        10.0937   -8.4426   44.6817 H         1 NON         0.0647
     40 H17         8.2456   -6.2924   43.4866 H         1 NON         0.0584
     41 H18        10.0011   -6.4714   43.1506 H         1 NON         0.0584
     42 H19         6.8903  -10.6481   46.9738 H         1 NON         0.2126
     43 H20         7.2577  -12.4356   44.1416 H         1 NON         0.2101
     44 H21         7.5024  -10.9366   41.9495 H         1 NON         0.2100
     45 H22         8.8307   -5.9595   45.7133 H         1 NON         0.2095
@<TRIPOS>BOND
     1    1    2 1  
     2    7    1 1  
     3    1   11 1  
     4    2    3 1  
     5    2    8 1  
     6    3    4 1  
     7    3    9 1  
     8    5    4 1  
     9    4   10 1  
    10    5    6 1  
    11   11    5 1  
    12    6   12 1  
    13   16    7 1  
    14   14   13 1  
    15   13   19 1  
    16   13   22 1  
    17   15   14 1  
    18   14   20 1  
    19   15   16 1  
    20   15   21 1  
    21   16   17 1  
    22   17   18 1  
    23   17   22 1  
    24   18   23 1  
    25    1   24 1  
    26    2   25 1  
    27    3   26 1  
    28    4   27 1  
    29    5   28 1  
    30    6   29 1  
    31    6   30 1  
    32    8   31 1  
    33    9   32 1  
    34   10   33 1  
    35   12   34 1  
    36   13   35 1  
    37   14   36 1  
    38   15   37 1  
    39   16   38 1  
    40   17   39 1  
    41   18   40 1  
    42   18   41 1  
    43   19   42 1  
    44   20   43 1  
    45   21   44 1  
    46   23   45 1  
@<TRIPOS>SUBSTRUCTURE
     1 NON         1

