### 
### Created by X-TOOL on Mon Sep 10 21:12:58 2018
### 

@<TRIPOS>MOLECULE
2zgx_ligand
   51    52     1     0     0
SMALL
GAST_HUCK


@<TRIPOS>ATOM
      1 N1         18.4130  -13.3300   21.6440 N.am      1 29U        -0.2471
      2 C1         18.3270  -12.0220   21.0170 C.3       1 29U         0.1339
      3 C7         17.0180  -11.9110   20.2720 C.2       1 29U         0.2037
      4 O22        16.6340  -12.8750   19.6440 O.2       1 29U        -0.3944
      5 N23        16.3710  -10.7240   20.3370 N.am      1 29U        -0.2737
      6 C24        15.0790  -10.6370   19.6650 C.3       1 29U         0.0645
      7 C25        13.9920  -10.6390   20.7580 C.ar      1 29U        -0.0210
      8 C26        13.4040   -9.4430   21.1600 C.ar      1 29U        -0.0584
      9 C27        12.4210   -9.4500   22.1480 C.ar      1 29U        -0.0633
     10 C28        12.0120  -10.6500   22.7480 C.ar      1 29U         0.0188
     11 C21        10.8810  -10.6450   23.8790 C.cat     1 29U         0.2318
     12 N46        10.2060  -11.7630   24.0990 N.pl3     1 29U        -0.2729
     13 N47        10.6480   -9.5500   24.5560 N.pl3     1 29U        -0.2729
     14 C29        12.6060  -11.8450   22.3400 C.ar      1 29U        -0.0633
     15 C30        13.5860  -11.8300   21.3540 C.ar      1 29U        -0.0584
     16 C2         19.4930  -12.0770   19.9820 C.3       1 29U        -0.0104
     17 C3         20.4710  -13.0420   20.6980 C.3       1 29U        -0.0281
     18 C4         19.5280  -14.1680   21.1920 C.3       1 29U         0.0371
     19 C14        17.4360  -13.7490   22.4880 C.2       1 29U         0.2292
     20 C5         17.4220  -15.1030   23.1790 C.3       1 29U         0.0649
     21 N13        16.0930  -15.7440   23.0790 N.4       1 29U         0.2379
     22 C33        17.6350  -14.8790   24.7110 C.3       1 29U         0.0050
     23 C48        18.9730  -14.4490   25.3430 C.3       1 29U        -0.0580
     24 O32        16.4680  -13.0330   22.7690 O.2       1 29U        -0.3905
     25 H1         18.4427  -11.2009   21.7398 H         1 29U         0.0802
     26 H2         16.7608   -9.9421   20.8235 H         1 29U         0.1878
     27 H3         14.9430  -11.5007   18.9976 H         1 29U         0.0683
     28 H4         15.0215   -9.7080   19.0788 H         1 29U         0.0683
     29 H5         13.7102   -8.5078   20.7054 H         1 29U         0.0557
     30 H6         11.9665   -8.5156   22.4568 H         1 29U         0.0599
     31 H7          9.4722  -11.7879   24.8214 H         1 29U         0.3180
     32 H8         10.4148  -12.6076   23.5477 H         1 29U         0.3180
     33 H9         11.1916   -8.6975   24.3594 H         1 29U         0.3180
     34 H10         9.9210   -9.5404   25.2856 H         1 29U         0.3180
     35 H11        12.3039  -12.7833   22.7910 H         1 29U         0.0599
     36 H12        14.0425  -12.7629   21.0435 H         1 29U         0.0557
     37 H13        19.9436  -11.0856   19.8267 H         1 29U         0.0313
     38 H14        19.1582  -12.4831   19.0161 H         1 29U         0.0313
     39 H15        20.9734  -12.5456   21.5413 H         1 29U         0.0287
     40 H16        21.2259  -13.4332   20.0001 H         1 29U         0.0287
     41 H17        19.2331  -14.8485   20.3797 H         1 29U         0.0524
     42 H18        19.9706  -14.7490   22.0145 H         1 29U         0.0524
     43 H19        18.2026  -15.7516   22.7549 H         1 29U         0.1098
     44 H20        16.1150  -16.6375   23.5451 H         1 29U         0.2015
     45 H21        15.8564  -15.8772   22.1083 H         1 29U         0.2015
     46 H22        15.4018  -15.1543   23.5155 H         1 29U         0.2015
     47 H23        17.3722  -15.8333   25.1909 H         1 29U         0.0343
     48 H24        16.9064  -14.1085   25.0034 H         1 29U         0.0343
     49 H25        18.8527  -14.3630   26.4330 H         1 29U         0.0233
     50 H26        19.2778  -13.4762   24.9299 H         1 29U         0.0233
     51 H27        19.7435  -15.2009   25.1173 H         1 29U         0.0233
@<TRIPOS>BOND
     1    1    2 1  
     2    1   18 1  
     3    1   19 am 
     4    2    3 1  
     5    2   16 1  
     6    3    4 2  
     7    3    5 am 
     8    5    6 1  
     9    6    7 1  
    10    7    8 ar 
    11    7   15 ar 
    12    8    9 ar 
    13    9   10 ar 
    14   10   11 1  
    15   10   14 ar 
    16   11   12 ar 
    17   11   13 ar 
    18   14   15 ar 
    19   16   17 1  
    20   17   18 1  
    21   19   20 1  
    22   19   24 2  
    23   20   21 1  
    24   20   22 1  
    25   22   23 1  
    26    2   25 1  
    27    5   26 1  
    28    6   27 1  
    29    6   28 1  
    30    8   29 1  
    31    9   30 1  
    32   12   31 1  
    33   12   32 1  
    34   13   33 1  
    35   13   34 1  
    36   14   35 1  
    37   15   36 1  
    38   16   37 1  
    39   16   38 1  
    40   17   39 1  
    41   17   40 1  
    42   18   41 1  
    43   18   42 1  
    44   20   43 1  
    45   21   44 1  
    46   21   45 1  
    47   21   46 1  
    48   22   47 1  
    49   22   48 1  
    50   23   49 1  
    51   23   50 1  
    52   23   51 1  
@<TRIPOS>SUBSTRUCTURE
     1 29U         1

