### 
### Created by X-TOOL on Mon Sep 10 21:13:00 2018
### 

@<TRIPOS>MOLECULE
2zhd_ligand
   64    66     1     0     0
SMALL
GAST_HUCK


@<TRIPOS>ATOM
      1 C14        17.4230   -9.7030   11.7420 C.2       1 12U         0.2262
      2 O32        17.8010   -8.8700   10.9340 O.2       1 12U        -0.3908
      3 C5         17.7890  -11.1410   11.5990 C.3       1 12U         0.0567
      4 N21        17.2390  -11.8500   10.4290 N.4       1 12U         0.2461
      5 C49        16.9590  -13.2740   10.5860 C.3       1 12U        -0.0209
      6 C48        15.9750  -13.7450   10.3360 C.3       1 12U        -0.0097
      7 C47        15.9890  -13.9030    8.8040 C.3       1 12U        -0.0480
      8 C46        16.3890  -15.2750    8.1630 C.3       1 12U        -0.0529
      9 C52        17.8860  -15.7070    8.2040 C.3       1 12U        -0.0529
     10 C51        18.6580  -14.5710    9.0040 C.3       1 12U        -0.0480
     11 C50        18.1340  -14.3400   10.5230 C.3       1 12U        -0.0097
     12 N1         16.6870   -9.2090   12.7120 N.am      1 12U        -0.2474
     13 C1         15.8240   -8.3090   12.5460 C.3       1 12U         0.1339
     14 C7         16.3210   -6.9350   12.4730 C.2       1 12U         0.2037
     15 O22        17.3250   -6.6080   13.0840 O.2       1 12U        -0.3944
     16 C2         14.8310   -8.3620   13.7160 C.3       1 12U        -0.0104
     17 C3         15.2750   -9.4780   14.6200 C.3       1 12U        -0.0281
     18 C4         16.6480   -9.8150   14.0550 C.3       1 12U         0.0371
     19 N23        15.7680   -5.9600   11.8220 N.am      1 12U        -0.2737
     20 C24        16.2460   -4.6070   11.8240 C.3       1 12U         0.0645
     21 C25        17.0600   -4.3850   10.5740 C.ar      1 12U        -0.0210
     22 C30        18.2340   -4.9360   10.1920 C.ar      1 12U        -0.0584
     23 C29        18.8100   -4.5670    8.9630 C.ar      1 12U        -0.0633
     24 C28        18.3060   -3.6580    8.0300 C.ar      1 12U         0.0188
     25 C9         19.0880   -3.3960    6.7500 C.cat     1 12U         0.2318
     26 N10        18.4950   -2.7710    5.7490 N.pl3     1 12U        -0.2729
     27 N11        20.3510   -3.8110    6.6800 N.pl3     1 12U        -0.2729
     28 C27        17.1150   -3.0970    8.4150 C.ar      1 12U        -0.0633
     29 C26        16.5270   -3.4600    9.6500 C.ar      1 12U        -0.0584
     30 H1         17.4402  -11.6653   12.5009 H         1 12U         0.1062
     31 H2         18.8857  -11.2018   11.5406 H         1 12U         0.1062
     32 H3         17.9013  -11.7520    9.6755 H         1 12U         0.2035
     33 H4         16.3746  -11.3964   10.1777 H         1 12U         0.2035
     34 H5         16.8325  -13.2431   11.6783 H         1 12U         0.0851
     35 H6         15.1443  -13.0961   10.6505 H         1 12U         0.0320
     36 H7         15.8799  -14.7256   10.8253 H         1 12U         0.0320
     37 H8         16.6924  -13.1528    8.4136 H         1 12U         0.0267
     38 H9         14.9731  -13.6717    8.4514 H         1 12U         0.0267
     39 H10        16.0906  -15.2383    7.1049 H         1 12U         0.0265
     40 H11        15.8116  -16.0556    8.6800 H         1 12U         0.0265
     41 H12        18.2858  -15.7920    7.1828 H         1 12U         0.0265
     42 H13        17.9894  -16.6730    8.7198 H         1 12U         0.0265
     43 H14        18.5433  -13.6254    8.4539 H         1 12U         0.0267
     44 H15        19.7228  -14.8439    9.0461 H         1 12U         0.0267
     45 H16        17.7681  -15.2972   10.9228 H         1 12U         0.0320
     46 H17        18.9727  -13.9822   11.1383 H         1 12U         0.0320
     47 H18        15.2950   -8.5266   11.6064 H         1 12U         0.0802
     48 H19        13.8161   -8.5607   13.3413 H         1 12U         0.0313
     49 H20        14.8398   -7.4073   14.2623 H         1 12U         0.0313
     50 H21        14.5939  -10.3394   14.5559 H         1 12U         0.0287
     51 H22        15.3443   -9.1423   15.6652 H         1 12U         0.0287
     52 H23        17.4389   -9.3901   14.6905 H         1 12U         0.0524
     53 H24        16.7778  -10.9052   13.9877 H         1 12U         0.0524
     54 H25        14.9522   -6.1648   11.2812 H         1 12U         0.1878
     55 H26        16.8741   -4.4367   12.7108 H         1 12U         0.0683
     56 H27        15.3933   -3.9123   11.8397 H         1 12U         0.0683
     57 H28        18.7292   -5.6590   10.8301 H         1 12U         0.0557
     58 H29        19.7515   -5.0418    8.7115 H         1 12U         0.0599
     59 H30        19.0125   -2.5874    4.8776 H         1 12U         0.3180
     60 H31        17.5150   -2.4671    5.8398 H         1 12U         0.3180
     61 H32        20.7792   -4.2952    7.4819 H         1 12U         0.3180
     62 H33        20.9000   -3.6479    5.8239 H         1 12U         0.3180
     63 H34        16.6238   -2.3750    7.7728 H         1 12U         0.0599
     64 H35        15.5865   -2.9872    9.9088 H         1 12U         0.0557
@<TRIPOS>BOND
     1    1    2 2  
     2    1    3 1  
     3    1   12 am 
     4    3    4 1  
     5    4    5 1  
     6    5    6 1  
     7    5   11 1  
     8    6    7 1  
     9    7    8 1  
    10    8    9 1  
    11    9   10 1  
    12   10   11 1  
    13   12   13 1  
    14   12   18 1  
    15   13   14 1  
    16   13   16 1  
    17   14   15 2  
    18   14   19 am 
    19   16   17 1  
    20   17   18 1  
    21   19   20 1  
    22   20   21 1  
    23   21   22 ar 
    24   21   29 ar 
    25   22   23 ar 
    26   23   24 ar 
    27   24   25 1  
    28   24   28 ar 
    29   25   26 ar 
    30   25   27 ar 
    31   28   29 ar 
    32    3   30 1  
    33    3   31 1  
    34    4   32 1  
    35    4   33 1  
    36    5   34 1  
    37    6   35 1  
    38    6   36 1  
    39    7   37 1  
    40    7   38 1  
    41    8   39 1  
    42    8   40 1  
    43    9   41 1  
    44    9   42 1  
    45   10   43 1  
    46   10   44 1  
    47   11   45 1  
    48   11   46 1  
    49   13   47 1  
    50   16   48 1  
    51   16   49 1  
    52   17   50 1  
    53   17   51 1  
    54   18   52 1  
    55   18   53 1  
    56   19   54 1  
    57   20   55 1  
    58   20   56 1  
    59   22   57 1  
    60   23   58 1  
    61   26   59 1  
    62   26   60 1  
    63   27   61 1  
    64   27   62 1  
    65   28   63 1  
    66   29   64 1  
@<TRIPOS>SUBSTRUCTURE
     1 12U         1

