### 
### Created by X-TOOL on Mon Sep 10 21:12:58 2018
### 

@<TRIPOS>MOLECULE
2zif_ligand
   50    52     1     0     0
SMALL
GAST_HUCK


@<TRIPOS>ATOM
      1 N          20.8660   24.8210   74.5340 N.4       1 SAM         0.2328
      2 CA         19.5740   25.3540   74.9840 C.3       1 SAM         0.0327
      3 C          18.9710   24.5510   76.1480 C.2       1 SAM         0.0846
      4 O          17.8670   24.8870   76.5870 O.co2     1 SAM        -0.5643
      5 OXT        19.6340   23.6070   76.5930 O.co2     1 SAM        -0.5643
      6 CB         18.5250   25.3690   73.8410 C.3       1 SAM         0.0473
      7 CG         17.4130   26.3820   73.1220 C.3       1 SAM         0.1163
      8 SD         16.5250   25.9000   71.5850 S.3       1 SAM        -0.0103
      9 CE         17.8460   25.7190   70.3450 C.3       1 SAM         0.0995
     10 C5'        15.5520   27.3490   71.1220 C.3       1 SAM         0.1381
     11 C4'        14.3400   27.6230   72.0270 C.3       1 SAM         0.1350
     12 O4'        13.6610   28.7960   71.6280 O.3       1 SAM        -0.3344
     13 C3'        13.2810   26.5040   72.0860 C.3       1 SAM         0.1168
     14 O3'        13.2050   25.8890   73.3660 O.3       1 SAM        -0.3863
     15 C2'        12.0230   27.1670   71.5290 C.3       1 SAM         0.1386
     16 O2'        10.8520   26.8110   72.2670 O.3       1 SAM        -0.3836
     17 C1'        12.2790   28.6460   71.8320 C.3       1 SAM         0.2011
     18 N9         11.6400   29.6250   70.9350 N.pl3     1 SAM        -0.1919
     19 C8         11.2300   29.6480   69.6440 C.2       1 SAM         0.1123
     20 N7         10.7800   30.8450   69.2470 N.2       1 SAM        -0.2958
     21 C5         10.8990   31.6840   70.3580 C.ar      1 SAM         0.1045
     22 C6         10.6470   33.0130   70.6820 C.ar      1 SAM         0.1298
     23 N6         10.1360   33.8840   69.7740 N.pl3     1 SAM        -0.3152
     24 N1         10.9100   33.4980   71.9460 N.ar      1 SAM        -0.2698
     25 C2         11.4190   32.6720   72.8860 C.ar      1 SAM         0.0533
     26 N3         11.6930   31.3730   72.6540 N.ar      1 SAM        -0.2714
     27 C4         11.4330   30.9070   71.4040 C.ar      1 SAM         0.1613
     28 H1         21.2144   25.3826   73.7729 H         1 SAM         0.2010
     29 H2         20.7470   23.8698   74.2225 H         1 SAM         0.2010
     30 H3         21.5236   24.8448   75.2975 H         1 SAM         0.2010
     31 H4         19.7404   26.3873   75.3226 H         1 SAM         0.1026
     32 H5         17.8866   24.5198   74.1263 H         1 SAM         0.0385
     33 H6         19.1460   25.0872   72.9779 H         1 SAM         0.0385
     34 H7         17.9473   27.3155   72.8916 H         1 SAM         0.0843
     35 H8         16.6390   26.5796   73.8782 H         1 SAM         0.0843
     36 H9         17.4056   25.4283   69.3799 H         1 SAM         0.0803
     37 H10        18.5536   24.9435   70.6735 H         1 SAM         0.0803
     38 H11        18.3768   26.6758   70.2324 H         1 SAM         0.0803
     39 H12        15.1868   27.2029   70.0948 H         1 SAM         0.0867
     40 H13        16.2107   28.2293   71.1553 H         1 SAM         0.0867
     41 H14        14.7292   27.7701   73.0453 H         1 SAM         0.0671
     42 H15        13.5722   25.7065   71.3866 H         1 SAM         0.0649
     43 H16        12.9763   26.5421   74.0168 H         1 SAM         0.2100
     44 H17        11.8925   26.9612   70.4563 H         1 SAM         0.0676
     45 H18        10.9539   27.0838   73.1713 H         1 SAM         0.2101
     46 H19        11.9915   28.8644   72.8710 H         1 SAM         0.0996
     47 H20        11.2632   28.7766   68.9917 H         1 SAM         0.1349
     48 H21         9.9595   34.8627   70.0420 H         1 SAM         0.1820
     49 H22         9.9250   33.5659   68.8174 H         1 SAM         0.1820
     50 H23        11.6164   33.0730   73.8736 H         1 SAM         0.0996
@<TRIPOS>BOND
     1    1    2 1  
     2    2    3 1  
     3    2    6 1  
     4    3    4 ar 
     5    3    5 ar 
     6    6    7 1  
     7    7    8 1  
     8    8    9 1  
     9    8   10 1  
    10   10   11 1  
    11   11   12 1  
    12   11   13 1  
    13   12   17 1  
    14   13   14 1  
    15   13   15 1  
    16   15   16 1  
    17   15   17 1  
    18   17   18 1  
    19   18   19 1  
    20   18   27 1  
    21   19   20 2  
    22   20   21 1  
    23   21   22 ar 
    24   21   27 ar 
    25   22   23 1  
    26   22   24 ar 
    27   24   25 ar 
    28   25   26 ar 
    29   26   27 ar 
    30    1   28 1  
    31    1   29 1  
    32    1   30 1  
    33    2   31 1  
    34    6   32 1  
    35    6   33 1  
    36    7   34 1  
    37    7   35 1  
    38    9   36 1  
    39    9   37 1  
    40    9   38 1  
    41   10   39 1  
    42   10   40 1  
    43   11   41 1  
    44   13   42 1  
    45   14   43 1  
    46   15   44 1  
    47   16   45 1  
    48   17   46 1  
    49   19   47 1  
    50   23   48 1  
    51   23   49 1  
    52   25   50 1  
@<TRIPOS>SUBSTRUCTURE
     1 SAM         1

