### 
### Created by X-TOOL on Mon Sep 10 21:13:00 2018
### 

@<TRIPOS>MOLECULE
2zir_ligand
   67    72     1     0     0
SMALL
GAST_HUCK


@<TRIPOS>ATOM
      1 C2         20.1290  126.2860    3.1920 C.2       1 NH7         0.1242
      2 C7         18.5840  128.2370    0.4490 C.3       1 NH7         0.0969
      3 C10        17.5550  129.3660    0.6880 C.2       1 NH7         0.0823
      4 C11        17.6780  130.5520    1.3350 C.2       1 NH7        -0.0180
      5 C12        16.3950  131.1460    1.3930 C.ar      1 NH7         0.0353
      6 C13        15.8700  132.2980    2.0000 C.ar      1 NH7        -0.0308
      7 C14        14.5020  132.5540    1.8360 C.ar      1 NH7         0.0539
      8 C15        13.6560  131.6980    1.0540 C.ar      1 NH7        -0.0330
      9 C16        14.1680  130.5620    0.4200 C.ar      1 NH7         0.0327
     10 C21        17.8860  127.2620   -0.4810 C.ar      1 NH7        -0.0743
     11 C22        16.8980  126.4260    0.0410 C.ar      1 NH7        -0.0622
     12 C24        16.4890  125.5450   -2.1780 C.ar      1 NH7         0.0552
     13 C31        13.3760  129.6620   -0.4390 C.ar      1 NH7        -0.0170
     14 C32        12.5300  130.1480   -1.4570 C.ar      1 NH7        -0.0559
     15 C33        11.7890  129.2910   -2.2730 C.ar      1 NH7        -0.0626
     16 C34        11.8830  127.9140   -2.0620 C.ar      1 NH7        -0.0630
     17 C35        12.7220  127.4060   -1.0530 C.ar      1 NH7        -0.0626
     18 N1         19.9700  126.5650    1.8640 N.pl3     1 NH7        -0.2485
     19 N3         19.3670  127.0880    3.9130 N.2       1 NH7        -0.2812
     20 C4         18.7080  127.8960    3.0540 C.2       1 NH7         0.0080
     21 C5         19.0440  127.6100    1.7660 C.2       1 NH7         0.0393
     22 C6         20.6580  125.8530    0.7810 C.3       1 NH7         0.0497
     23 O8         19.7140  128.8350   -0.2050 O.3       1 NH7        -0.4670
     24 O9         16.2560  129.2510    0.2010 O.3       1 NH7        -0.2563
     25 C17        15.5480  130.3190    0.6520 C.ar      1 NH7         0.1547
     26 C23        16.1950  125.5630   -0.8050 C.ar      1 NH7        -0.0348
     27 C25        17.4840  126.3740   -2.7280 C.ar      1 NH7        -0.0348
     28 C26        18.1740  127.2290   -1.8640 C.ar      1 NH7        -0.0622
     29 CL27       15.5510  124.4920   -3.1680 Cl        1 NH7        -0.0570
     30 C36        13.4610  128.2670   -0.2390 C.ar      1 NH7        -0.0559
     31 C41        13.9430  133.7330    2.4940 C.2       1 NH7         0.2379
     32 O42        12.7590  133.7790    2.8510 O.2       1 NH7        -0.3831
     33 N43        14.7920  134.7940    2.7190 N.am      1 NH7        -0.2532
     34 N44        14.3260  136.0240    3.3410 N.4       1 NH7         0.3736
     35 C45        13.6870  136.8730    2.3150 C.3       1 NH7         0.0162
     36 C46        13.2640  138.2010    2.9230 C.3       1 NH7         0.0885
     37 O47        14.3360  138.8000    3.6250 O.3       1 NH7        -0.3693
     38 C48        14.8290  138.0010    4.6930 C.3       1 NH7         0.0885
     39 C49        15.4020  136.7130    4.1040 C.3       1 NH7         0.0162
     40 H1         20.7860  125.5170    3.5956 H         1 NH7         0.1447
     41 H2         18.5988  130.9716    1.7375 H         1 NH7         0.0748
     42 H3         16.5007  132.9660    2.5753 H         1 NH7         0.0717
     43 H4         12.6033  131.9361    0.9534 H         1 NH7         0.0695
     44 H5         16.6757  126.4457    1.1018 H         1 NH7         0.0715
     45 H6         12.4527  131.2183   -1.6106 H         1 NH7         0.0611
     46 H7         11.1525  129.6874   -3.0558 H         1 NH7         0.0614
     47 H8         11.3070  127.2332   -2.6783 H         1 NH7         0.0607
     48 H9         12.7955  126.3345   -0.9060 H         1 NH7         0.0614
     49 H10        18.0034  128.6712    3.3515 H         1 NH7         0.0825
     50 H11        21.3200  125.0859    1.2091 H         1 NH7         0.0589
     51 H12        21.2551  126.5666    0.1943 H         1 NH7         0.0589
     52 H13        19.9147  125.3726    0.1278 H         1 NH7         0.0589
     53 H14        20.1386  129.4415    0.3903 H         1 NH7         0.1787
     54 H15        15.4274  124.9115   -0.4033 H         1 NH7         0.0660
     55 H16        17.7083  126.3503   -3.7883 H         1 NH7         0.0660
     56 H17        18.9446  127.8790   -2.2624 H         1 NH7         0.0715
     57 H18        14.0966  127.8664    0.5424 H         1 NH7         0.0611
     58 H19        15.7516  134.7171    2.4484 H         1 NH7         0.2374
     59 H20        13.6132  135.7752    4.0089 H         1 NH7         0.2299
     60 H21        12.8010  136.3571    1.9164 H         1 NH7         0.0844
     61 H22        14.4016  137.0578    1.4994 H         1 NH7         0.0844
     62 H23        12.4296  138.0289    3.6188 H         1 NH7         0.0613
     63 H24        12.9376  138.8772    2.1192 H         1 NH7         0.0613
     64 H25        14.0097  137.7605    5.3865 H         1 NH7         0.0613
     65 H26        15.6176  138.5463    5.2322 H         1 NH7         0.0613
     66 H27        16.2389  136.9526    3.4315 H         1 NH7         0.0844
     67 H28        15.7583  136.0605    4.9147 H         1 NH7         0.0844
@<TRIPOS>BOND
     1   18    1 1  
     2    1   19 2  
     3    2    3 1  
     4    2   10 1  
     5   21    2 1  
     6    2   23 1  
     7    3    4 2  
     8    3   24 1  
     9    4    5 1  
    10    5    6 ar 
    11    5   25 ar 
    12    6    7 ar 
    13    7    8 ar 
    14    7   31 1  
    15    9    8 ar 
    16    9   13 1  
    17   25    9 ar 
    18   10   11 ar 
    19   10   28 ar 
    20   11   26 ar 
    21   26   12 ar 
    22   12   27 ar 
    23   12   29 1  
    24   13   14 ar 
    25   13   30 ar 
    26   14   15 ar 
    27   15   16 ar 
    28   17   16 ar 
    29   30   17 ar 
    30   18   21 1  
    31   18   22 1  
    32   19   20 1  
    33   20   21 2  
    34   24   25 1  
    35   27   28 ar 
    36   31   32 2  
    37   31   33 am 
    38   33   34 1  
    39   34   35 1  
    40   34   39 1  
    41   35   36 1  
    42   36   37 1  
    43   37   38 1  
    44   38   39 1  
    45    1   40 1  
    46    4   41 1  
    47    6   42 1  
    48    8   43 1  
    49   11   44 1  
    50   14   45 1  
    51   15   46 1  
    52   16   47 1  
    53   17   48 1  
    54   20   49 1  
    55   22   50 1  
    56   22   51 1  
    57   22   52 1  
    58   23   53 1  
    59   26   54 1  
    60   27   55 1  
    61   28   56 1  
    62   30   57 1  
    63   33   58 1  
    64   34   59 1  
    65   35   60 1  
    66   35   61 1  
    67   36   62 1  
    68   36   63 1  
    69   38   64 1  
    70   38   65 1  
    71   39   66 1  
    72   39   67 1  
@<TRIPOS>SUBSTRUCTURE
     1 NH7         1

