### 
### Created by X-TOOL on Mon Sep 10 21:13:00 2018
### 

@<TRIPOS>MOLECULE
2zis_ligand
   53    57     1     0     0
SMALL
GAST_HUCK


@<TRIPOS>ATOM
      1 C2         72.3250   80.6270    3.1800 C.2       1 NH8         0.1467
      2 C7         70.0400   80.2090    0.3360 C.3       1 NH8         0.1552
      3 C10        68.5900   79.8560    0.5940 C.2       1 NH8         0.1893
      4 C11        67.5660   80.5170    1.2180 C.2       1 NH8         0.0836
      5 C12        66.4880   79.6060    1.3360 C.ar      1 NH8         0.1594
      6 C13        65.2310   79.6100    1.9900 C.ar      1 NH8         0.0908
      7 C14        64.4410   78.4620    1.8550 C.ar      1 NH8         0.1977
      8 C15        64.8190   77.3350    1.0550 C.ar      1 NH8         0.0957
      9 C16        66.0310   77.3300    0.3560 C.ar      1 NH8         0.1603
     10 C21        70.5340   79.1100   -0.5600 C.ar      1 NH8        -0.0521
     11 C22        71.0230   77.9170   -0.0210 C.ar      1 NH8        -0.0504
     12 C24        71.3260   77.0650   -2.2710 C.ar      1 NH8         0.1088
     13 C27        71.7180   75.9860   -3.1160 C.1       1 NH8         0.1124
     14 C31        66.4520   76.2520   -0.5700 C.ar      1 NH8         0.0908
     15 C32        65.6160   75.8330   -1.6230 C.ar      1 NH8         0.0052
     16 C33        66.0020   74.8330   -2.5090 C.ar      1 NH8        -0.0099
     17 C34        67.2500   74.2280   -2.3550 C.ar      1 NH8         0.0118
     18 C35        68.1160   74.6180   -1.3150 C.ar      1 NH8         0.1373
     19 N1         72.0670   80.7000    1.8420 N.pl3     1 NH8        -0.2239
     20 N3         71.2980   80.2020    3.8610 N.2       1 NH8        -0.2487
     21 C4         70.3750   80.0030    2.9390 C.2       1 NH8         0.0435
     22 C5         70.7670   80.2870    1.6640 C.2       1 NH8         0.0828
     23 C6         73.0490   81.1130    0.8100 C.3       1 NH8         0.0553
     24 O8         70.1390   81.4770   -0.3000 O.3       1 NH8        -0.4554
     25 O9         68.1400   78.6400    0.1510 O.3       1 NH8        -0.1741
     26 C17        66.8670   78.4700    0.5940 C.ar      1 NH8         0.2641
     27 C23        71.4240   76.8950   -0.8840 C.ar      1 NH8        -0.0145
     28 C25        70.8350   78.2710   -2.8030 C.ar      1 NH8        -0.0145
     29 C26        70.4320   79.2970   -1.9420 C.ar      1 NH8        -0.0504
     30 N28        71.9850   75.0900   -3.7780 N.1       1 NH8        -0.3196
     31 C36        67.7100   75.6280   -0.4290 C.ar      1 NH8         0.0338
     32 C37        69.4040   73.9850   -1.1810 C.1       1 NH8         0.1132
     33 N38        70.4400   73.4910   -1.1080 N.1       1 NH8        -0.3251
     34 N41        63.1590   78.4120    2.5800 N.2       1 NH8        -0.1881
     35 O42        62.5660   79.4880    2.7930 O.2       1 NH8        -0.4855
     36 O43        62.7030   77.3080    2.9550 O.2       1 NH8        -0.4855
     37 H1         73.2810   80.8937    3.6282 H         1 NH8         0.1619
     38 H2         67.5782   81.5509    1.5599 H         1 NH8         0.1379
     39 H3         64.8962   80.4633    2.5687 H         1 NH8         0.1710
     40 H4         64.1591   76.4774    0.9907 H         1 NH8         0.1470
     41 H5         71.0902   77.7866    1.0530 H         1 NH8         0.0743
     42 H6         64.6465   76.3021   -1.7461 H         1 NH8         0.0953
     43 H7         65.3402   74.5266   -3.3110 H         1 NH8         0.0767
     44 H8         67.5564   73.4490   -3.0437 H         1 NH8         0.1049
     45 H9         69.3766   79.6397    3.1780 H         1 NH8         0.1058
     46 H10        73.9985   81.3839    1.2949 H         1 NH8         0.0594
     47 H11        72.6583   81.9809    0.2585 H         1 NH8         0.0594
     48 H12        73.2186   80.2806    0.1113 H         1 NH8         0.0594
     49 H13        69.8203   82.1511    0.2887 H         1 NH8         0.1804
     50 H14        71.8123   75.9673   -0.4794 H         1 NH8         0.0751
     51 H15        70.7692   78.4048   -3.8767 H         1 NH8         0.0751
     52 H16        70.0447   80.2272   -2.3418 H         1 NH8         0.0743
     53 H17        68.3713   75.9327    0.3740 H         1 NH8         0.1018
@<TRIPOS>BOND
     1   19    1 1  
     2    1   20 2  
     3    2    3 1  
     4    2   10 1  
     5   22    2 1  
     6    2   24 1  
     7    3    4 2  
     8    3   25 1  
     9    4    5 1  
    10    5    6 ar 
    11    5   26 ar 
    12    6    7 ar 
    13    7    8 ar 
    14    7   34 1  
    15    9    8 ar 
    16    9   14 1  
    17   26    9 ar 
    18   10   11 ar 
    19   10   29 ar 
    20   11   27 ar 
    21   12   13 1  
    22   27   12 ar 
    23   12   28 ar 
    24   13   30 3  
    25   14   15 ar 
    26   14   31 ar 
    27   15   16 ar 
    28   16   17 ar 
    29   18   17 ar 
    30   31   18 ar 
    31   18   32 1  
    32   19   22 1  
    33   19   23 1  
    34   20   21 1  
    35   21   22 2  
    36   25   26 1  
    37   28   29 ar 
    38   32   33 3  
    39   34   35 2  
    40   34   36 2  
    41    1   37 1  
    42    4   38 1  
    43    6   39 1  
    44    8   40 1  
    45   11   41 1  
    46   15   42 1  
    47   16   43 1  
    48   17   44 1  
    49   21   45 1  
    50   23   46 1  
    51   23   47 1  
    52   23   48 1  
    53   24   49 1  
    54   27   50 1  
    55   28   51 1  
    56   29   52 1  
    57   31   53 1  
@<TRIPOS>SUBSTRUCTURE
     1 NH8         1

