### 
### Created by X-TOOL on Mon Sep 10 21:12:58 2018
### 

@<TRIPOS>MOLECULE
2zjf_ligand
   28    29     1     0     0
SMALL
GAST_HUCK


@<TRIPOS>ATOM
      1 N7         -3.6830   -0.1380   19.8580 N.am      1 BSU        -0.2143
      2 C8         -4.1800    1.1190   19.8610 C.2       1 BSU         0.3171
      3 N9         -3.2250    2.0720   19.7920 N.am      1 BSU        -0.2143
      4 O11        -5.3830    1.3590   19.9270 O.2       1 BSU        -0.3802
      5 C5         -4.3190   -1.3350   19.9030 C.ar      1 BSU         0.0671
      6 C4         -3.4380   -2.4730   19.9080 C.ar      1 BSU        -0.0415
      7 C3         -3.9710   -3.8030   19.9560 C.ar      1 BSU        -0.0757
      8 C2         -5.3930   -3.9900   19.9960 C.ar      1 BSU        -0.0773
      9 C1         -6.2840   -2.8840   19.9910 C.ar      1 BSU        -0.0757
     10 C6         -5.7510   -1.5540   19.9460 C.ar      1 BSU        -0.0415
     11 C10        -3.3470    3.4330   19.7840 C.ar      1 BSU         0.0671
     12 C16        -4.5830    4.1970   19.8500 C.ar      1 BSU        -0.0415
     13 C15        -4.5700    5.6250   19.8400 C.ar      1 BSU        -0.0757
     14 C14        -3.3080    6.3060   19.7630 C.ar      1 BSU        -0.0773
     15 C13        -2.0690    5.5700   19.6950 C.ar      1 BSU        -0.0757
     16 C12        -2.0980    4.1390   19.7060 C.ar      1 BSU        -0.0415
     17 H1         -2.6855   -0.1945   19.8158 H         1 BSU         0.2262
     18 H2         -2.2869    1.7297   19.7387 H         1 BSU         0.2262
     19 H3         -2.3648   -2.3236   19.8753 H         1 BSU         0.0501
     20 H4         -3.3061   -4.6591   19.9620 H         1 BSU         0.0577
     21 H5         -5.7955   -4.9959   20.0307 H         1 BSU         0.0486
     22 H6         -7.3557   -3.0439   20.0209 H         1 BSU         0.0577
     23 H7         -6.4248   -0.7048   19.9441 H         1 BSU         0.0501
     24 H8         -5.5304    3.6734   19.9078 H         1 BSU         0.0501
     25 H9         -5.4967    6.1852   19.8897 H         1 BSU         0.0577
     26 H10        -3.2860    7.3898   19.7559 H         1 BSU         0.0486
     27 H11        -1.1234    6.0967   19.6360 H         1 BSU         0.0577
     28 H12        -1.1690    3.5827   19.6550 H         1 BSU         0.0501
@<TRIPOS>BOND
     1    1    2 am 
     2    1    5 1  
     3    2    3 am 
     4    2    4 2  
     5    3   11 1  
     6    5    6 ar 
     7    5   10 ar 
     8    6    7 ar 
     9    7    8 ar 
    10    8    9 ar 
    11    9   10 ar 
    12   11   12 ar 
    13   11   16 ar 
    14   12   13 ar 
    15   13   14 ar 
    16   14   15 ar 
    17   15   16 ar 
    18    1   17 1  
    19    3   18 1  
    20    6   19 1  
    21    7   20 1  
    22    8   21 1  
    23    9   22 1  
    24   10   23 1  
    25   12   24 1  
    26   13   25 1  
    27   14   26 1  
    28   15   27 1  
    29   16   28 1  
@<TRIPOS>SUBSTRUCTURE
     1 BSU         1

