### 
### Created by X-TOOL on Mon Sep 10 21:12:58 2018
### 

@<TRIPOS>MOLECULE
2zju_ligand
   28    29     1     0     0
SMALL
GAST_HUCK


@<TRIPOS>ATOM
      1 C5         29.9310  -27.6730  -31.5650 C.ar      1 IM4        -0.0401
      2 C6         29.4720  -26.8520  -32.6270 C.ar      1 IM4        -0.0241
      3 C1         29.4520  -25.4450  -32.4270 C.ar      1 IM4         0.1103
      4 CL7        28.9030  -24.4050  -33.7080 Cl        1 IM4        -0.0460
      5 N2         29.8530  -24.9010  -31.2700 N.ar      1 IM4        -0.2896
      6 C3         30.2930  -25.6520  -30.2440 C.ar      1 IM4         0.0119
      7 C4         30.3560  -27.0840  -30.3420 C.ar      1 IM4         0.0070
      8 C8         30.8620  -27.9590  -29.1820 C.3       1 IM4         0.0714
      9 N9         30.4740  -27.5720  -27.8100 N.pl3     1 IM4        -0.2761
     10 C13        31.2770  -26.6650  -26.9730 C.3       1 IM4         0.0573
     11 C12        30.5190  -26.5320  -25.6360 C.3       1 IM4         0.0531
     12 N11        29.3270  -27.3680  -25.7820 N.pl3     1 IM4        -0.3008
     13 C10        29.3130  -27.9570  -27.0660 C.cat     1 IM4         0.2998
     14 N14        28.4160  -28.7680  -27.5020 N.pl3     1 IM4         0.0072
     15 N15        27.2430  -29.2760  -26.9930 N.2       1 IM4         0.5622
     16 O16        26.8050  -29.0090  -25.7960 O.2       1 IM4         0.3085
     17 O17        26.5520  -30.0730  -27.7290 O.2       1 IM4         0.3085
     18 H1         29.9579  -28.7499  -31.6856 H         1 IM4         0.0671
     19 H2         29.1455  -27.2858  -33.5652 H         1 IM4         0.0677
     20 H3         30.6059  -25.1675  -29.3262 H         1 IM4         0.0755
     21 H4         31.9611  -27.9582  -29.2251 H         1 IM4         0.0732
     22 H5         30.4890  -28.9795  -29.3533 H         1 IM4         0.0732
     23 H6         31.3715  -25.6820  -27.4575 H         1 IM4         0.0582
     24 H7         32.2781  -27.0881  -26.8036 H         1 IM4         0.0582
     25 H8         30.2351  -25.4845  -25.4568 H         1 IM4         0.0579
     26 H9         31.1414  -26.8909  -24.8031 H         1 IM4         0.0579
     27 H10        28.6072  -27.5061  -25.0583 H         1 IM4         0.1926
     28 H11        28.6226  -29.1173  -28.4487 H         1 IM4         0.3984
@<TRIPOS>BOND
     1    1    2 ar 
     2    1    7 ar 
     3    2    3 ar 
     4    3    4 1  
     5    3    5 ar 
     6    5    6 ar 
     7    6    7 ar 
     8    7    8 1  
     9    8    9 1  
    10    9   10 1  
    11    9   13 ar 
    12   10   11 1  
    13   11   12 1  
    14   12   13 ar 
    15   13   14 ar 
    16   14   15 1  
    17   15   16 2  
    18   15   17 2  
    19    1   18 1  
    20    2   19 1  
    21    6   20 1  
    22    8   21 1  
    23    8   22 1  
    24   10   23 1  
    25   10   24 1  
    26   11   25 1  
    27   11   26 1  
    28   12   27 1  
    29   14   28 1  
@<TRIPOS>SUBSTRUCTURE
     1 IM4         1

