### 
### Created by X-TOOL on Mon Sep 10 21:12:58 2018
### 

@<TRIPOS>MOLECULE
2zjv_ligand
   24    24     1     0     0
SMALL
GAST_HUCK


@<TRIPOS>ATOM
      1 N          30.8480  -27.0810  -28.5190 N.pl3     1 CT4        -0.2899
      2 C          30.0040  -27.3870  -27.4620 C.cat     1 CT4         0.2973
      3 N1         30.6110  -26.9700  -26.2840 N.pl3     1 CT4        -0.3059
      4 N2         28.8410  -27.9650  -27.7360 N.pl3     1 CT4         0.0070
      5 C1         30.5540  -27.3640  -29.9180 C.3       1 CT4         0.0774
      6 C2         30.1890  -26.1590  -30.7360 C.2       1 CT4         0.0560
      7 C3         31.8990  -26.3320  -26.0630 C.3       1 CT4         0.0186
      8 S          29.7710  -26.3170  -32.3990 S.3       1 CT4         0.0120
      9 C4         29.5470  -24.6300  -32.4690 C.2       1 CT4         0.1722
     10 N4         29.7510  -23.9410  -31.3700 N.2       1 CT4        -0.3185
     11 C5         30.1210  -24.8210  -30.3730 C.2       1 CT4        -0.0171
     12 CL         29.0740  -23.8930  -33.9390 Cl        1 CT4        -0.0221
     13 N5         27.9500  -28.2990  -26.7700 N.2       1 CT4         0.5622
     14 O1         26.8880  -28.8470  -27.1360 O.2       1 CT4         0.3085
     15 O2         28.1910  -28.0530  -25.5610 O.2       1 CT4         0.3085
     16 H1         31.7439  -26.6223  -28.3003 H         1 CT4         0.1953
     17 H2         30.0605  -27.1400  -25.4302 H         1 CT4         0.1923
     18 H3         28.6067  -28.1672  -28.7184 H         1 CT4         0.3984
     19 H4         29.7128  -28.0717  -29.9555 H         1 CT4         0.0748
     20 H5         31.4438  -27.8278  -30.3686 H         1 CT4         0.0748
     21 H6         32.0379  -26.1493  -24.9872 H         1 CT4         0.0518
     22 H7         31.9320  -25.3752  -26.6047 H         1 CT4         0.0518
     23 H8         32.7014  -26.9889  -26.4298 H         1 CT4         0.0518
     24 H9         30.3462  -24.4855  -29.3617 H         1 CT4         0.0429
@<TRIPOS>BOND
     1    1    2 ar 
     2    1    5 1  
     3    2    3 ar 
     4    2    4 ar 
     5    3    7 1  
     6    4   13 1  
     7    5    6 1  
     8    6    8 1  
     9    6   11 2  
    10    8    9 1  
    11    9   10 2  
    12    9   12 1  
    13   10   11 1  
    14   13   14 2  
    15   13   15 2  
    16    1   16 1  
    17    3   17 1  
    18    4   18 1  
    19    5   19 1  
    20    5   20 1  
    21    7   21 1  
    22    7   22 1  
    23    7   23 1  
    24   11   24 1  
@<TRIPOS>SUBSTRUCTURE
     1 CT4         1

