### 
### Created by X-TOOL on Mon Sep 10 21:13:01 2018
### 

@<TRIPOS>MOLECULE
2zjw_ligand
   28    31     1     0     0
SMALL
GAST_HUCK


@<TRIPOS>ATOM
      1 C1         36.2990   -4.1210   11.3460 C.ar      1 REF         0.0450
      2 C2         36.7620   -3.9980   10.0510 C.ar      1 REF         0.0162
      3 C3         37.0360   -5.1560    9.3730 C.ar      1 REF         0.0162
      4 C4         36.8540   -6.3910    9.9870 C.ar      1 REF         0.1580
      5 O5         36.4080   -6.4780   11.2130 O.3       1 REF        -0.2195
      6 C6         36.1270   -5.3960   11.8930 C.2       1 REF         0.2659
      7 C7         37.4950   -5.0300    8.0770 C.ar      1 REF         0.0450
      8 C8         37.8020   -6.1670    7.3410 C.ar      1 REF        -0.0299
      9 C9         37.6380   -7.4090    7.9360 C.ar      1 REF         0.1153
     10 C10        37.1730   -7.5170    9.2340 C.ar      1 REF         0.1561
     11 C11        36.9570   -2.7650    9.4290 C.ar      1 REF         0.1580
     12 O12        37.3840   -2.6760    8.2030 O.3       1 REF        -0.2195
     13 C13        37.6500   -3.7590    7.5280 C.2       1 REF         0.2659
     14 C14        36.0200   -2.9650   12.0640 C.ar      1 REF        -0.0299
     15 C15        36.2260   -1.7260   11.4630 C.ar      1 REF         0.1153
     16 C16        36.6900   -1.6180   10.1560 C.ar      1 REF         0.1561
     17 O19        37.0570   -8.7500    9.7080 O.3       1 REF        -0.3376
     18 O20        37.9390   -8.5720    7.2540 O.3       1 REF        -0.3385
     19 O21        38.0940   -3.6720    6.2710 O.2       1 REF        -0.3660
     20 O22        36.8970   -0.3670    9.5960 O.3       1 REF        -0.3376
     21 O23        35.9810   -0.5860   12.1650 O.3       1 REF        -0.3385
     22 O24        35.6540   -5.5010   13.1600 O.2       1 REF        -0.3660
     23 H1         38.1626   -6.0854    6.3220 H         1 REF         0.0486
     24 H2         35.6465   -3.0268   13.0797 H         1 REF         0.0486
     25 H3         36.7325   -8.7159   10.6002 H         1 REF         0.2424
     26 H4         38.2451   -8.3557    6.3810 H         1 REF         0.2440
     27 H5         37.2120   -0.4681    8.7054 H         1 REF         0.2424
     28 H6         35.3191   -0.0744   11.7150 H         1 REF         0.2440
@<TRIPOS>BOND
     1    1    2 ar 
     2    1    6 1  
     3    1   14 ar 
     4    2    3 1  
     5    2   11 ar 
     6    3    4 ar 
     7    3    7 ar 
     8    4    5 1  
     9    4   10 ar 
    10    5    6 1  
    11    6   22 2  
    12    7    8 ar 
    13    7   13 1  
    14    8    9 ar 
    15    9   10 ar 
    16    9   18 1  
    17   10   17 1  
    18   11   12 1  
    19   11   16 ar 
    20   12   13 1  
    21   13   19 2  
    22   14   15 ar 
    23   15   16 ar 
    24   15   21 1  
    25   16   20 1  
    26    8   23 1  
    27   14   24 1  
    28   17   25 1  
    29   18   26 1  
    30   20   27 1  
    31   21   28 1  
@<TRIPOS>SUBSTRUCTURE
     1 REF         1

