### 
### Created by X-TOOL on Mon Sep 10 21:12:57 2018
### 

@<TRIPOS>MOLECULE
2zm1_ligand
   36    39     1     0     0
SMALL
GAST_HUCK


@<TRIPOS>ATOM
      1 CL23       21.0260   38.7930    5.5230 Cl        1 KSF        -0.0792
      2 C18        19.7750   37.6240    6.0760 C.ar      1 KSF         0.0630
      3 C17        19.8820   37.0660    7.4570 C.ar      1 KSF         0.0795
      4 C22        18.9030   36.1690    7.8910 C.ar      1 KSF        -0.0373
      5 C21        17.8480   35.8400    7.0300 C.ar      1 KSF        -0.0711
      6 C20        17.7400   36.3630    5.7350 C.ar      1 KSF        -0.0727
      7 C19        18.6960   37.2730    5.2550 C.ar      1 KSF        -0.0573
      8 N16        20.9410   37.4200    8.2520 N.pl3     1 KSF        -0.2488
      9 C2         22.2390   36.9710    8.0930 C.2       1 KSF         0.1677
     10 N3         22.5580   35.9240    7.3000 N.2       1 KSF        -0.2951
     11 C4         23.8240   35.5040    7.1780 C.2       1 KSF         0.0175
     12 C5         24.9000   36.0750    7.8280 C.2       1 KSF         0.1148
     13 N6         24.6570   37.1220    8.6590 N.pl3     1 KSF        -0.2004
     14 C7         25.4730   37.8770    9.4050 C.2       1 KSF         0.1130
     15 N8         24.7490   38.8040   10.0580 N.2       1 KSF        -0.3252
     16 C9         23.4480   38.6800    9.7420 C.2       1 KSF        -0.0025
     17 C1         23.3870   37.5920    8.8160 C.2       1 KSF         0.1471
     18 C10        26.2600   35.4610    7.5660 C.ar      1 KSF         0.0103
     19 C11        26.5700   34.9720    6.2700 C.ar      1 KSF        -0.0547
     20 C12        27.8090   34.3590    5.9770 C.ar      1 KSF        -0.0641
     21 C13        28.7480   34.2180    7.0070 C.ar      1 KSF        -0.0645
     22 C14        28.4340   34.6650    8.3160 C.ar      1 KSF        -0.0641
     23 C15        27.2020   35.2850    8.5870 C.ar      1 KSF        -0.0547
     24 H1         18.9590   35.7329    8.8818 H         1 KSF         0.0537
     25 H2         17.0852   35.1537    7.3797 H         1 KSF         0.0589
     26 H3         16.9141   36.0637    5.0999 H         1 KSF         0.0521
     27 H4         18.6000   37.6980    4.2624 H         1 KSF         0.0593
     28 H5         20.7554   38.0711    9.0282 H         1 KSF         0.2185
     29 H6         24.0174   34.6560    6.5227 H         1 KSF         0.0705
     30 H7         26.5535   37.7592    9.4726 H         1 KSF         0.1181
     31 H8         22.6180   39.2800   10.1122 H         1 KSF         0.0463
     32 H9         25.8336   35.0719    5.4808 H         1 KSF         0.0601
     33 H10        28.0283   34.0052    4.9761 H         1 KSF         0.0610
     34 H11        29.7130   33.7680    6.8039 H         1 KSF         0.0594
     35 H12        29.1521   34.5269    9.1162 H         1 KSF         0.0610
     36 H13        26.9801   35.6285    9.5909 H         1 KSF         0.0601
@<TRIPOS>BOND
     1    1    2 1  
     2    2    3 ar 
     3    2    7 ar 
     4    3    4 ar 
     5    3    8 1  
     6    4    5 ar 
     7    5    6 ar 
     8    6    7 ar 
     9    8    9 1  
    10    9   10 2  
    11    9   17 1  
    12   10   11 1  
    13   11   12 2  
    14   12   13 1  
    15   12   18 1  
    16   13   14 1  
    17   13   17 1  
    18   14   15 2  
    19   15   16 1  
    20   16   17 2  
    21   18   19 ar 
    22   18   23 ar 
    23   19   20 ar 
    24   20   21 ar 
    25   21   22 ar 
    26   22   23 ar 
    27    4   24 1  
    28    5   25 1  
    29    6   26 1  
    30    7   27 1  
    31    8   28 1  
    32   11   29 1  
    33   14   30 1  
    34   16   31 1  
    35   19   32 1  
    36   20   33 1  
    37   21   34 1  
    38   22   35 1  
    39   23   36 1  
@<TRIPOS>SUBSTRUCTURE
     1 KSF         1

