### 
### Created by X-TOOL on Mon Sep 10 21:12:58 2018
### 

@<TRIPOS>MOLECULE
2zm3_ligand
   48    51     1     0     0
SMALL
GAST_HUCK


@<TRIPOS>ATOM
      1 C1         36.4120   82.2610   56.8940 C.ar      1 575        -0.0631
      2 C2         36.7360   80.9650   56.4760 C.ar      1 575        -0.0418
      3 C3         37.0630   79.9590   57.4040 C.ar      1 575         0.0648
      4 C4         37.0500   80.2940   58.7630 C.ar      1 575        -0.0418
      5 C5         36.7270   81.5860   59.1810 C.ar      1 575        -0.0631
      6 C6         36.4020   82.5830   58.2570 C.ar      1 575        -0.0086
      7 C7         36.0710   83.9680   58.7570 C.3       1 575        -0.0026
      8 N1         34.7390   84.5870   58.3920 N.4       1 575         0.2459
      9 C8         34.1360   85.4140   59.5140 C.3       1 575        -0.0305
     10 C9         32.6330   85.3730   59.2770 C.3       1 575        -0.0077
     11 C10        32.4320   84.5750   57.9980 C.3       1 575        -0.0077
     12 C11        33.6360   83.6560   57.9470 C.3       1 575        -0.0305
     13 N2         37.3850   78.6670   56.9450 N.pl3     1 575        -0.2605
     14 C12        38.0200   77.6780   57.6530 C.2       1 575         0.0630
     15 C13        38.5780   76.5060   57.2820 C.2       1 575         0.0714
     16 C14        39.0500   75.5440   58.3050 C.ar      1 575        -0.0107
     17 C15        39.2090   75.9110   59.6510 C.ar      1 575        -0.0512
     18 C16        39.6540   74.9990   60.6080 C.ar      1 575         0.0086
     19 C17        39.9510   73.6910   60.2410 C.ar      1 575        -0.0554
     20 C18        39.8020   73.3020   58.9140 C.ar      1 575        -0.0485
     21 C19        39.3530   74.2220   57.9480 C.ar      1 575         0.0513
     22 C20        39.2070   73.7750   56.5440 C.2       1 575         0.2250
     23 O1         39.4700   72.6230   56.2190 O.2       1 575        -0.3810
     24 N3         38.7640   74.7250   55.6360 N.am      1 575        -0.2063
     25 C21        38.4320   76.0540   55.8620 C.2       1 575         0.2069
     26 O2         38.0540   76.7950   54.9590 O.2       1 575        -0.3974
     27 BR1        39.8390   75.5820   62.4090 Br        1 575        -0.0486
     28 H1         36.1676   83.0193   56.1590 H         1 575         0.0534
     29 H2         36.7350   80.7319   55.4174 H         1 575         0.0531
     30 H3         37.2943   79.5391   59.5016 H         1 575         0.0531
     31 H4         36.7282   81.8199   60.2395 H         1 575         0.0534
     32 H5         36.8531   84.6420   58.3774 H         1 575         0.0960
     33 H6         36.1186   83.9329   59.8554 H         1 575         0.0960
     34 H7         34.9318   85.2060   57.6201 H         1 575         0.2046
     35 H8         34.5050   86.4494   59.4713 H         1 575         0.0814
     36 H9         34.3842   84.9763   60.4921 H         1 575         0.0814
     37 H10        32.2369   86.3922   59.1578 H         1 575         0.0319
     38 H11        32.1266   84.8790   60.1193 H         1 575         0.0319
     39 H12        32.4099   85.2396   57.1217 H         1 575         0.0319
     40 H13        31.4986   83.9946   58.0417 H         1 575         0.0319
     41 H14        33.5235   82.8065   58.6367 H         1 575         0.0814
     42 H15        33.8128   83.2804   56.9284 H         1 575         0.0814
     43 H16        37.1157   78.4410   55.9769 H         1 575         0.2257
     44 H17        38.0869   77.8771   58.7216 H         1 575         0.1259
     45 H18        38.9806   76.9266   59.9534 H         1 575         0.0586
     46 H19        40.2959   72.9802   60.9832 H         1 575         0.0582
     47 H20        40.0331   72.2840   58.6219 H         1 575         0.0651
     48 H21        38.6712   74.4104   54.6913 H         1 575         0.2235
@<TRIPOS>BOND
     1    1    2 ar 
     2    1    6 ar 
     3    2    3 ar 
     4    3    4 ar 
     5    3   13 1  
     6    4    5 ar 
     7    5    6 ar 
     8    6    7 1  
     9    7    8 1  
    10    8    9 1  
    11    8   12 1  
    12    9   10 1  
    13   10   11 1  
    14   11   12 1  
    15   13   14 1  
    16   14   15 2  
    17   15   16 1  
    18   15   25 1  
    19   16   17 ar 
    20   16   21 ar 
    21   17   18 ar 
    22   18   19 ar 
    23   18   27 1  
    24   19   20 ar 
    25   20   21 ar 
    26   21   22 1  
    27   22   23 2  
    28   22   24 am 
    29   24   25 am 
    30   25   26 2  
    31    1   28 1  
    32    2   29 1  
    33    4   30 1  
    34    5   31 1  
    35    7   32 1  
    36    7   33 1  
    37    8   34 1  
    38    9   35 1  
    39    9   36 1  
    40   10   37 1  
    41   10   38 1  
    42   11   39 1  
    43   11   40 1  
    44   12   41 1  
    45   12   42 1  
    46   13   43 1  
    47   14   44 1  
    48   17   45 1  
    49   19   46 1  
    50   20   47 1  
    51   24   48 1  
@<TRIPOS>SUBSTRUCTURE
     1 575         1

