### 
### Created by X-TOOL on Mon Sep 10 21:12:58 2018
### 

@<TRIPOS>MOLECULE
2zmd_ligand
   25    28     1     0     0
SMALL
GAST_HUCK


@<TRIPOS>ATOM
      1 C1        -34.3530  -15.2190   -9.1230 C.ar      1 537        -0.0582
      2 C2        -34.6840  -16.5450   -9.3830 C.ar      1 537        -0.0463
      3 C3        -35.4830  -16.8540  -10.4760 C.ar      1 537         0.0413
      4 C4        -35.9470  -15.8320  -11.3160 C.ar      1 537         0.0419
      5 C5        -35.6110  -14.5060  -11.0540 C.ar      1 537        -0.0451
      6 C6        -34.8140  -14.2010   -9.9560 C.ar      1 537        -0.0577
      7 C11       -36.6090  -18.5350  -11.8240 C.ar      1 537         0.0522
      8 C12       -36.8250  -19.8820  -11.9150 C.ar      1 537         0.0143
      9 C13       -37.6070  -20.3640  -12.9600 C.ar      1 537        -0.0500
     10 C14       -38.1510  -19.4600  -13.8830 C.ar      1 537        -0.0558
     11 C15       -37.9150  -18.0860  -13.7670 C.ar      1 537        -0.0428
     12 C16       -37.1300  -17.6200  -12.7180 C.ar      1 537         0.0462
     13 C20       -36.8080  -16.1830  -12.4900 C.2       1 537         0.1582
     14 C21       -35.8310  -18.1730  -10.7630 C.2       1 537         0.1439
     15 O22       -37.2430  -15.3030  -13.2600 O.2       1 537        -0.3709
     16 N23       -35.5250  -19.3330  -10.1330 N.pl3     1 537        -0.2282
     17 N24       -36.1470  -20.3950  -10.8550 N.2       1 537        -0.2860
     18 H1        -33.7330  -14.9761   -8.2676 H         1 537         0.0646
     19 H2        -34.3197  -17.3339   -8.7350 H         1 537         0.0634
     20 H3        -35.9692  -13.7152  -11.7031 H         1 537         0.0666
     21 H4        -34.5509  -13.1702   -9.7477 H         1 537         0.0617
     22 H5        -37.7936  -21.4272  -13.0594 H         1 537         0.0657
     23 H6        -38.7627  -19.8306  -14.6976 H         1 537         0.0629
     24 H7        -38.3385  -17.3936  -14.4855 H         1 537         0.0669
     25 H8        -34.9475  -19.4306   -9.2857 H         1 537         0.2909
@<TRIPOS>BOND
     1    2    1 ar 
     2    1    6 ar 
     3    3    2 ar 
     4    3    4 ar 
     5   14    3 1  
     6    4    5 ar 
     7    4   13 1  
     8    5    6 ar 
     9    7    8 ar 
    10    7   12 ar 
    11    7   14 2  
    12    8    9 ar 
    13    8   17 2  
    14    9   10 ar 
    15   10   11 ar 
    16   11   12 ar 
    17   12   13 1  
    18   13   15 2  
    19   14   16 1  
    20   16   17 1  
    21    1   18 1  
    22    2   19 1  
    23    5   20 1  
    24    6   21 1  
    25    9   22 1  
    26   10   23 1  
    27   11   24 1  
    28   16   25 1  
@<TRIPOS>SUBSTRUCTURE
     1 537         1

