### 
### Created by X-TOOL on Mon Sep 10 21:12:58 2018
### 

@<TRIPOS>MOLECULE
2zmj_ligand
   93    98     1     0     0
SMALL
GAST_HUCK


@<TRIPOS>ATOM
      1 C16        15.9100    6.6840   25.7460 C.3       1 MI4        -0.0455
      2 C21        14.5850    4.5710   27.3720 C.3       1 MI4        -0.0555
      3 C34         8.1980    3.2080   28.9670 C.3       1 MI4        -0.0444
      4 C15        16.2300    7.9030   24.8920 C.3       1 MI4        -0.0392
      5 C13        14.1760    8.3690   26.1370 C.3       1 MI4        -0.0146
      6 C28        14.0450   12.1420   17.3200 C.2       1 MI4        -0.1238
      7 C37         9.6320    4.0020   26.9970 C.3       1 MI4        -0.0444
      8 C14        15.4780    9.0070   25.6000 C.3       1 MI4        -0.0061
      9 C33         7.9110    1.8670   28.2090 C.3       1 MI4        -0.0400
     10 C35         9.3430    2.6720   26.2420 C.3       1 MI4        -0.0400
     11 C30         7.1530    4.5420   27.0680 C.3       1 MI4        -0.0444
     12 C8         15.1170   10.2730   24.8220 C.2       1 MI4        -0.0718
     13 C12        13.5710    9.4080   27.1530 C.3       1 MI4        -0.0430
     14 C18        13.1350    8.0280   25.0220 C.3       1 MI4        -0.0569
     15 C31         6.8430    3.2120   26.3010 C.3       1 MI4        -0.0400
     16 C11        13.4150   10.8460   26.5480 C.3       1 MI4        -0.0423
     17 C7         15.1880   10.3900   23.4590 C.2       1 MI4        -0.1089
     18 C32         6.6320    2.0500   27.3380 C.3       1 MI4        -0.0473
     19 C23        11.7390    6.4760   28.2690 C.2       1 MI4        -0.0960
     20 C22        13.0450    6.1830   28.3430 C.2       1 MI4        -0.0955
     21 C24        10.8720    6.7730   29.4530 C.3       1 MI4        -0.0102
     22 C25         9.8780    5.6510   29.6910 C.3       1 MI4         0.0621
     23 C20        13.8490    5.8930   27.1080 C.3       1 MI4        -0.0239
     24 C26         8.7540    5.7180   28.6480 C.3       1 MI4        -0.0196
     25 C17        14.8080    7.0790   26.7590 C.3       1 MI4        -0.0241
     26 C29         8.4360    4.3830   27.9440 C.3       1 MI4        -0.0260
     27 C3         15.1310   13.1380   19.2870 C.3       1 MI4         0.1023
     28 C9         14.6340   11.3530   25.7580 C.3       1 MI4        -0.0234
     29 C6         14.8460   11.6080   22.6940 C.2       1 MI4        -0.1086
     30 C36         8.0540    2.8600   25.3780 C.3       1 MI4        -0.0473
     31 C38         9.1170    1.5270   27.2810 C.3       1 MI4        -0.0473
     32 C5         14.8630   11.6660   21.3420 C.2       1 MI4        -0.0657
     33 C10        15.2060   10.4210   20.4710 C.3       1 MI4         0.0150
     34 C1         15.1970   10.5980   18.9360 C.3       1 MI4         0.1023
     35 C4         14.5010   12.9990   20.6700 C.3       1 MI4         0.0150
     36 C2         14.7500   11.9620   18.4500 C.2       1 MI4        -0.0127
     37 O3          9.3200    5.7990   30.9800 O.3       1 MI4        -0.3900
     38 O1         14.3680    9.5790   18.4080 O.3       1 MI4        -0.3742
     39 O2         16.5400   13.2010   19.4280 O.3       1 MI4        -0.3742
     40 H1         16.8123    6.3597   26.2851 H         1 MI4         0.0272
     41 H2         15.5509    5.8647   25.1059 H         1 MI4         0.0272
     42 H3         13.8531    3.7851   27.6099 H         1 MI4         0.0252
     43 H4         15.2748    4.6982   28.2193 H         1 MI4         0.0252
     44 H5         15.1541    4.2828   26.4759 H         1 MI4         0.0252
     45 H6          9.0950    3.0854   29.5918 H         1 MI4         0.0273
     46 H7          7.3369    3.4537   29.6058 H         1 MI4         0.0273
     47 H8         15.8672    7.7726   23.8618 H         1 MI4         0.0293
     48 H9         17.3112    8.1050   24.8772 H         1 MI4         0.0293
     49 H10        13.7491   13.1452   17.0168 H         1 MI4         0.0077
     50 H11        13.7696   11.2846   16.7076 H         1 MI4         0.0077
     51 H12         9.7803    4.8076   26.2629 H         1 MI4         0.0273
     52 H13        10.5443    3.8827   27.5998 H         1 MI4         0.0273
     53 H14        16.0996    9.3269   26.4492 H         1 MI4         0.0478
     54 H15         7.7580    1.0535   28.9334 H         1 MI4         0.0301
     55 H16        10.1935    2.4188   25.5919 H         1 MI4         0.0301
     56 H17         6.3008    4.7926   27.7167 H         1 MI4         0.0273
     57 H18         7.3101    5.3514   26.3399 H         1 MI4         0.0273
     58 H19        14.2342    9.4674   28.0286 H         1 MI4         0.0274
     59 H20        12.5790    9.0519   27.4678 H         1 MI4         0.0274
     60 H21        13.5728    7.3018   24.3213 H         1 MI4         0.0237
     61 H22        12.8660    8.9457   24.4784 H         1 MI4         0.0237
     62 H23        12.2336    7.5965   25.4815 H         1 MI4         0.0237
     63 H24         5.9350    3.3367   25.6928 H         1 MI4         0.0301
     64 H25        13.2290   11.5464   27.3755 H         1 MI4         0.0290
     65 H26        12.5480   10.8396   25.8711 H         1 MI4         0.0290
     66 H27        15.5218    9.5196   22.8961 H         1 MI4         0.0219
     67 H28         5.7805    2.2950   27.9898 H         1 MI4         0.0271
     68 H29         6.4232    1.1147   26.7980 H         1 MI4         0.0271
     69 H30        11.2782    6.4996   27.2826 H         1 MI4         0.0451
     70 H31        13.5320    6.1547   29.3166 H         1 MI4         0.0453
     71 H32        10.3225    7.7085   29.2715 H         1 MI4         0.0413
     72 H33        11.5063    6.8873   30.3444 H         1 MI4         0.0413
     73 H34        10.3918    4.6812   29.6172 H         1 MI4         0.0614
     74 H35        13.1656    5.7531   26.2575 H         1 MI4         0.0423
     75 H36         9.0457    6.4481   27.8787 H         1 MI4         0.0297
     76 H37         7.8400    6.0632   29.1533 H         1 MI4         0.0297
     77 H38        15.2880    7.3668   27.7060 H         1 MI4         0.0330
     78 H39        14.7694   14.0596   18.8075 H         1 MI4         0.0819
     79 H40        14.3486   12.2413   25.1754 H         1 MI4         0.0437
     80 H41        15.4398   11.6172   26.4586 H         1 MI4         0.0437
     81 H42        14.5662   12.5039   23.2464 H         1 MI4         0.0219
     82 H43         7.8398    1.9279   24.8346 H         1 MI4         0.0271
     83 H44         8.2132    3.6761   24.6578 H         1 MI4         0.0271
     84 H45         8.9100    0.5881   26.7466 H         1 MI4         0.0271
     85 H46        10.0234    1.4085   27.8929 H         1 MI4         0.0271
     86 H47        14.4752    9.6363   20.7161 H         1 MI4         0.0490
     87 H48        16.2138   10.0861   20.7578 H         1 MI4         0.0490
     88 H49        16.2233   10.4437   18.5715 H         1 MI4         0.0819
     89 H50        13.4073   13.0589   20.5686 H         1 MI4         0.0490
     90 H51        14.8560   13.8237   21.3054 H         1 MI4         0.0490
     91 H52        10.0117    5.7583   31.6299 H         1 MI4         0.2100
     92 H53        13.4717    9.7253   18.6869 H         1 MI4         0.2139
     93 H54        16.9395   13.2861   18.5703 H         1 MI4         0.2139
@<TRIPOS>BOND
     1    4    1 1  
     2   25    1 1  
     3   23    2 1  
     4    3    9 1  
     5   26    3 1  
     6    8    4 1  
     7    8    5 1  
     8    5   13 1  
     9    5   14 1  
    10    5   25 1  
    11   36    6 2  
    12    7   10 1  
    13   26    7 1  
    14   12    8 1  
    15    9   18 1  
    16    9   31 1  
    17   10   30 1  
    18   10   31 1  
    19   11   15 1  
    20   26   11 1  
    21   17   12 2  
    22   12   28 1  
    23   16   13 1  
    24   15   18 1  
    25   15   30 1  
    26   28   16 1  
    27   29   17 1  
    28   20   19 2  
    29   19   21 1  
    30   23   20 1  
    31   21   22 1  
    32   22   24 1  
    33   22   37 1  
    34   25   23 1  
    35   24   26 1  
    36   35   27 1  
    37   27   36 1  
    38   27   39 1  
    39   32   29 2  
    40   32   33 1  
    41   32   35 1  
    42   33   34 1  
    43   34   36 1  
    44   34   38 1  
    45    1   40 1  
    46    1   41 1  
    47    2   42 1  
    48    2   43 1  
    49    2   44 1  
    50    3   45 1  
    51    3   46 1  
    52    4   47 1  
    53    4   48 1  
    54    6   49 1  
    55    6   50 1  
    56    7   51 1  
    57    7   52 1  
    58    8   53 1  
    59    9   54 1  
    60   10   55 1  
    61   11   56 1  
    62   11   57 1  
    63   13   58 1  
    64   13   59 1  
    65   14   60 1  
    66   14   61 1  
    67   14   62 1  
    68   15   63 1  
    69   16   64 1  
    70   16   65 1  
    71   17   66 1  
    72   18   67 1  
    73   18   68 1  
    74   19   69 1  
    75   20   70 1  
    76   21   71 1  
    77   21   72 1  
    78   22   73 1  
    79   23   74 1  
    80   24   75 1  
    81   24   76 1  
    82   25   77 1  
    83   27   78 1  
    84   28   79 1  
    85   28   80 1  
    86   29   81 1  
    87   30   82 1  
    88   30   83 1  
    89   31   84 1  
    90   31   85 1  
    91   33   86 1  
    92   33   87 1  
    93   34   88 1  
    94   35   89 1  
    95   35   90 1  
    96   37   91 1  
    97   38   92 1  
    98   39   93 1  
@<TRIPOS>SUBSTRUCTURE
     1 MI4         1

