### 
### Created by X-TOOL on Mon Sep 10 21:12:57 2018
### 

@<TRIPOS>MOLECULE
2zmm_ligand
   52    54     1     0     0
SMALL
GAST_HUCK


@<TRIPOS>ATOM
      1 C1         50.0570   10.7540   -2.5090 C.3       1 35B         0.0205
      2 C2         49.6410    9.2770   -0.5530 C.2       1 35B         0.2895
      3 C3         47.3210    9.4030    0.3500 C.ar      1 35B         0.0700
      4 C4         46.2340    8.6670   -0.1410 C.ar      1 35B        -0.0408
      5 C5         44.9570    9.2310   -0.1530 C.ar      1 35B        -0.0742
      6 C6         44.7460   10.5240    0.3240 C.ar      1 35B        -0.0676
      7 N1         49.1950   10.2140   -1.4830 N.am      1 35B        -0.2708
      8 C7         45.8180   11.2740    0.8150 C.ar      1 35B        -0.0185
      9 O1         50.8010    8.8580   -0.5660 O.2       1 35B        -0.3903
     10 C8         47.0970   10.7070    0.8260 C.ar      1 35B        -0.0330
     11 C9         45.6110   12.6340    1.3100 C.2       1 35B         0.0446
     12 C10        46.1750   13.3160    2.3680 C.2       1 35B         0.0465
     13 C11        45.6830   14.6450    2.5200 C.2       1 35B         0.1015
     14 C12        44.7930   14.9560    1.5080 C.2       1 35B         0.0813
     15 C13        44.0370   16.3110    1.2730 C.2       1 35B         0.0555
     16 C14        47.3220   16.1890    3.2570 C.3       1 35B         0.1195
     17 C15        47.6360   17.0070    4.5180 C.2       1 35B         0.0648
     18 C16        48.9960    7.8730    1.4450 C.3       1 35B         0.0669
     19 C17        48.8670    6.4000    1.0090 C.3       1 35B        -0.0248
     20 C18        48.0750    5.5730    2.0210 C.3       1 35B        -0.0505
     21 C19        48.6020    5.7170    3.4480 C.3       1 35B        -0.0529
     22 C20        48.7840    7.1760    3.8620 C.3       1 35B        -0.0505
     23 C21        48.2940    8.1430    2.7840 C.3       1 35B        -0.0248
     24 N2         48.6560    8.8640    0.3800 N.am      1 35B        -0.2029
     25 S1         44.5220   13.6420    0.4520 S.3       1 35B        -0.0383
     26 O2         43.8980   17.1050    2.2490 O.co2     1 35B        -0.5699
     27 O3         43.6330   16.4930    0.0830 O.co2     1 35B        -0.5699
     28 O4         46.0740   15.5200    3.4910 O.3       1 35B        -0.3141
     29 O5         46.7510   17.0080    5.4220 O.co2     1 35B        -0.5663
     30 O6         48.7580   17.5880    4.5160 O.co2     1 35B        -0.5663
     31 BR1        47.4230   12.5860    3.5860 Br        1 35B        -0.0668
     32 H1         49.4919   11.4710   -3.1227 H         1 35B         0.0481
     33 H2         50.4253    9.9365   -3.1462 H         1 35B         0.0481
     34 H3         50.9100   11.2657   -2.0394 H         1 35B         0.0481
     35 H4         46.3849    7.6595   -0.5115 H         1 35B         0.0507
     36 H5         44.1210    8.6578   -0.5371 H         1 35B         0.0579
     37 H6         43.7485   10.9483    0.3140 H         1 35B         0.0501
     38 H7         48.2451   10.5235   -1.4387 H         1 35B         0.1849
     39 H8         47.9311   11.2839    1.2087 H         1 35B         0.0501
     40 H9         48.1180   15.4515    3.0771 H         1 35B         0.0780
     41 H10        47.2359   16.8554    2.3861 H         1 35B         0.0780
     42 H11        50.0678    8.0239    1.6414 H         1 35B         0.0619
     43 H12        49.8742    5.9694    0.9086 H         1 35B         0.0292
     44 H13        48.3527    6.3605    0.0374 H         1 35B         0.0292
     45 H14        48.1327    4.5136    1.7307 H         1 35B         0.0266
     46 H15        47.0257    5.9025    1.9993 H         1 35B         0.0266
     47 H16        49.5741    5.2070    3.5178 H         1 35B         0.0265
     48 H17        47.8883    5.2417    4.1369 H         1 35B         0.0265
     49 H18        49.8523    7.3621    4.0468 H         1 35B         0.0266
     50 H19        48.2151    7.3565    4.7860 H         1 35B         0.0266
     51 H20        47.2091    8.0171    2.6536 H         1 35B         0.0292
     52 H21        48.5080    9.1743    3.1012 H         1 35B         0.0292
@<TRIPOS>BOND
     1    7    1 1  
     2    2    7 am 
     3    2    9 2  
     4   24    2 am 
     5    3    4 ar 
     6    3   10 ar 
     7   24    3 1  
     8    4    5 ar 
     9    5    6 ar 
    10    8    6 ar 
    11   10    8 ar 
    12    8   11 1  
    13   11   12 2  
    14   11   25 1  
    15   12   13 1  
    16   12   31 1  
    17   14   13 2  
    18   13   28 1  
    19   14   15 1  
    20   25   14 1  
    21   15   26 ar 
    22   15   27 ar 
    23   16   17 1  
    24   28   16 1  
    25   17   29 ar 
    26   17   30 ar 
    27   18   19 1  
    28   18   23 1  
    29   18   24 1  
    30   19   20 1  
    31   20   21 1  
    32   21   22 1  
    33   22   23 1  
    34    1   32 1  
    35    1   33 1  
    36    1   34 1  
    37    4   35 1  
    38    5   36 1  
    39    6   37 1  
    40    7   38 1  
    41   10   39 1  
    42   16   40 1  
    43   16   41 1  
    44   18   42 1  
    45   19   43 1  
    46   19   44 1  
    47   20   45 1  
    48   20   46 1  
    49   21   47 1  
    50   21   48 1  
    51   22   49 1  
    52   22   50 1  
    53   23   51 1  
    54   23   52 1  
@<TRIPOS>SUBSTRUCTURE
     1 35B         1

