### 
### Created by X-TOOL on Mon Sep 10 21:12:57 2018
### 

@<TRIPOS>MOLECULE
2zn7_ligand
   57    60     1     0     0
SMALL
GAST_HUCK


@<TRIPOS>ATOM
      1 C1         48.5590   12.4160   -3.3400 C.ar      1 410        -0.0576
      2 C2         47.9770   11.1460   -3.3450 C.ar      1 410        -0.0562
      3 C3         48.3050   10.2140   -2.3520 C.ar      1 410        -0.0415
      4 C4         49.2250   10.5420   -1.3410 C.ar      1 410         0.0562
      5 C5         49.8070   11.8160   -1.3410 C.ar      1 410        -0.0415
      6 C6         49.4750   12.7430   -2.3360 C.ar      1 410        -0.0562
      7 C7         49.5540    9.5190   -0.2990 C.2       1 410         0.2349
      8 O1         50.6980    9.0630   -0.2960 O.2       1 410        -0.3728
      9 N1         48.5540    9.1150    0.6020 N.am      1 410        -0.2163
     10 C8         47.2420    9.6990    0.5700 C.ar      1 410         0.0695
     11 C9         46.1240    9.0360    0.0560 C.ar      1 410        -0.0404
     12 C10        44.8780    9.6670    0.0570 C.ar      1 410        -0.0739
     13 C11        44.7280   10.9630    0.5670 C.ar      1 410        -0.0674
     14 C12        45.8380   11.6510    1.0870 C.ar      1 410        -0.0183
     15 C13        47.0870   11.0050    1.0800 C.ar      1 410        -0.0326
     16 C14        45.7120   13.0190    1.6060 C.2       1 410         0.0446
     17 C15        46.2970   13.6400    2.6970 C.2       1 410         0.0465
     18 C16        45.9190   15.0020    2.8620 C.2       1 410         0.1015
     19 C17        45.0220   15.3700    1.8740 C.2       1 410         0.0813
     20 S1         44.6830   14.1060    0.7680 S.3       1 410        -0.0383
     21 C18        44.3410   16.7580    1.6490 C.2       1 410         0.0555
     22 O2         43.8310   16.8970    0.4990 O.co2     1 410        -0.5699
     23 O3         44.3330   17.5910    2.5970 O.co2     1 410        -0.5699
     24 O4         46.3510   15.8080    3.8840 O.3       1 410        -0.3141
     25 C19        47.5490   16.5590    3.6400 C.3       1 410         0.1195
     26 C20        47.8720   17.2790    4.9650 C.2       1 410         0.0648
     27 O5         48.9770   17.8700    5.0200 O.co2     1 410        -0.5663
     28 O6         47.0020   17.1990    5.8780 O.co2     1 410        -0.5663
     29 BR1        47.5090   12.8180    3.9060 Br        1 410        -0.0668
     30 C21        48.8730    8.0870    1.6430 C.3       1 410         0.0659
     31 C22        48.1310    6.7610    1.4280 C.3       1 410        -0.0246
     32 C23        48.6100    5.7150    2.4250 C.3       1 410        -0.0505
     33 C24        48.3070    6.1910    3.8420 C.3       1 410        -0.0529
     34 C25        49.0250    7.5090    4.1340 C.3       1 410        -0.0505
     35 C26        48.7350    8.5940    3.0870 C.3       1 410        -0.0246
     36 H1         48.3033   13.1394   -4.1057 H         1 410         0.0652
     37 H2         47.2682   10.8805   -4.1210 H         1 410         0.0629
     38 H3         47.8458    9.2321   -2.3633 H         1 410         0.0669
     39 H4         50.5172   12.0852   -0.5676 H         1 410         0.0669
     40 H5         49.9333   13.7253   -2.3278 H         1 410         0.0629
     41 H6         46.2239    8.0331   -0.3430 H         1 410         0.0509
     42 H7         44.0150    9.1466   -0.3424 H         1 410         0.0580
     43 H8         43.7530   11.4367    0.5606 H         1 410         0.0503
     44 H9         47.9524   11.5236    1.4765 H         1 410         0.0504
     45 H10        47.3845   17.2918    2.8363 H         1 410         0.0780
     46 H11        48.3725   15.8858    3.3595 H         1 410         0.0780
     47 H12        49.9407    7.8581    1.5100 H         1 410         0.0622
     48 H13        48.3213    6.4011    0.4061 H         1 410         0.0292
     49 H14        47.0517    6.9237    1.5644 H         1 410         0.0292
     50 H15        49.6942    5.5684    2.3109 H         1 410         0.0266
     51 H16        48.0897    4.7641    2.2380 H         1 410         0.0266
     52 H17        48.6455    5.4288    4.5592 H         1 410         0.0265
     53 H18        47.2223    6.3392    3.9490 H         1 410         0.0265
     54 H19        50.1087    7.3212    4.1534 H         1 410         0.0266
     55 H20        48.6986    7.8755    5.1184 H         1 410         0.0266
     56 H21        47.7073    8.9574    3.2342 H         1 410         0.0292
     57 H22        49.4421    9.4232    3.2365 H         1 410         0.0292
@<TRIPOS>BOND
     1    1    2 ar 
     2    1    6 ar 
     3    2    3 ar 
     4    3    4 ar 
     5    4    5 ar 
     6    4    7 1  
     7    5    6 ar 
     8    7    8 2  
     9    7    9 am 
    10    9   10 1  
    11    9   30 1  
    12   10   11 ar 
    13   10   15 ar 
    14   11   12 ar 
    15   12   13 ar 
    16   13   14 ar 
    17   14   15 ar 
    18   14   16 1  
    19   16   17 2  
    20   16   20 1  
    21   17   18 1  
    22   17   29 1  
    23   18   19 2  
    24   18   24 1  
    25   19   20 1  
    26   19   21 1  
    27   21   22 ar 
    28   21   23 ar 
    29   24   25 1  
    30   25   26 1  
    31   26   27 ar 
    32   26   28 ar 
    33   30   31 1  
    34   30   35 1  
    35   31   32 1  
    36   32   33 1  
    37   33   34 1  
    38   34   35 1  
    39    1   36 1  
    40    2   37 1  
    41    3   38 1  
    42    5   39 1  
    43    6   40 1  
    44   11   41 1  
    45   12   42 1  
    46   13   43 1  
    47   15   44 1  
    48   25   45 1  
    49   25   46 1  
    50   30   47 1  
    51   31   48 1  
    52   31   49 1  
    53   32   50 1  
    54   32   51 1  
    55   33   52 1  
    56   33   53 1  
    57   34   54 1  
    58   34   55 1  
    59   35   56 1  
    60   35   57 1  
@<TRIPOS>SUBSTRUCTURE
     1 410         1

