### 
### Created by X-TOOL on Mon Sep 10 21:13:00 2018
### 

@<TRIPOS>MOLECULE
2zns_ligand
   18    17     1     0     0
SMALL
GAST_HUCK


@<TRIPOS>ATOM
      1 N          20.3010   -1.8800   10.9680 N.4       1 GLU         0.2328
      2 CA         21.5960   -2.6680   10.8410 C.3       1 GLU         0.0298
      3 C          21.2320   -4.0760   10.4370 C.2       1 GLU         0.0845
      4 O          22.0780   -4.9660   10.3610 O.co2     1 GLU        -0.5643
      5 CB         22.3560   -2.7070   12.1990 C.3       1 GLU         0.0139
      6 CG         23.2200   -1.4750   12.4880 C.3       1 GLU         0.0069
      7 CD         24.4120   -1.3520   11.5310 C.2       1 GLU         0.0351
      8 OE1        24.7760   -2.3850   10.9700 O.co2     1 GLU        -0.5690
      9 OE2        24.9760   -0.2290   11.3710 O.co2     1 GLU        -0.5690
     10 OXT        20.0600   -4.3610   10.1410 O.co2     1 GLU        -0.5643
     11 H1         20.5099   -0.9315   11.2378 H         1 GLU         0.2010
     12 H2         19.7151   -2.3071   11.6682 H         1 GLU         0.2010
     13 H3         19.8199   -1.8791   10.0822 H         1 GLU         0.2010
     14 H4         22.2379   -2.2084   10.0751 H         1 GLU         0.1025
     15 H5         23.0102   -3.5913   12.1997 H         1 GLU         0.0356
     16 H6         21.6127   -2.8001   13.0045 H         1 GLU         0.0356
     17 H7         23.6009   -1.5456   13.5175 H         1 GLU         0.0433
     18 H8         22.5948   -0.5754   12.3892 H         1 GLU         0.0433
@<TRIPOS>BOND
     1    1    2 1  
     2    2    3 1  
     3    2    5 1  
     4    3    4 ar 
     5    3   10 ar 
     6    5    6 1  
     7    6    7 1  
     8    7    8 ar 
     9    7    9 ar 
    10    1   11 1  
    11    1   12 1  
    12    1   13 1  
    13    2   14 1  
    14    5   15 1  
    15    5   16 1  
    16    6   17 1  
    17    6   18 1  
@<TRIPOS>SUBSTRUCTURE
     1 GLU         1

