### 
### Created by X-TOOL on Mon Sep 10 21:13:00 2018
### 

@<TRIPOS>MOLECULE
2znt_ligand
   41    42     1     0     0
SMALL
GAST_HUCK


@<TRIPOS>ATOM
      1 CAA        20.1240    0.8320   14.2990 C.3       1 DYH        -0.0444
      2 NH         21.4030    1.4660   13.9610 N.4       1 DYH         0.2308
      3 CAH        22.5790    1.0120   14.7710 C.3       1 DYH         0.0349
      4 CAG        23.8100    1.8490   14.3520 C.3       1 DYH         0.1232
      5 OAC        23.9270    1.8970   12.9140 O.3       1 DYH        -0.3838
      6 CAP        25.1210    1.2810   14.9450 C.3       1 DYH         0.0794
      7 OAQ        25.2840   -0.0710   14.4180 O.3       1 DYH        -0.3710
      8 CAR        24.2680   -1.0020   14.8910 C.3       1 DYH         0.0923
      9 CAS        24.3330   -2.2850   14.0340 C.3       1 DYH         0.0103
     10 CAI        22.8470   -0.5090   14.5970 C.3       1 DYH         0.1293
     11 OAJ        22.6080   -0.8350   13.1880 O.3       1 DYH        -0.3574
     12 CAK        23.5340   -1.8870   12.7800 C.3       1 DYH         0.1231
     13 CAE        24.5020   -1.4140   11.6760 C.2       1 DYH         0.0769
     14 OAB        24.5490   -0.1820   11.4240 O.co2     1 DYH        -0.5451
     15 OAF        25.1600   -2.3010   11.0940 O.co2     1 DYH        -0.5451
     16 CB         22.6620   -3.0660   12.3170 C.3       1 DYH         0.0363
     17 CA         21.9450   -2.8420   10.9850 C.3       1 DYH         0.0305
     18 C          21.5120   -4.2310   10.4480 C.2       1 DYH         0.0844
     19 OXT        20.3060   -4.4090   10.1780 O.co2     1 DYH        -0.5643
     20 O          22.4090   -5.0950   10.2560 O.co2     1 DYH        -0.5643
     21 N          20.7470   -2.0030   11.1830 N.4       1 DYH         0.2327
     22 H1         19.3325    1.2341   13.6495 H         1 DYH         0.0777
     23 H2         19.8773    1.0416   15.3503 H         1 DYH         0.0777
     24 H3         20.2030   -0.2551   14.1506 H         1 DYH         0.0777
     25 H4         21.3012    2.4604   14.0909 H         1 DYH         0.2015
     26 H5         21.5997    1.2722   12.9916 H         1 DYH         0.2015
     27 H6         22.3679    1.2015   15.8338 H         1 DYH         0.0904
     28 H7         23.6722    2.8731   14.7291 H         1 DYH         0.0674
     29 H8         24.0248    1.0147   12.5757 H         1 DYH         0.2101
     30 H9         25.0565    1.2522   16.0427 H         1 DYH         0.0588
     31 H10        25.9733    1.9079   14.6440 H         1 DYH         0.0588
     32 H11        24.4112   -1.2074   15.9621 H         1 DYH         0.0624
     33 H12        23.8630   -3.1338   14.5523 H         1 DYH         0.0311
     34 H13        25.3720   -2.5408   13.7790 H         1 DYH         0.0311
     35 H14        22.1460   -1.0569   15.2438 H         1 DYH         0.0679
     36 H15        21.9012   -3.2542   13.0889 H         1 DYH         0.0359
     37 H16        23.3074   -3.9509   12.2148 H         1 DYH         0.0359
     38 H17        22.6240   -2.3537   10.2705 H         1 DYH         0.1024
     39 H18        20.2846   -1.8635   10.2983 H         1 DYH         0.2010
     40 H19        21.0209   -1.1106   11.5634 H         1 DYH         0.2010
     41 H20        20.1173   -2.4619   11.8225 H         1 DYH         0.2010
@<TRIPOS>BOND
     1    1    2 1  
     2    2    3 1  
     3    3    4 1  
     4    3   10 1  
     5    4    5 1  
     6    4    6 1  
     7    6    7 1  
     8    7    8 1  
     9    8    9 1  
    10    8   10 1  
    11    9   12 1  
    12   10   11 1  
    13   11   12 1  
    14   12   13 1  
    15   12   16 1  
    16   13   14 ar 
    17   13   15 ar 
    18   16   17 1  
    19   17   18 1  
    20   17   21 1  
    21   18   19 ar 
    22   18   20 ar 
    23    1   22 1  
    24    1   23 1  
    25    1   24 1  
    26    2   25 1  
    27    2   26 1  
    28    3   27 1  
    29    4   28 1  
    30    5   29 1  
    31    6   30 1  
    32    6   31 1  
    33    8   32 1  
    34    9   33 1  
    35    9   34 1  
    36   10   35 1  
    37   16   36 1  
    38   16   37 1  
    39   17   38 1  
    40   21   39 1  
    41   21   40 1  
    42   21   41 1  
@<TRIPOS>SUBSTRUCTURE
     1 DYH         1

