### 
### Created by X-TOOL on Mon Sep 10 21:13:00 2018
### 

@<TRIPOS>MOLECULE
2znu_ligand
   36    37     1     0     0
SMALL
GAST_HUCK


@<TRIPOS>ATOM
      1 O          20.3130   -4.2050   10.3510 O.co2     1 NDZ        -0.5643
      2 C          21.5280   -4.0600   10.5950 C.2       1 NDZ         0.0844
      3 OXT        22.4160   -4.9430   10.4850 O.co2     1 NDZ        -0.5643
      4 CA         21.9670   -2.6970   11.0970 C.3       1 NDZ         0.0305
      5 N          20.7760   -1.8810   11.3530 N.4       1 NDZ         0.2327
      6 CB         22.7350   -2.9500   12.4040 C.3       1 NDZ         0.0363
      7 CAJ        23.5720   -1.7280   12.8120 C.3       1 NDZ         0.1230
      8 CAD        24.5790   -1.3020   11.6850 C.2       1 NDZ         0.0769
      9 OAA        24.6650   -0.0890   11.3990 O.co2     1 NDZ        -0.5451
     10 OAE        25.2510   -2.2150   11.1440 O.co2     1 NDZ        -0.5451
     11 CAR        24.3220   -2.0680   14.1260 C.3       1 NDZ         0.0102
     12 OAI        22.6660   -0.6190   13.1200 O.3       1 NDZ        -0.3604
     13 CAH        22.7930   -0.3040   14.5350 C.3       1 NDZ         0.1129
     14 CAQ        24.2020   -0.7930   14.9570 C.3       1 NDZ         0.0894
     15 OAP        25.2510    0.0910   14.5080 O.3       1 NDZ        -0.3713
     16 CAO        25.0600    1.4670   14.9480 C.3       1 NDZ         0.0766
     17 CAF        23.7740    2.0710   14.3580 C.3       1 NDZ         0.1068
     18 OAB        23.8800    2.1570   12.9200 O.3       1 NDZ        -0.3869
     19 CAG        22.5440    1.2120   14.7480 C.3       1 NDZ         0.1115
     20 OAC        21.3490    1.6210   14.0130 O.3       1 NDZ        -0.3865
     21 H1         22.6136   -2.1979   10.3602 H         1 NDZ         0.1024
     22 H2         21.0567   -0.9724   11.6873 H         1 NDZ         0.2010
     23 H3         20.2025   -2.3323   12.0483 H         1 NDZ         0.2010
     24 H4         20.2500   -1.7772   10.4994 H         1 NDZ         0.2010
     25 H5         23.4049   -3.8111   12.2638 H         1 NDZ         0.0359
     26 H6         22.0142   -3.1727   13.2045 H         1 NDZ         0.0359
     27 H7         25.3768   -2.3060   13.9244 H         1 NDZ         0.0311
     28 H8         23.8465   -2.9164   14.6399 H         1 NDZ         0.0311
     29 H9         22.0381   -0.8593   15.1109 H         1 NDZ         0.0647
     30 H10        24.2721   -0.9694   16.0405 H         1 NDZ         0.0622
     31 H11        25.9206    2.0697   14.6224 H         1 NDZ         0.0586
     32 H12        24.9934    1.4859   16.0458 H         1 NDZ         0.0586
     33 H13        23.6408    3.0842   14.7650 H         1 NDZ         0.0643
     34 H14        24.0099    1.2873   12.5606 H         1 NDZ         0.2100
     35 H15        22.3552    1.3745   15.8194 H         1 NDZ         0.0647
     36 H16        21.1547    2.5304   14.2075 H         1 NDZ         0.2100
@<TRIPOS>BOND
     1    1    2 ar 
     2    2    3 ar 
     3    2    4 1  
     4    4    5 1  
     5    4    6 1  
     6    6    7 1  
     7    7    8 1  
     8    7   11 1  
     9    7   12 1  
    10    8    9 ar 
    11    8   10 ar 
    12   11   14 1  
    13   12   13 1  
    14   13   14 1  
    15   13   19 1  
    16   14   15 1  
    17   15   16 1  
    18   16   17 1  
    19   17   18 1  
    20   17   19 1  
    21   19   20 1  
    22    4   21 1  
    23    5   22 1  
    24    5   23 1  
    25    5   24 1  
    26    6   25 1  
    27    6   26 1  
    28   11   27 1  
    29   11   28 1  
    30   13   29 1  
    31   14   30 1  
    32   16   31 1  
    33   16   32 1  
    34   17   33 1  
    35   18   34 1  
    36   19   35 1  
    37   20   36 1  
@<TRIPOS>SUBSTRUCTURE
     1 NDZ         1

