### 
### Created by X-TOOL on Mon Sep 10 21:13:00 2018
### 

@<TRIPOS>MOLECULE
2zo3_ligand
   68    71     1     0     0
SMALL
GAST_HUCK


@<TRIPOS>ATOM
      1 C37        18.5960  -17.5430   24.9920 C.ar      1 33U        -0.0577
      2 C26        18.6290  -18.7390   25.7250 C.ar      1 33U        -0.0682
      3 C25        18.3040  -18.7250   27.0810 C.ar      1 33U        -0.0685
      4 C34        17.9470  -17.5430   27.7200 C.ar      1 33U        -0.0682
      5 C23        17.9150  -16.3500   26.9880 C.ar      1 33U        -0.0577
      6 C7         18.2380  -16.3490   25.6270 C.ar      1 33U        -0.0211
      7 C8         18.2260  -15.0720   24.7510 C.3       1 33U         0.0858
      8 C9         17.7610  -15.2520   23.2790 C.3       1 33U         0.0866
      9 C10        17.7230  -13.8800   22.6210 C.2       1 33U         0.2336
     10 N1         18.6110  -13.4510   21.6830 N.am      1 33U        -0.2468
     11 C14        18.4760  -12.1080   21.1290 C.3       1 33U         0.1339
     12 C15        17.1200  -12.0380   20.4430 C.2       1 33U         0.2037
     13 O22        16.7520  -13.0260   19.8230 O.2       1 33U        -0.3944
     14 N23        16.4550  -10.8700   20.5460 N.am      1 33U        -0.2737
     15 C16        15.1690  -10.8060   19.7930 C.3       1 33U         0.0645
     16 C17        14.0590  -10.6760   20.8370 C.ar      1 33U        -0.0210
     17 C22        13.6160  -11.8180   21.4860 C.ar      1 33U        -0.0584
     18 C21        12.6140  -11.7930   22.4460 C.ar      1 33U        -0.0633
     19 C24        12.0150  -10.5710   22.7850 C.ar      1 33U         0.0188
     20 C27        10.9220  -10.5600   23.8390 C.cat     1 33U         0.2318
     21 N35        10.2390  -11.6890   24.1310 N.pl3     1 33U        -0.2729
     22 N34        10.6440   -9.4830   24.4530 N.pl3     1 33U        -0.2729
     23 C19        12.4490   -9.4150   22.1440 C.ar      1 33U        -0.0633
     24 C18        13.4640   -9.4540   21.1730 C.ar      1 33U        -0.0584
     25 C13        19.5610  -12.1080   20.0100 C.3       1 33U        -0.0104
     26 C12        20.5050  -13.2450   20.4680 C.3       1 33U        -0.0281
     27 C11        19.5020  -14.3450   20.9290 C.3       1 33U         0.0371
     28 O32        16.8080  -13.1400   22.9930 O.2       1 33U        -0.3901
     29 N2         16.4490  -15.9680   23.1650 N.4       1 33U         0.2410
     30 C1         19.6290  -14.4240   24.8070 C.ar      1 33U        -0.0211
     31 C6         20.7220  -14.9670   24.1220 C.ar      1 33U        -0.0577
     32 C5         21.9730  -14.3330   24.2100 C.ar      1 33U        -0.0682
     33 C4         22.1540  -13.1820   24.9610 C.ar      1 33U        -0.0685
     34 C3         21.0620  -12.6360   25.6470 C.ar      1 33U        -0.0682
     35 C2         19.8190  -13.2660   25.5580 C.ar      1 33U        -0.0577
     36 H1         18.8470  -17.5442   23.9375 H         1 33U         0.0561
     37 H2         18.9055  -19.6683   25.2401 H         1 33U         0.0600
     38 H3         18.3301  -19.6500   27.6456 H         1 33U         0.0561
     39 H4         17.6959  -17.5451   28.7745 H         1 33U         0.0600
     40 H5         17.6388  -15.4233   27.4779 H         1 33U         0.0561
     41 H6         17.5140  -14.3749   25.2169 H         1 33U         0.0701
     42 H7         18.5125  -15.8625   22.7569 H         1 33U         0.1149
     43 H8         18.6126  -11.3097   21.8733 H         1 33U         0.0802
     44 H9         16.7986  -10.1027   21.0875 H         1 33U         0.1878
     45 H10        15.0289  -11.7231   19.2020 H         1 33U         0.0683
     46 H11        15.1642   -9.9336   19.1230 H         1 33U         0.0683
     47 H12        14.0706  -12.7691   21.2335 H         1 33U         0.0557
     48 H13        12.2971  -12.7100   22.9296 H         1 33U         0.0599
     49 H14         9.4991  -11.6726   24.8474 H         1 33U         0.3180
     50 H15        10.4583  -12.5659   23.6372 H         1 33U         0.3180
     51 H16        11.1602   -8.6185   24.2360 H         1 33U         0.3180
     52 H17         9.9025   -9.4744   25.1678 H         1 33U         0.3180
     53 H18        11.9947   -8.4644   22.3989 H         1 33U         0.0599
     54 H19        13.7854   -8.5407   20.6855 H         1 33U         0.0557
     55 H20        20.0894  -11.1442   19.9672 H         1 33U         0.0313
     56 H21        19.1196  -12.3282   19.0268 H         1 33U         0.0313
     57 H22        21.1477  -12.9186   21.2989 H         1 33U         0.0287
     58 H23        21.1321  -13.6009   19.6373 H         1 33U         0.0287
     59 H24        18.9943  -14.8350   20.0851 H         1 33U         0.0524
     60 H25        19.9739  -15.1076   21.5659 H         1 33U         0.0524
     61 H26        16.1977  -16.0562   22.1928 H         1 33U         0.2018
     62 H27        15.7372  -15.4443   23.6498 H         1 33U         0.2018
     63 H28        16.5298  -16.8850   23.5756 H         1 33U         0.2018
     64 H29        20.6048  -15.8673   23.5297 H         1 33U         0.0561
     65 H30        22.8177  -14.7546   23.6772 H         1 33U         0.0600
     66 H31        23.1285  -12.7105   25.0166 H         1 33U         0.0561
     67 H32        21.1801  -11.7359   26.2394 H         1 33U         0.0600
     68 H33        18.9755  -12.8408   26.0898 H         1 33U         0.0561
@<TRIPOS>BOND
     1    1    2 ar 
     2    1    6 ar 
     3    2    3 ar 
     4    3    4 ar 
     5    4    5 ar 
     6    5    6 ar 
     7    6    7 1  
     8    7    8 1  
     9    7   30 1  
    10    8    9 1  
    11    8   29 1  
    12    9   10 am 
    13    9   28 2  
    14   10   11 1  
    15   10   27 1  
    16   11   12 1  
    17   11   25 1  
    18   12   13 2  
    19   12   14 am 
    20   14   15 1  
    21   15   16 1  
    22   16   17 ar 
    23   16   24 ar 
    24   17   18 ar 
    25   18   19 ar 
    26   19   20 1  
    27   19   23 ar 
    28   20   21 ar 
    29   20   22 ar 
    30   23   24 ar 
    31   25   26 1  
    32   26   27 1  
    33   30   31 ar 
    34   30   35 ar 
    35   31   32 ar 
    36   32   33 ar 
    37   33   34 ar 
    38   34   35 ar 
    39    1   36 1  
    40    2   37 1  
    41    3   38 1  
    42    4   39 1  
    43    5   40 1  
    44    7   41 1  
    45    8   42 1  
    46   11   43 1  
    47   14   44 1  
    48   15   45 1  
    49   15   46 1  
    50   17   47 1  
    51   18   48 1  
    52   21   49 1  
    53   21   50 1  
    54   22   51 1  
    55   22   52 1  
    56   23   53 1  
    57   24   54 1  
    58   25   55 1  
    59   25   56 1  
    60   26   57 1  
    61   26   58 1  
    62   27   59 1  
    63   27   60 1  
    64   29   61 1  
    65   29   62 1  
    66   29   63 1  
    67   31   64 1  
    68   32   65 1  
    69   33   66 1  
    70   34   67 1  
    71   35   68 1  
@<TRIPOS>SUBSTRUCTURE
     1 33U         1

