### 
### Created by X-TOOL on Mon Sep 10 21:13:02 2018
### 

@<TRIPOS>MOLECULE
2zoq_ligand
   33    35     1     0     0
SMALL
GAST_HUCK


@<TRIPOS>ATOM
      1 O5'        26.7550    8.4290   14.9830 O.3       1 5ID        -0.3924
      2 C5'        27.6450    9.4940   15.0450 C.3       1 5ID         0.0730
      3 C4'        28.9610    9.1890   15.7230 C.3       1 5ID         0.1135
      4 O4'        28.8080    9.2050   17.1410 O.3       1 5ID        -0.3370
      5 C1'        29.7360    8.3050   17.6810 C.3       1 5ID         0.1971
      6 N9         29.0210    7.3310   18.4930 N.pl3     1 5ID        -0.2190
      7 C8         27.8390    6.7360   18.2180 C.2       1 5ID         0.0441
      8 C7         27.4570    5.8550   19.2650 C.2       1 5ID         0.0169
      9 C5         28.5470    5.9440   20.2410 C.ar      1 5ID         0.0529
     10 C6         28.9100    5.4230   21.4470 C.ar      1 5ID         0.1166
     11 N1         30.0810    5.8620   21.9880 N.ar      1 5ID        -0.2731
     12 C2         30.8730    6.7620   21.4100 C.ar      1 5ID         0.0503
     13 N3         30.5870    7.3120   20.2310 N.ar      1 5ID        -0.2765
     14 C4         29.4310    6.8810   19.6720 C.ar      1 5ID         0.1421
     15 N6         28.1770    4.5120   22.1140 N.pl3     1 5ID        -0.3158
     16 C2'        30.4110    7.6340   16.4650 C.3       1 5ID         0.1383
     17 O2'        31.4800    8.5240   16.1750 O.3       1 5ID        -0.3836
     18 C3'        29.4540    7.8250   15.2970 C.3       1 5ID         0.1146
     19 O3'        30.1940    7.8960   14.0610 O.3       1 5ID        -0.3864
     20 IAE        25.7510    4.7200   19.3300 I         1 5ID        -0.0795
     21 H1         25.9598    8.7074   14.5440 H         1 5ID         0.2095
     22 H2         27.1593   10.3128   15.5959 H         1 5ID         0.0584
     23 H3         27.8588    9.8202   14.0165 H         1 5ID         0.0584
     24 H4         29.6994    9.9501   15.4307 H         1 5ID         0.0647
     25 H5         30.4827    8.8285   18.2961 H         1 5ID         0.0994
     26 H6         27.2569    6.9089   17.3140 H         1 5ID         0.0985
     27 H7         31.7841    7.0583   21.9172 H         1 5ID         0.0976
     28 H8         28.5031    4.1542   23.0231 H         1 5ID         0.1825
     29 H9         27.2900    4.1727   21.7152 H         1 5ID         0.1825
     30 H10        30.7124    6.5895   16.6326 H         1 5ID         0.0676
     31 H11        31.9685    8.1977   15.4284 H         1 5ID         0.2101
     32 H12        28.6605    7.0654   15.2381 H         1 5ID         0.0648
     33 H13        30.6815    7.0898   13.9383 H         1 5ID         0.2100
@<TRIPOS>BOND
     1    1    2 1  
     2    2    3 1  
     3    3    4 1  
     4    3   18 1  
     5    4    5 1  
     6    5    6 1  
     7    5   16 1  
     8    6    7 1  
     9    6   14 1  
    10    7    8 2  
    11    8    9 1  
    12    8   20 1  
    13    9   10 ar 
    14    9   14 ar 
    15   10   11 ar 
    16   10   15 1  
    17   11   12 ar 
    18   12   13 ar 
    19   13   14 ar 
    20   16   17 1  
    21   16   18 1  
    22   18   19 1  
    23    1   21 1  
    24    2   22 1  
    25    2   23 1  
    26    3   24 1  
    27    5   25 1  
    28    7   26 1  
    29   12   27 1  
    30   15   28 1  
    31   15   29 1  
    32   16   30 1  
    33   17   31 1  
    34   18   32 1  
    35   19   33 1  
@<TRIPOS>SUBSTRUCTURE
     1 5ID         1

