### 
### Created by X-TOOL on Mon Sep 10 21:12:58 2018
### 

@<TRIPOS>MOLECULE
2zp0_ligand
   75    76     1     0     0
SMALL
GAST_HUCK


@<TRIPOS>ATOM
      1 C1         37.7220    6.7230   10.9840 C.3       1 PI0        -0.0072
      2 C2         35.6110    9.7150    5.1610 C.2       1 PI0         0.1737
      3 O3         36.2540    3.2850    9.7740 O.2       1 PI0        -0.1532
      4 C4         38.9330    5.8060   10.8910 C.3       1 PI0        -0.0495
      5 C6         39.9880    6.2720   11.8600 C.3       1 PI0        -0.0648
      6 C7         32.9390    2.1720    8.8700 C.ar      1 PI0        -0.0587
      7 C9         33.7780    3.8520   10.5420 C.3       1 PI0         0.1181
      8 C10        31.2830    0.5070    9.4880 C.ar      1 PI0        -0.0687
      9 C15        35.3300    6.8100   10.1440 C.2       1 PI0         0.2003
     10 C16        31.1550    6.5340   11.4590 C.ar      1 PI0        -0.0584
     11 C17        30.9500    6.2600   12.8200 C.ar      1 PI0        -0.0633
     12 C18        34.2450    8.1130    8.3960 C.3       1 PI0         0.1330
     13 C19        34.3920    8.5050    6.9350 C.3       1 PI0         0.0045
     14 C20        35.7250    9.1630    6.5900 C.3       1 PI0         0.0412
     15 C23        29.1460    7.8880   12.8930 C.ar      1 PI0        -0.0633
     16 C24        29.3660    8.1770   11.5270 C.ar      1 PI0        -0.0584
     17 C26        29.7640    6.6310   14.9810 C.cat     1 PI0         0.2318
     18 C28        32.9160    7.4030    8.6270 C.2       1 PI0         0.2036
     19 C32        30.6210    7.7730    9.3620 C.3       1 PI0         0.0645
     20 O1         34.5190    7.0780   11.0280 O.2       1 PI0        -0.3948
     21 N17        35.2990    7.2150    8.8510 N.am      1 PI0        -0.2639
     22 O30        32.7780    6.1940    8.4160 O.2       1 PI0        -0.3944
     23 N31        31.9660    8.2470    9.0810 N.am      1 PI0        -0.2737
     24 C22        29.9470    6.9280   13.5500 C.ar      1 PI0         0.0188
     25 C25        30.3690    7.4900   10.8030 C.ar      1 PI0        -0.0210
     26 N1         30.5820    5.8060   15.6200 N.pl3     1 PI0        -0.2729
     27 O2         35.3800    8.9570    4.2200 O.2       1 PI0        -0.3973
     28 N3         35.6690   11.0720    5.0450 N.am      1 PI0        -0.3009
     29 N4         36.1380    4.9730   11.4810 N.am      1 PI0        -0.2278
     30 C5         36.5210    5.9300   10.4510 C.3       1 PI0         0.1287
     31 C3         37.9500    8.0800   10.2670 C.3       1 PI0        -0.0586
     32 S1         35.4490    3.5280   10.9180 S.o2      1 PI0         0.0511
     33 O4         35.5270    2.6520   12.0380 O.2       1 PI0        -0.1532
     34 C8         32.9410    2.6750   10.1920 C.ar      1 PI0        -0.0204
     35 C12        32.1010    1.1020    8.5150 C.ar      1 PI0        -0.0685
     36 C11        31.2970    0.9940   10.8130 C.ar      1 PI0        -0.0685
     37 C13        32.1230    2.0830   11.1650 C.ar      1 PI0        -0.0587
     38 N2         28.8150    7.2110   15.7040 N.pl3     1 PI0        -0.2729
     39 H1         37.5382    6.9476   12.0450 H         1 PI0         0.0341
     40 H2         39.3364    5.8332    9.8680 H         1 PI0         0.0267
     41 H3         38.6344    4.7771   11.1402 H         1 PI0         0.0267
     42 H4         40.8642    5.6103   11.7942 H         1 PI0         0.0230
     43 H5         39.5841    6.2449   12.8828 H         1 PI0         0.0230
     44 H6         40.2861    7.3010   11.6106 H         1 PI0         0.0230
     45 H7         33.5893    2.6158    8.1249 H         1 PI0         0.0557
     46 H8         33.7550    4.5451    9.6882 H         1 PI0         0.0682
     47 H9         33.3249    4.3361   11.4197 H         1 PI0         0.0682
     48 H10        30.6413   -0.3254    9.2224 H         1 PI0         0.0559
     49 H11        31.9258    6.0029   10.9124 H         1 PI0         0.0557
     50 H12        31.5720    5.5241   13.3166 H         1 PI0         0.0599
     51 H13        34.2761    9.0308    9.0016 H         1 PI0         0.0801
     52 H14        33.5855    9.2100    6.6851 H         1 PI0         0.0337
     53 H15        34.2880    7.5969    6.3230 H         1 PI0         0.0337
     54 H16        35.9326    9.9825    7.2938 H         1 PI0         0.0504
     55 H17        36.5350    8.4206    6.6424 H         1 PI0         0.0504
     56 H18        28.3623    8.4033   13.4365 H         1 PI0         0.0599
     57 H19        28.7630    8.9291   11.0313 H         1 PI0         0.0557
     58 H20        30.4544    6.8465    8.7929 H         1 PI0         0.0683
     59 H21        29.9068    8.5408    9.0299 H         1 PI0         0.0683
     60 H22        35.9982    6.8982    8.2101 H         1 PI0         0.1883
     61 H23        32.1902    9.2107    9.2259 H         1 PI0         0.1878
     62 H24        30.4378    5.6107   16.6210 H         1 PI0         0.3180
     63 H25        31.3616    5.3604   15.1154 H         1 PI0         0.3180
     64 H26        35.6012   11.5001    4.1438 H         1 PI0         0.1814
     65 H27        35.7793   11.6393    5.8611 H         1 PI0         0.1814
     66 H28        36.2723    5.1557   12.4550 H         1 PI0         0.1704
     67 H29        36.8174    5.3981    9.5349 H         1 PI0         0.0756
     68 H30        38.8243    8.5837   10.7049 H         1 PI0         0.0234
     69 H31        37.0604    8.7148   10.3920 H         1 PI0         0.0234
     70 H32        38.1270    7.9035    9.1958 H         1 PI0         0.0234
     71 H33        32.0862    0.7375    7.4942 H         1 PI0         0.0599
     72 H34        30.6696    0.5287   11.5646 H         1 PI0         0.0599
     73 H35        32.1250    2.4595   12.1815 H         1 PI0         0.0557
     74 H36        28.1523    7.8610   15.2576 H         1 PI0         0.3180
     75 H37        28.7408    7.0113   16.7117 H         1 PI0         0.3180
@<TRIPOS>BOND
     1    1    4 1  
     2   30    1 1  
     3    1   31 1  
     4   14    2 1  
     5    2   27 2  
     6    2   28 am 
     7   32    3 2  
     8    4    5 1  
     9   34    6 ar 
    10    6   35 ar 
    11   32    7 1  
    12    7   34 1  
    13   35    8 ar 
    14    8   36 ar 
    15    9   20 2  
    16    9   21 am 
    17   30    9 1  
    18   10   11 ar 
    19   25   10 ar 
    20   11   24 ar 
    21   12   13 1  
    22   12   18 1  
    23   21   12 1  
    24   13   14 1  
    25   16   15 ar 
    26   15   24 ar 
    27   25   16 ar 
    28   24   17 1  
    29   17   26 ar 
    30   17   38 ar 
    31   18   22 2  
    32   18   23 am 
    33   23   19 1  
    34   19   25 1  
    35   29   30 1  
    36   29   32 am 
    37   32   33 2  
    38   34   37 ar 
    39   36   37 ar 
    40    1   39 1  
    41    4   40 1  
    42    4   41 1  
    43    5   42 1  
    44    5   43 1  
    45    5   44 1  
    46    6   45 1  
    47    7   46 1  
    48    7   47 1  
    49    8   48 1  
    50   10   49 1  
    51   11   50 1  
    52   12   51 1  
    53   13   52 1  
    54   13   53 1  
    55   14   54 1  
    56   14   55 1  
    57   15   56 1  
    58   16   57 1  
    59   19   58 1  
    60   19   59 1  
    61   21   60 1  
    62   23   61 1  
    63   26   62 1  
    64   26   63 1  
    65   28   64 1  
    66   28   65 1  
    67   29   66 1  
    68   30   67 1  
    69   31   68 1  
    70   31   69 1  
    71   31   70 1  
    72   35   71 1  
    73   36   72 1  
    74   37   73 1  
    75   38   74 1  
    76   38   75 1  
@<TRIPOS>SUBSTRUCTURE
     1 PI0         1

