### 
### Created by X-TOOL on Fri Sep 26 17:34:39 2014
### 

@<TRIPOS>MOLECULE
2zpk_ligand
  109   111     1     0     0
SMALL
GAST_HUCK


@<TRIPOS>ATOM
      1 N           8.0430  -20.4160   56.5600 N.4       1 PRO         0.2461
      2 CA          7.3040  -19.1660   56.4330 C.3       1 PRO         0.0669
      3 C           6.0200  -19.3130   55.6130 C.2       1 PRO         0.2268
      4 O           5.8560  -20.3000   54.8860 O.2       1 PRO        -0.3907
      5 CB          8.2900  -18.2650   55.6780 C.3       1 PRO         0.0127
      6 CG          9.1000  -19.2040   54.8370 C.3       1 PRO        -0.0053
      7 CD          9.1700  -20.5020   55.6100 C.3       1 PRO        -0.0313
      8 N           5.1270  -18.3300   55.7300 N.am      1 PRO        -0.2613
      9 CA          3.9620  -18.2190   54.8540 C.3       1 PRO         0.1283
     10 C           4.4460  -17.9090   53.4380 C.2       1 PRO         0.2034
     11 O           5.3050  -17.0390   53.2540 O.2       1 PRO        -0.3944
     12 CB          3.0210  -17.1180   55.3500 C.3       1 PRO        -0.0244
     13 N           3.8940  -18.6140   52.4510 N.am      1 PRO        -0.2664
     14 CA          4.4100  -18.5940   51.0840 C.3       1 PRO         0.1201
     15 C           4.4260  -17.2360   50.4030 C.2       1 PRO         0.2009
     16 O           3.6280  -16.3620   50.7230 O.2       1 PRO        -0.3947
     17 N           5.3490  -17.0630   49.4600 N.am      1 PRO        -0.2624
     18 CA          5.4510  -15.8360   48.6620 C.3       1 PRO         0.1392
     19 C           4.6830  -16.0590   47.3760 C.2       1 PRO         0.2082
     20 O           4.9710  -17.0310   46.6700 O.2       1 PRO        -0.3940
     21 CB          6.9070  -15.5780   48.2950 C.3       1 PRO         0.0164
     22 CG          7.1190  -14.3830   47.3870 C.ar      1 PRO        -0.0493
     23 CD1         6.8310  -13.0870   47.8250 C.ar      1 PRO        -0.0685
     24 CD2         7.6320  -14.5540   46.0920 C.ar      1 PRO        -0.0685
     25 CE1         7.0350  -11.9890   46.9970 C.ar      1 PRO        -0.0398
     26 CE2         7.8640  -13.4610   45.2600 C.ar      1 PRO        -0.0398
     27 CZ          7.5580  -12.1870   45.7130 C.ar      1 PRO         0.0805
     28 OH          7.7810  -11.1000   44.8860 O.3       1 PRO        -0.3376
     29 N           3.7020  -15.1880   47.0720 N.am      1 PRO        -0.2497
     30 CA          2.8250  -15.4710   45.9290 C.3       1 PRO         0.1338
     31 C           3.3670  -15.0530   44.5550 C.2       1 PRO         0.2039
     32 O           2.6560  -15.1950   43.5560 O.2       1 PRO        -0.3944
     33 CB          1.5370  -14.7090   46.2730 C.3       1 PRO        -0.0104
     34 CG          1.9870  -13.5690   47.1300 C.3       1 PRO        -0.0281
     35 CD          3.3070  -13.9530   47.7790 C.3       1 PRO         0.0369
     36 N           4.6020  -14.5570   44.5110 N.am      1 PRO        -0.2664
     37 CA          5.2420  -14.1340   43.2690 C.3       1 PRO         0.1201
     38 C           5.7950  -15.3120   42.4940 C.2       1 PRO         0.2007
     39 O           5.8000  -16.4360   43.0050 O.2       1 PRO        -0.3947
     40 N           6.2370  -15.0670   41.2580 N.am      1 PRO        -0.2638
     41 CA          6.7170  -16.1430   40.3820 C.3       1 PRO         0.1330
     42 C           8.2140  -16.3830   40.5980 C.2       1 PRO         0.2035
     43 O           9.0680  -15.6570   40.0640 O.2       1 PRO        -0.3944
     44 CB          6.4270  -15.8390   38.9050 C.3       1 PRO         0.0045
     45 CG          6.9040  -16.9190   37.9230 C.3       1 PRO         0.0412
     46 CD          7.0470  -16.3910   36.4980 C.2       1 PRO         0.1737
     47 OE1         6.8890  -15.1920   36.2510 O.2       1 PRO        -0.3973
     48 NE2         7.3910  -17.2650   35.5790 N.am      1 PRO        -0.3009
     49 N           8.5010  -17.4000   41.4140 N.am      1 PRO        -0.2692
     50 CA          9.8660  -17.7830   41.7760 C.3       1 PRO         0.0967
     51 C          10.0560  -19.2620   41.4370 C.2       1 PRO         0.0603
     52 O           9.0850  -20.0250   41.3520 O.co2     1 PRO        -0.5666
     53 CB         10.1430  -17.5180   43.2960 C.3       1 PRO        -0.0118
     54 CG1        11.5200  -18.0130   43.7210 C.3       1 PRO        -0.0590
     55 CG2        10.0320  -16.0460   43.6100 C.3       1 PRO        -0.0590
     56 OXT        11.1760  -19.7310   41.2330 O.co2     1 PRO        -0.5666
     57 H1          7.4133  -21.1836   56.3857 H         1 PRO         0.2035
     58 H2          8.4046  -20.4845   57.4984 H         1 PRO         0.2035
     59 H3          7.0606  -18.7551   57.4239 H         1 PRO         0.1099
     60 H4          8.9358  -17.7212   56.3830 H         1 PRO         0.0347
     61 H5          7.7505  -17.5452   55.0449 H         1 PRO         0.0347
     62 H6         10.1103  -18.7994   54.6775 H         1 PRO         0.0320
     63 H7          8.6114  -19.3643   53.8646 H         1 PRO         0.0320
     64 H8          9.0491  -21.3640   54.9375 H         1 PRO         0.0814
     65 H9         10.1270  -20.5863   56.1458 H         1 PRO         0.0814
     66 H10         5.2591  -17.6425   56.4441 H         1 PRO         0.1884
     67 H11         3.4191  -19.1756   54.8503 H         1 PRO         0.0797
     68 H12         2.1516  -17.0492   54.6796 H         1 PRO         0.0277
     69 H13         3.5544  -16.1560   55.3585 H         1 PRO         0.0277
     70 H14         2.6807  -17.3576   56.3682 H         1 PRO         0.0277
     71 H15         3.0946  -19.1794   52.6540 H         1 PRO         0.1881
     72 H16         3.7867  -19.2680   50.4781 H         1 PRO         0.0763
     73 H17         5.4428  -18.9719   51.1075 H         1 PRO         0.0763
     74 H18         6.0012  -17.8012   49.2879 H         1 PRO         0.1885
     75 H19         5.0397  -14.9814   49.2192 H         1 PRO         0.0821
     76 H20         7.2974  -16.4713   47.7855 H         1 PRO         0.0453
     77 H21         7.4717  -15.4094   49.2238 H         1 PRO         0.0453
     78 H22         6.4426  -12.9359   48.8257 H         1 PRO         0.0530
     79 H23         7.8514  -15.5531   45.7332 H         1 PRO         0.0530
     80 H24         6.7919  -10.9904   47.3415 H         1 PRO         0.0525
     81 H25         8.2793  -13.6051   44.2691 H         1 PRO         0.0525
     82 H26         7.5234  -10.3036   45.3353 H         1 PRO         0.2458
     83 H27         2.6232  -16.5516   45.8908 H         1 PRO         0.0802
     84 H28         0.8388  -15.3563   46.8240 H         1 PRO         0.0313
     85 H29         1.0498  -14.3383   45.3591 H         1 PRO         0.0313
     86 H30         1.2349  -13.3681   47.9071 H         1 PRO         0.0287
     87 H31         2.1242  -12.6699   46.5113 H         1 PRO         0.0287
     88 H32         4.0583  -13.1624   47.6361 H         1 PRO         0.0524
     89 H33         3.1742  -14.1426   48.8544 H         1 PRO         0.0524
     90 H34         5.1133  -14.4705   45.3660 H         1 PRO         0.1881
     91 H35         6.0665  -13.4466   43.5090 H         1 PRO         0.0763
     92 H36         4.5005  -13.6135   42.6452 H         1 PRO         0.0763
     93 H37         6.2412  -14.1258   40.9201 H         1 PRO         0.1883
     94 H38         6.1797  -17.0645   40.6505 H         1 PRO         0.0801
     95 H39         6.9268  -14.8943   38.6448 H         1 PRO         0.0337
     96 H40         5.3396  -15.7235   38.7858 H         1 PRO         0.0337
     97 H41         6.1746  -17.7424   37.9226 H         1 PRO         0.0504
     98 H42         7.8814  -17.2950   38.2596 H         1 PRO         0.0504
     99 H43         7.4992  -16.9745   34.6283 H         1 PRO         0.1814
    100 H44         7.5446  -18.2206   35.8304 H         1 PRO         0.1814
    101 H45         7.7433  -17.9277   41.7979 H         1 PRO         0.1875
    102 H46        10.5743  -17.1854   41.1834 H         1 PRO         0.0729
    103 H47         9.3845  -18.0600   43.8798 H         1 PRO         0.0336
    104 H48        11.6696  -17.8066   44.7910 H         1 PRO         0.0234
    105 H49        12.2931  -17.4936   43.1358 H         1 PRO         0.0234
    106 H50        11.5913  -19.0962   43.5431 H         1 PRO         0.0234
    107 H51         9.0401  -15.6801   43.3062 H         1 PRO         0.0234
    108 H52        10.8100  -15.4944   43.0619 H         1 PRO         0.0234
    109 H53        10.1648  -15.8906   44.6908 H         1 PRO         0.0234
@<TRIPOS>BOND
     1    1    2 1  
     2    1    7 1  
     3    2    3 1  
     4    2    5 1  
     5    3    4 2  
     6    3    8 am 
     7    5    6 1  
     8    6    7 1  
     9    8    9 1  
    10    9   10 1  
    11    9   12 1  
    12   10   11 2  
    13   10   13 am 
    14   13   14 1  
    15   14   15 1  
    16   15   16 2  
    17   15   17 am 
    18   17   18 1  
    19   18   19 1  
    20   18   21 1  
    21   19   20 2  
    22   19   29 am 
    23   21   22 1  
    24   22   23 ar 
    25   22   24 ar 
    26   23   25 ar 
    27   24   26 ar 
    28   25   27 ar 
    29   26   27 ar 
    30   27   28 1  
    31   29   30 1  
    32   29   35 1  
    33   30   31 1  
    34   30   33 1  
    35   31   32 2  
    36   31   36 am 
    37   33   34 1  
    38   34   35 1  
    39   36   37 1  
    40   37   38 1  
    41   38   39 2  
    42   38   40 am 
    43   40   41 1  
    44   41   42 1  
    45   41   44 1  
    46   42   43 2  
    47   42   49 am 
    48   44   45 1  
    49   45   46 1  
    50   46   47 2  
    51   46   48 am 
    52   49   50 1  
    53   50   51 1  
    54   50   53 1  
    55   51   52 ar 
    56   51   56 ar 
    57   53   54 1  
    58   53   55 1  
    59    1   57 1  
    60    1   58 1  
    61    2   59 1  
    62    5   60 1  
    63    5   61 1  
    64    6   62 1  
    65    6   63 1  
    66    7   64 1  
    67    7   65 1  
    68    8   66 1  
    69    9   67 1  
    70   12   68 1  
    71   12   69 1  
    72   12   70 1  
    73   13   71 1  
    74   14   72 1  
    75   14   73 1  
    76   17   74 1  
    77   18   75 1  
    78   21   76 1  
    79   21   77 1  
    80   23   78 1  
    81   24   79 1  
    82   25   80 1  
    83   26   81 1  
    84   28   82 1  
    85   30   83 1  
    86   33   84 1  
    87   33   85 1  
    88   34   86 1  
    89   34   87 1  
    90   35   88 1  
    91   35   89 1  
    92   36   90 1  
    93   37   91 1  
    94   37   92 1  
    95   40   93 1  
    96   41   94 1  
    97   44   95 1  
    98   44   96 1  
    99   45   97 1  
   100   45   98 1  
   101   48   99 1  
   102   48  100 1  
   103   49  101 1  
   104   50  102 1  
   105   53  103 1  
   106   54  104 1  
   107   54  105 1  
   108   54  106 1  
   109   55  107 1  
   110   55  108 1  
   111   55  109 1  
@<TRIPOS>SUBSTRUCTURE
     1 PRO         1

