### 
### Created by X-TOOL on Mon Sep 10 21:12:57 2018
### 

@<TRIPOS>MOLECULE
2zq0_ligand
   88    91     1     0     0
SMALL
GAST_HUCK


@<TRIPOS>ATOM
      1 C1A        31.8660   51.7960   36.1020 C.3       1 ACR         0.0141
      2 C2A        32.3290   50.6950   35.0560 C.3       1 ACR         0.1303
      3 C3A        31.2340   49.6430   34.6820 C.3       1 ACR         0.1215
      4 C4A        30.7630   48.8510   35.9860 C.3       1 ACR         0.1112
      5 C5A        30.8060   49.6760   37.3120 C.2       1 ACR        -0.0200
      6 C6A        30.3440   48.9850   38.5690 C.3       1 ACR         0.0719
      7 C7A        31.2950   51.0120   37.3460 C.2       1 ACR        -0.0543
      8 O2A        32.8230   51.4420   33.9640 O.3       1 ACR        -0.3821
      9 O3A        31.8060   48.8000   33.7360 O.3       1 ACR        -0.3843
     10 O4A        29.4940   48.3220   35.6130 O.3       1 ACR        -0.3780
     11 O6A        31.1980   48.1790   39.3810 O.3       1 ACR        -0.3839
     12 C1B        29.0210   56.2950   37.2250 C.3       1 ACR         0.1886
     13 C2B        30.5550   56.2750   37.1420 C.3       1 ACR         0.1370
     14 C3B        31.0260   55.2620   36.0780 C.3       1 ACR         0.1304
     15 C4B        30.4810   53.8540   36.4800 C.3       1 ACR         0.0341
     16 C5B        28.9120   53.9460   36.4870 C.3       1 ACR         0.1038
     17 C6B        28.2460   52.6130   36.8570 C.3       1 ACR        -0.0332
     18 N4B        30.9420   52.8350   35.5190 N.4       1 ACR         0.2433
     19 O2B        31.0140   57.6030   36.8580 O.3       1 ACR        -0.3840
     20 O3B        32.4550   55.2690   36.0380 O.3       1 ACR        -0.3834
     21 O5B        28.4780   54.9510   37.4680 O.3       1 ACR        -0.3401
     22 C1C        25.6090   60.0580   35.7110 C.3       1 ACR         0.1884
     23 C2C        27.1160   60.3990   35.8020 C.3       1 ACR         0.1341
     24 C3C        27.9640   59.1700   35.4410 C.3       1 ACR         0.1144
     25 C4C        27.6160   58.0150   36.3960 C.3       1 ACR         0.1184
     26 C5C        26.0850   57.6920   36.2290 C.3       1 ACR         0.1134
     27 C6C        25.6350   56.5440   37.1520 C.3       1 ACR         0.0730
     28 O2C        27.4090   61.4990   34.9190 O.3       1 ACR        -0.3841
     29 O3C        29.3520   59.5030   35.5650 O.3       1 ACR        -0.3864
     30 O4C        28.4270   56.8750   36.0530 O.3       1 ACR        -0.3401
     31 O5C        25.2860   58.9000   36.5650 O.3       1 ACR        -0.3405
     32 O6C        25.8610   56.8940   38.5250 O.3       1 ACR        -0.3924
     33 C1D        21.3960   60.9040   32.5120 C.3       1 ACR         0.1854
     34 C2D        22.3500   62.0350   33.0190 C.3       1 ACR         0.1339
     35 C3D        23.7820   61.4930   33.1910 C.3       1 ACR         0.1144
     36 C4D        23.7770   60.3200   34.1850 C.3       1 ACR         0.1184
     37 C5D        22.8020   59.2030   33.6580 C.3       1 ACR         0.1134
     38 C6D        22.6960   58.0340   34.6600 C.3       1 ACR         0.0730
     39 O1D        21.7710   60.4620   31.2040 O.3       1 ACR        -0.3649
     40 O2D        22.3540   63.1370   32.0900 O.3       1 ACR        -0.3841
     41 O3D        24.6510   62.5340   33.6660 O.3       1 ACR        -0.3864
     42 O4D        25.1440   59.8410   34.3510 O.3       1 ACR        -0.3401
     43 O5D        21.4360   59.7650   33.4630 O.3       1 ACR        -0.3407
     44 O6D        22.0770   58.4580   35.8830 O.3       1 ACR        -0.3924
     45 H1         32.7620   52.3393   36.4367 H         1 ACR         0.0950
     46 H2         33.1639   50.1295   35.4955 H         1 ACR         0.0694
     47 H3         30.3626   50.1502   34.2423 H         1 ACR         0.0671
     48 H4         31.4494   48.0053   36.1397 H         1 ACR         0.0769
     49 H5         29.5125   48.3319   38.2656 H         1 ACR         0.0706
     50 H6         29.9644   49.7800   39.2277 H         1 ACR         0.0706
     51 H7         31.2734   51.5321   38.3025 H         1 ACR         0.0299
     52 H8         32.1083   51.9192   33.5590 H         1 ACR         0.2103
     53 H9         32.0714   49.3091   32.9791 H         1 ACR         0.2102
     54 H10        29.1826   47.7383   36.2949 H         1 ACR         0.2130
     55 H11        31.9228   48.7058   39.6964 H         1 ACR         0.2125
     56 H12        28.7464   56.9261   38.0831 H         1 ACR         0.0938
     57 H13        30.9605   55.9643   38.1162 H         1 ACR         0.0672
     58 H14        30.6313   55.5416   35.0901 H         1 ACR         0.0679
     59 H15        30.8407   53.5887   37.4851 H         1 ACR         0.0903
     60 H16        28.5758   54.2452   35.4833 H         1 ACR         0.0652
     61 H17        27.1527   52.7341   36.8466 H         1 ACR         0.0257
     62 H18        28.5715   52.3070   37.8622 H         1 ACR         0.0257
     63 H19        28.5365   51.8429   36.1272 H         1 ACR         0.0257
     64 H20        30.1321   52.3632   35.1483 H         1 ACR         0.2029
     65 H21        31.4286   53.3048   34.7717 H         1 ACR         0.2029
     66 H22        30.6769   57.8796   36.0140 H         1 ACR         0.2101
     67 H23        32.7595   56.1345   35.7917 H         1 ACR         0.2102
     68 H24        25.0582   60.9250   36.1047 H         1 ACR         0.0938
     69 H25        27.3526   60.6987   36.8336 H         1 ACR         0.0671
     70 H26        27.7510   58.8661   34.4055 H         1 ACR         0.0648
     71 H27        27.8195   58.3100   37.4360 H         1 ACR         0.0651
     72 H28        25.8958   57.4059   35.1839 H         1 ACR         0.0647
     73 H29        26.2079   55.6369   36.9093 H         1 ACR         0.0584
     74 H30        24.5628   56.3528   36.9977 H         1 ACR         0.0584
     75 H31        28.3281   61.7274   34.9937 H         1 ACR         0.2101
     76 H32        29.8795   58.7440   35.3453 H         1 ACR         0.2100
     77 H33        25.3655   57.6764   38.7369 H         1 ACR         0.2095
     78 H34        20.3702   61.2988   32.4692 H         1 ACR         0.0935
     79 H35        21.9867   62.3930   33.9936 H         1 ACR         0.0671
     80 H36        24.1497   61.1369   32.2174 H         1 ACR         0.0648
     81 H37        23.4090   60.6721   35.1600 H         1 ACR         0.0651
     82 H38        23.1828   58.8241   32.6981 H         1 ACR         0.0647
     83 H39        23.7055   57.6565   34.8801 H         1 ACR         0.0584
     84 H40        22.0935   57.2301   34.2121 H         1 ACR         0.0584
     85 H41        22.6519   60.1074   31.2312 H         1 ACR         0.2126
     86 H42        22.9144   63.8282   32.4227 H         1 ACR         0.2101
     87 H43        25.5334   62.1931   33.7532 H         1 ACR         0.2100
     88 H44        21.2030   58.7816   35.6987 H         1 ACR         0.2095
@<TRIPOS>BOND
     1    1    2 1  
     2    1    7 1  
     3   18    1 1  
     4    2    3 1  
     5    2    8 1  
     6    3    4 1  
     7    3    9 1  
     8    5    4 1  
     9    4   10 1  
    10    5    6 1  
    11    7    5 2  
    12    6   11 1  
    13   12   13 1  
    14   12   21 1  
    15   30   12 1  
    16   13   14 1  
    17   13   19 1  
    18   14   15 1  
    19   14   20 1  
    20   16   15 1  
    21   15   18 1  
    22   16   17 1  
    23   21   16 1  
    24   22   23 1  
    25   22   31 1  
    26   42   22 1  
    27   23   24 1  
    28   23   28 1  
    29   24   25 1  
    30   24   29 1  
    31   26   25 1  
    32   25   30 1  
    33   26   27 1  
    34   31   26 1  
    35   27   32 1  
    36   34   33 1  
    37   33   39 1  
    38   33   43 1  
    39   35   34 1  
    40   34   40 1  
    41   36   35 1  
    42   35   41 1  
    43   36   37 1  
    44   36   42 1  
    45   37   38 1  
    46   37   43 1  
    47   38   44 1  
    48    1   45 1  
    49    2   46 1  
    50    3   47 1  
    51    4   48 1  
    52    6   49 1  
    53    6   50 1  
    54    7   51 1  
    55    8   52 1  
    56    9   53 1  
    57   10   54 1  
    58   11   55 1  
    59   12   56 1  
    60   13   57 1  
    61   14   58 1  
    62   15   59 1  
    63   16   60 1  
    64   17   61 1  
    65   17   62 1  
    66   17   63 1  
    67   18   64 1  
    68   18   65 1  
    69   19   66 1  
    70   20   67 1  
    71   22   68 1  
    72   23   69 1  
    73   24   70 1  
    74   25   71 1  
    75   26   72 1  
    76   27   73 1  
    77   27   74 1  
    78   28   75 1  
    79   29   76 1  
    80   32   77 1  
    81   33   78 1  
    82   34   79 1  
    83   35   80 1  
    84   36   81 1  
    85   37   82 1  
    86   38   83 1  
    87   38   84 1  
    88   39   85 1  
    89   40   86 1  
    90   41   87 1  
    91   44   88 1  
@<TRIPOS>SUBSTRUCTURE
     1 ACR         1

