### 
### Created by X-TOOL on Mon Sep 10 21:12:59 2018
### 

@<TRIPOS>MOLECULE
2zq1_ligand
   61    63     1     0     0
SMALL
GAST_HUCK


@<TRIPOS>ATOM
      1 N1        -28.8100    0.5730   15.7780 N.am      1 11U        -0.2474
      2 C14       -28.5500    0.6150   17.0920 C.2       1 11U         0.2262
      3 O32       -27.4060    0.4690   17.5260 O.2       1 11U        -0.3908
      4 C15       -29.7300    0.8660   17.9930 C.3       1 11U         0.0567
      5 C5        -30.1340    0.9520   15.1860 C.3       1 11U         0.0371
      6 C4        -29.9140    1.1260   13.6900 C.3       1 11U        -0.0281
      7 C3        -28.6960    0.2510   13.4830 C.3       1 11U        -0.0104
      8 C2        -27.8060    0.2630   14.7160 C.3       1 11U         0.1339
      9 C7        -26.6900    1.2320   14.5650 C.2       1 11U         0.2037
     10 N23       -25.5260    0.9130   14.1420 N.am      1 11U        -0.2737
     11 C24       -24.4520    1.7750   13.8220 C.3       1 11U         0.0645
     12 C25       -23.3300    1.6090   14.7910 C.ar      1 11U        -0.0210
     13 C30       -23.3880    2.0090   16.1110 C.ar      1 11U        -0.0584
     14 C29       -22.2710    1.8000   16.9210 C.ar      1 11U        -0.0633
     15 C28       -21.0980    1.2150   16.4960 C.ar      1 11U         0.0188
     16 C31       -19.9230    1.0150   17.4160 C.cat     1 11U         0.2318
     17 N49       -19.7540    1.8620   18.4450 N.pl3     1 11U        -0.2729
     18 N48       -19.0720    0.0060   17.2020 N.pl3     1 11U        -0.2729
     19 C27       -21.0730    0.8250   15.1600 C.ar      1 11U        -0.0633
     20 C26       -22.1650    1.0140   14.3150 C.ar      1 11U        -0.0584
     21 O22       -26.9130    2.3890   14.8910 O.2       1 11U        -0.3944
     22 N5        -29.5380    0.3620   19.3210 N.4       1 11U         0.2461
     23 C16       -29.4990   -1.0840   19.4450 C.3       1 11U        -0.0209
     24 C17       -30.7430   -1.6390   18.7950 C.3       1 11U        -0.0097
     25 C18       -30.8470   -3.1540   18.8960 C.3       1 11U        -0.0480
     26 C19       -30.7720   -3.6020   20.3400 C.3       1 11U        -0.0527
     27 C20       -29.4640   -3.1180   20.9490 C.3       1 11U        -0.0480
     28 C21       -29.3690   -1.5990   20.8510 C.3       1 11U        -0.0097
     29 H         -30.5904    0.3523   17.5641 H         1 11U         0.1062
     30 H         -29.8698    1.9446   18.0642 H         1 11U         0.1062
     31 H         -30.5082    1.8734   15.6322 H         1 11U         0.0524
     32 H         -30.8801    0.1816   15.3807 H         1 11U         0.0524
     33 H         -29.7755    2.1614   13.3787 H         1 11U         0.0287
     34 H         -30.7719    0.8452   13.0790 H         1 11U         0.0287
     35 H         -28.1277    0.6348   12.6358 H         1 11U         0.0313
     36 H         -29.0253   -0.7713   13.2974 H         1 11U         0.0313
     37 H         -27.2604   -0.6553   14.9333 H         1 11U         0.0802
     38 H         -25.3512   -0.0846   14.0208 H         1 11U         0.1878
     39 H         -24.8042    2.8056   13.8664 H         1 11U         0.0683
     40 H         -24.0916    1.5303   12.8228 H         1 11U         0.0683
     41 H         -24.2867    2.4779   16.5118 H         1 11U         0.0557
     42 H         -22.3305    2.1214   17.9608 H         1 11U         0.0599
     43 H         -20.4156    2.6242   18.5921 H         1 11U         0.3180
     44 H         -18.9641    1.7428   19.0792 H         1 11U         0.3180
     45 H         -19.2192   -0.6273   16.4161 H         1 11U         0.3180
     46 H         -18.2757   -0.1303   17.8247 H         1 11U         0.3180
     47 H         -20.1720    0.3576   14.7627 H         1 11U         0.0599
     48 H         -22.1065    0.6939   13.2747 H         1 11U         0.0557
     49 H         -30.3385    0.6777   19.8687 H         1 11U         0.2035
     50 H         -28.6283    0.7035   19.6312 H         1 11U         0.2035
     51 H         -28.5908   -1.4233   18.9468 H         1 11U         0.0851
     52 H         -30.7064   -1.3802   17.7368 H         1 11U         0.0320
     53 H         -31.6035   -1.2136   19.3114 H         1 11U         0.0320
     54 H         -30.0191   -3.6009   18.3456 H         1 11U         0.0267
     55 H         -31.8034   -3.4695   18.4790 H         1 11U         0.0267
     56 H         -30.8162   -4.6901   20.3874 H         1 11U         0.0265
     57 H         -31.6107   -3.1832   20.8962 H         1 11U         0.0265
     58 H         -28.6306   -3.5638   20.4060 H         1 11U         0.0267
     59 H         -29.4284   -3.4112   21.9982 H         1 11U         0.0267
     60 H         -30.1901   -1.1796   21.4324 H         1 11U         0.0320
     61 H         -28.3857   -1.3062   21.2192 H         1 11U         0.0320
@<TRIPOS>BOND
     1    1    2 am 
     2    1    5 1  
     3    1    8 1  
     4    2    3 2  
     5    2    4 1  
     6    4   22 1  
     7    5    6 1  
     8    6    7 1  
     9    7    8 1  
    10    8    9 1  
    11    9   10 am 
    12    9   21 2  
    13   10   11 1  
    14   11   12 1  
    15   12   13 ar 
    16   12   20 ar 
    17   13   14 ar 
    18   14   15 ar 
    19   15   16 1  
    20   15   19 ar 
    21   16   17 ar 
    22   16   18 ar 
    23   19   20 ar 
    24   22   23 1  
    25   23   24 1  
    26   23   28 1  
    27   24   25 1  
    28   25   26 1  
    29   26   27 1  
    30   27   28 1  
    31    4   29 1  
    32    4   30 1  
    33    5   31 1  
    34    5   32 1  
    35    6   33 1  
    36    6   34 1  
    37    7   35 1  
    38    7   36 1  
    39    8   37 1  
    40   10   38 1  
    41   11   39 1  
    42   11   40 1  
    43   13   41 1  
    44   14   42 1  
    45   17   43 1  
    46   17   44 1  
    47   18   45 1  
    48   18   46 1  
    49   19   47 1  
    50   20   48 1  
    51   22   49 1  
    52   22   50 1  
    53   23   51 1  
    54   24   52 1  
    55   24   53 1  
    56   25   54 1  
    57   25   55 1  
    58   26   56 1  
    59   26   57 1  
    60   27   58 1  
    61   27   59 1  
    62   28   60 1  
    63   28   61 1  
@<TRIPOS>SUBSTRUCTURE
     1 11U         1

