### 
### Created by X-TOOL on Mon Sep 10 21:12:59 2018
### 

@<TRIPOS>MOLECULE
2zq2_ligand
   67    69     1     0     0
SMALL
GAST_HUCK


@<TRIPOS>ATOM
      1 C14        18.1440   -9.2160   12.0880 C.2       1 13U         0.2262
      2 O32        18.2090   -8.3550   11.1860 O.2       1 13U        -0.3908
      3 C5         19.1360  -10.3680   12.3490 C.3       1 13U         0.0567
      4 N21        19.6170  -11.1920   11.2710 N.4       1 13U         0.2461
      5 C49        18.9480  -12.3840   10.7680 C.3       1 13U        -0.0209
      6 C48        17.4640  -12.2730   11.0760 C.3       1 13U        -0.0097
      7 C47        16.4050  -12.6450   10.0700 C.3       1 13U        -0.0480
      8 C46        15.8690  -13.9960    9.6210 C.3       1 13U        -0.0529
      9 C45        16.7480  -14.8180    8.6800 C.3       1 13U        -0.0531
     10 C44        18.1820  -14.8970    9.1880 C.3       1 13U        -0.0529
     11 C43        19.2410  -13.9450    8.6070 C.3       1 13U        -0.0480
     12 C42        19.5170  -12.6340    9.3730 C.3       1 13U        -0.0097
     13 N1         17.0770   -9.1690   12.9290 N.am      1 13U        -0.2474
     14 C1         16.1240   -8.1230   12.8880 C.3       1 13U         0.1339
     15 C7         16.6770   -6.7160   12.8730 C.2       1 13U         0.2037
     16 O22        17.6510   -6.4370   13.5740 O.2       1 13U        -0.3944
     17 C2         15.2700   -8.3010   14.1440 C.3       1 13U        -0.0104
     18 C3         15.6350   -9.6200   14.8050 C.3       1 13U        -0.0281
     19 C4         16.9800   -9.9810   14.1930 C.3       1 13U         0.0371
     20 N23        16.0940   -5.8290   12.1060 N.am      1 13U        -0.2737
     21 C24        16.4830   -4.4560   12.0400 C.3       1 13U         0.0645
     22 C25        17.1400   -4.2180   10.7210 C.ar      1 13U        -0.0210
     23 C30        18.2830   -4.9340   10.3640 C.ar      1 13U        -0.0584
     24 C29        18.8740   -4.7050    9.1490 C.ar      1 13U        -0.0633
     25 C28        18.3670   -3.7720    8.2440 C.ar      1 13U         0.0188
     26 C21        19.0080   -3.5050    6.8910 C.cat     1 13U         0.2318
     27 N46        18.1940   -3.1330    5.9020 N.pl3     1 13U        -0.2729
     28 N47        20.3180   -3.6390    6.7170 N.pl3     1 13U        -0.2729
     29 C27        17.2220   -3.0650    8.6120 C.ar      1 13U        -0.0633
     30 C26        16.6200   -3.2920    9.8430 C.ar      1 13U        -0.0584
     31 H1         18.6476  -11.0447   13.0656 H         1 13U         0.1062
     32 H2         20.0232   -9.9165   12.8170 H         1 13U         0.1062
     33 H3         20.5341  -11.4985   11.5556 H         1 13U         0.2035
     34 H4         19.6999  -10.5755   10.4778 H         1 13U         0.2035
     35 H5         19.2873  -13.2417   11.3674 H         1 13U         0.0851
     36 H6         17.2826  -11.2200   11.3374 H         1 13U         0.0320
     37 H7         17.2853  -12.9057   11.9579 H         1 13U         0.0320
     38 H8         16.7580  -12.1818    9.1369 H         1 13U         0.0267
     39 H9         15.5095  -12.1150   10.4265 H         1 13U         0.0267
     40 H10        14.9117  -13.8187    9.1091 H         1 13U         0.0265
     41 H11        15.6957  -14.6000   10.5239 H         1 13U         0.0265
     42 H12        16.7458  -14.3476    7.6857 H         1 13U         0.0265
     43 H13        16.3381  -15.8360    8.6050 H         1 13U         0.0265
     44 H14        18.5335  -15.9219    8.9981 H         1 13U         0.0265
     45 H15        18.1485  -14.7159   10.2725 H         1 13U         0.0265
     46 H16        18.9170  -13.6716    7.5920 H         1 13U         0.0267
     47 H17        20.1889  -14.5004    8.5522 H         1 13U         0.0267
     48 H18        20.6102  -12.5546    9.4661 H         1 13U         0.0320
     49 H19        19.1430  -11.8190    8.7359 H         1 13U         0.0320
     50 H20        15.5034   -8.2514   11.9889 H         1 13U         0.0802
     51 H21        14.2051   -8.3084   13.8684 H         1 13U         0.0313
     52 H22        15.4624   -7.4727   14.8418 H         1 13U         0.0313
     53 H23        14.8837  -10.3911   14.5794 H         1 13U         0.0287
     54 H24        15.7214   -9.5000   15.8950 H         1 13U         0.0287
     55 H25        17.7978   -9.7206   14.8810 H         1 13U         0.0524
     56 H26        17.0220  -11.0560   13.9637 H         1 13U         0.0524
     57 H27        15.3319   -6.1304   11.5330 H         1 13U         0.1878
     58 H28        17.1884   -4.2297   12.8531 H         1 13U         0.0683
     59 H29        15.5956   -3.8130   12.1349 H         1 13U         0.0683
     60 H30        18.7012   -5.6674   11.0439 H         1 13U         0.0557
     61 H31        19.7626   -5.2659    8.8829 H         1 13U         0.0599
     62 H32        18.5764   -2.9397    4.9654 H         1 13U         0.3180
     63 H33        17.1830   -3.0390    6.0749 H         1 13U         0.3180
     64 H34        20.9152   -3.9283    7.5047 H         1 13U         0.3180
     65 H35        20.7366   -3.4536    5.7943 H         1 13U         0.3180
     66 H36        16.7993   -2.3336    7.9327 H         1 13U         0.0599
     67 H37        15.7313   -2.7345   10.1160 H         1 13U         0.0557
@<TRIPOS>BOND
     1    1    2 2  
     2    1    3 1  
     3    1   13 am 
     4    3    4 1  
     5    4    5 1  
     6    5    6 1  
     7    5   12 1  
     8    6    7 1  
     9    7    8 1  
    10    8    9 1  
    11    9   10 1  
    12   10   11 1  
    13   11   12 1  
    14   13   14 1  
    15   13   19 1  
    16   14   15 1  
    17   14   17 1  
    18   15   16 2  
    19   15   20 am 
    20   17   18 1  
    21   18   19 1  
    22   20   21 1  
    23   21   22 1  
    24   22   23 ar 
    25   22   30 ar 
    26   23   24 ar 
    27   24   25 ar 
    28   25   26 1  
    29   25   29 ar 
    30   26   27 ar 
    31   26   28 ar 
    32   29   30 ar 
    33    3   31 1  
    34    3   32 1  
    35    4   33 1  
    36    4   34 1  
    37    5   35 1  
    38    6   36 1  
    39    6   37 1  
    40    7   38 1  
    41    7   39 1  
    42    8   40 1  
    43    8   41 1  
    44    9   42 1  
    45    9   43 1  
    46   10   44 1  
    47   10   45 1  
    48   11   46 1  
    49   11   47 1  
    50   12   48 1  
    51   12   49 1  
    52   14   50 1  
    53   17   51 1  
    54   17   52 1  
    55   18   53 1  
    56   18   54 1  
    57   19   55 1  
    58   19   56 1  
    59   20   57 1  
    60   21   58 1  
    61   21   59 1  
    62   23   60 1  
    63   24   61 1  
    64   27   62 1  
    65   27   63 1  
    66   28   64 1  
    67   28   65 1  
    68   29   66 1  
    69   30   67 1  
@<TRIPOS>SUBSTRUCTURE
     1 13U         1

