### 
### Created by X-TOOL on Mon Sep 10 21:13:01 2018
### 

@<TRIPOS>MOLECULE
2zsc_ligand
   31    32     1     0     0
SMALL
GAST_HUCK


@<TRIPOS>ATOM
      1 C11        14.1560   22.4050    2.9620 C.2       1 BTN         0.0348
      2 O11        13.9850   22.2160    1.7370 O.co2     1 BTN        -0.5690
      3 O12        14.7600   21.5300    3.6280 O.co2     1 BTN        -0.5690
      4 C10        13.6220   23.6740    3.6020 C.3       1 BTN         0.0002
      5 C9         13.1230   23.4580    5.0360 C.3       1 BTN        -0.0414
      6 C8         11.8900   22.5630    5.0560 C.3       1 BTN        -0.0505
      7 C7         11.4040   22.3260    6.4820 C.3       1 BTN        -0.0389
      8 C2         10.1210   21.4730    6.4680 C.3       1 BTN         0.0302
      9 S1          8.7130   22.2680    5.9470 S.3       1 BTN        -0.1527
     10 C6          7.7570   20.8330    6.4920 C.3       1 BTN         0.0190
     11 C5          8.3220   20.4520    7.8460 C.3       1 BTN         0.0750
     12 N1          7.7620   21.2580    8.9080 N.am      1 BTN        -0.2671
     13 C3          8.6760   22.0520    9.4420 C.2       1 BTN         0.2580
     14 O3          8.4160   22.8810   10.5260 O.2       1 BTN        -0.4008
     15 N2          9.8640   21.8480    8.9240 N.am      1 BTN        -0.2668
     16 C4          9.7830   20.8770    7.8430 C.3       1 BTN         0.0775
     17 H1         12.7863   24.0489    2.9929 H         1 BTN         0.0430
     18 H2         14.4274   24.4230    3.6203 H         1 BTN         0.0430
     19 H3         12.8676   24.4321    5.4786 H         1 BTN         0.0283
     20 H4         13.9208   22.9845    5.6270 H         1 BTN         0.0283
     21 H5         12.1414   21.5954    4.5971 H         1 BTN         0.0267
     22 H6         11.0872   23.0450    4.4788 H         1 BTN         0.0267
     23 H7         11.1924   23.2938    6.9601 H         1 BTN         0.0277
     24 H8         12.1850   21.7994    7.0500 H         1 BTN         0.0277
     25 H9         10.3110   20.6428    5.7719 H         1 BTN         0.0435
     26 H10         7.8735   20.0022    5.7806 H         1 BTN         0.0399
     27 H11         6.6919   21.0932    6.5807 H         1 BTN         0.0399
     28 H12         8.1908   19.3769    8.0383 H         1 BTN         0.0584
     29 H13         6.8067   21.2202    9.2012 H         1 BTN         0.1849
     30 H14        10.7048   22.2956    9.2284 H         1 BTN         0.1849
     31 H15        10.4474   20.0238    8.0446 H         1 BTN         0.0587
@<TRIPOS>BOND
     1    1    2 ar 
     2    1    3 ar 
     3    1    4 1  
     4    4    5 1  
     5    5    6 1  
     6    6    7 1  
     7    7    8 1  
     8    8    9 1  
     9    8   16 1  
    10    9   10 1  
    11   10   11 1  
    12   11   12 1  
    13   11   16 1  
    14   12   13 am 
    15   13   14 2  
    16   13   15 am 
    17   15   16 1  
    18    4   17 1  
    19    4   18 1  
    20    5   19 1  
    21    5   20 1  
    22    6   21 1  
    23    6   22 1  
    24    7   23 1  
    25    7   24 1  
    26    8   25 1  
    27   10   26 1  
    28   10   27 1  
    29   11   28 1  
    30   12   29 1  
    31   15   30 1  
    32   16   31 1  
@<TRIPOS>SUBSTRUCTURE
     1 BTN         1

