### 
### Created by X-TOOL on Mon Sep 10 21:13:00 2018
### 

@<TRIPOS>MOLECULE
2zu3_ligand
   93    94     1     0     0
SMALL
GAST_HUCK


@<TRIPOS>ATOM
      1 C1         15.3670   15.9910   29.1240 C.ar      1 ZU3        -0.0685
      2 C2         16.4970   15.1660   29.6360 C.ar      1 ZU3        -0.0578
      3 C4         16.2720   14.1920   30.5900 C.ar      1 ZU3        -0.0130
      4 C6         14.9040   13.9680   31.1110 C.ar      1 ZU3        -0.0578
      5 C8         13.8770   14.7230   30.6450 C.ar      1 ZU3        -0.0685
      6 C10        14.1090   15.7790   29.6070 C.ar      1 ZU3        -0.0687
      7 C13        17.4060   13.3320   31.1210 C.3       1 ZU3         0.1113
      8 O15        18.2500   12.8500   30.0280 O.3       1 ZU3        -0.2506
      9 C17        17.5530   11.9850   29.1580 C.2       1 ZU3         0.3240
     10 O19        17.4470   12.3090   27.9600 O.2       1 ZU3        -0.3773
     11 N21        16.9140   10.8240   29.7430 N.am      1 ZU3        -0.2391
     12 C23        16.0280    9.8390   29.1250 C.3       1 ZU3         0.1528
     13 C25        14.6310    9.9620   29.7650 C.3       1 ZU3         0.0711
     14 N27        14.6700    9.9730   31.2690 N.am      1 ZU3        -0.2813
     15 C29        15.3200    8.9230   32.0440 C.2       1 ZU3         0.2012
     16 C31        16.0790    9.9330   27.5880 C.2       1 ZU3         0.2059
     17 N33        15.3270   10.9270   26.7940 N.am      1 ZU3        -0.2637
     18 O35        16.8520    9.1690   27.0510 O.2       1 ZU3        -0.3943
     19 C37        15.4400   10.3880   25.3150 C.3       1 ZU3         0.1311
     20 C39        16.7670   10.7830   24.6610 C.2       1 ZU3         0.2019
     21 C41        14.3130   11.0970   24.6830 C.3       1 ZU3        -0.0101
     22 O43        15.8690    7.9850   31.4520 O.2       1 ZU3        -0.3443
     23 C45        15.3310    8.9450   33.5810 C.3       1 ZU3         0.0429
     24 O47        17.6720   11.5990   24.8180 O.2       1 ZU3        -0.3945
     25 N49        17.0400    9.6220   23.8300 N.am      1 ZU3        -0.2817
     26 C51        12.7270   11.0060   24.8770 C.3       1 ZU3        -0.0425
     27 C53        12.0160   11.7870   23.7790 C.3       1 ZU3        -0.0625
     28 C55        11.8730    9.7860   25.2290 C.3       1 ZU3        -0.0625
     29 C57        18.3690    9.4680   23.1710 C.3       1 ZU3         0.0465
     30 C59        19.1890    8.3520   23.8930 C.3       1 ZU3        -0.0099
     31 C61        19.6840    8.6650   25.3270 C.3       1 ZU3         0.0525
     32 C63        18.1580    9.1470   21.6680 C.3       1 ZU3        -0.0139
     33 C65        20.6410    7.6710   25.8190 C.2       1 ZU3         0.1792
     34 O66        20.7120    6.4940   25.4160 O.2       1 ZU3        -0.3968
     35 N69        21.4790    8.2360   26.8230 N.am      1 ZU3        -0.2866
     36 C71        21.0790    9.6570   27.0130 C.3       1 ZU3         0.0332
     37 C73        20.4960    9.9640   25.6050 C.3       1 ZU3        -0.0129
     38 C76        13.9440    8.5900   34.1660 C.3       1 ZU3        -0.0535
     39 C78        15.7860   10.3540   34.0710 C.3       1 ZU3        -0.0535
     40 C80        16.3840    7.9450   34.1270 C.3       1 ZU3        -0.0535
     41 C82        17.3770   10.2940   20.9780 C.3       1 ZU3         0.0229
     42 C84        18.3070   11.3840   20.4470 C.2       1 ZU3         0.1020
     43 C86        17.7730   12.7770   20.1780 C.3       1 ZU3         0.0094
     44 O88        19.5060   11.1380   20.2270 O.2       1 ZU3        -0.3919
     45 H1         15.5431   16.7534   28.3738 H         1 ZU3         0.0599
     46 H2         17.4998   15.3305   29.2586 H         1 ZU3         0.0557
     47 H3         14.7240   13.2055   31.8602 H         1 ZU3         0.0557
     48 H4         12.8762   14.5602   31.0284 H         1 ZU3         0.0599
     49 H5         13.2792   16.3728   29.2410 H         1 ZU3         0.0559
     50 H6         16.9835   12.4695   31.6573 H         1 ZU3         0.0776
     51 H7         18.0182   13.9296   31.8124 H         1 ZU3         0.0776
     52 H8         17.1075   10.6742   30.7126 H         1 ZU3         0.1900
     53 H9         16.4073    8.8395   29.3842 H         1 ZU3         0.0820
     54 H10        14.0192    9.1088   29.4369 H         1 ZU3         0.0570
     55 H11        14.1690   10.8987   29.4199 H         1 ZU3         0.0570
     56 H12        14.2333   10.7296   31.7558 H         1 ZU3         0.1859
     57 H13        14.8570   11.7481   27.1178 H         1 ZU3         0.1883
     58 H14        15.3156    9.2960   25.2698 H         1 ZU3         0.0800
     59 H15        14.4507   10.8901   23.6114 H         1 ZU3         0.0315
     60 H16        14.5337   12.1558   24.8834 H         1 ZU3         0.0315
     61 H17        16.3350    8.9249   23.6999 H         1 ZU3         0.1855
     62 H18        12.5987   11.6183   25.7817 H         1 ZU3         0.0298
     63 H19        10.9280   11.7161   23.9244 H         1 ZU3         0.0232
     64 H20        12.2830   11.3666   22.7982 H         1 ZU3         0.0232
     65 H21        12.3235   12.8423   23.8216 H         1 ZU3         0.0232
     66 H22        12.3696    9.2072   26.0217 H         1 ZU3         0.0232
     67 H23        11.7498    9.1548   24.3366 H         1 ZU3         0.0232
     68 H24        10.8858   10.1189   25.5818 H         1 ZU3         0.0232
     69 H25        18.9218   10.4155   23.2531 H         1 ZU3         0.0559
     70 H26        20.0735    8.1368   23.2754 H         1 ZU3         0.0315
     71 H27        18.5537    7.4557   23.9487 H         1 ZU3         0.0315
     72 H28        18.7869    8.6724   25.9635 H         1 ZU3         0.0539
     73 H29        17.5875    8.2113   21.5733 H         1 ZU3         0.0312
     74 H30        19.1373    9.0304   21.1808 H         1 ZU3         0.0312
     75 H31        22.2088    7.7607   27.3145 H         1 ZU3         0.1851
     76 H32        21.9431   10.2968   27.2453 H         1 ZU3         0.0521
     77 H33        20.3199    9.7655   27.8016 H         1 ZU3         0.0521
     78 H34        19.8453   10.8507   25.6223 H         1 ZU3         0.0312
     79 H35        21.2932   10.1086   24.8610 H         1 ZU3         0.0312
     80 H36        13.9919    8.6162   35.2646 H         1 ZU3         0.0221
     81 H37        13.6538    7.5817   33.8356 H         1 ZU3         0.0221
     82 H38        13.1999    9.3196   33.8140 H         1 ZU3         0.0221
     83 H39        16.7728   10.5891   33.6456 H         1 ZU3         0.0221
     84 H40        15.8499   10.3574   35.1691 H         1 ZU3         0.0221
     85 H41        15.0563   11.1093   33.7438 H         1 ZU3         0.0221
     86 H42        16.1179    6.9248   33.8134 H         1 ZU3         0.0221
     87 H43        16.4043    7.9973   35.2256 H         1 ZU3         0.0221
     88 H44        17.3763    8.2038   33.7292 H         1 ZU3         0.0221
     89 H45        16.6860   10.7417   21.7075 H         1 ZU3         0.0495
     90 H46        16.8031    9.8769   20.1374 H         1 ZU3         0.0495
     91 H47        18.5865   13.4154   19.8031 H         1 ZU3         0.0458
     92 H48        17.3728   13.2026   21.1100 H         1 ZU3         0.0458
     93 H49        16.9723   12.7238   19.4257 H         1 ZU3         0.0458
@<TRIPOS>BOND
     1    1    2 ar 
     2    1    6 ar 
     3    2    3 ar 
     4    3    4 ar 
     5    3    7 1  
     6    4    5 ar 
     7    5    6 ar 
     8    7    8 1  
     9    8    9 1  
    10    9   10 2  
    11    9   11 am 
    12   11   12 1  
    13   12   13 1  
    14   12   16 1  
    15   13   14 1  
    16   14   15 am 
    17   15   22 2  
    18   15   23 1  
    19   16   17 am 
    20   16   18 2  
    21   17   19 1  
    22   19   20 1  
    23   19   21 1  
    24   20   24 2  
    25   20   25 am 
    26   21   26 1  
    27   23   38 1  
    28   23   39 1  
    29   23   40 1  
    30   25   29 1  
    31   26   27 1  
    32   26   28 1  
    33   29   30 1  
    34   29   32 1  
    35   30   31 1  
    36   31   33 1  
    37   31   37 1  
    38   32   41 1  
    39   33   34 2  
    40   33   35 am 
    41   35   36 1  
    42   36   37 1  
    43   41   42 1  
    44   42   43 1  
    45   42   44 2  
    46    1   45 1  
    47    2   46 1  
    48    4   47 1  
    49    5   48 1  
    50    6   49 1  
    51    7   50 1  
    52    7   51 1  
    53   11   52 1  
    54   12   53 1  
    55   13   54 1  
    56   13   55 1  
    57   14   56 1  
    58   17   57 1  
    59   19   58 1  
    60   21   59 1  
    61   21   60 1  
    62   25   61 1  
    63   26   62 1  
    64   27   63 1  
    65   27   64 1  
    66   27   65 1  
    67   28   66 1  
    68   28   67 1  
    69   28   68 1  
    70   29   69 1  
    71   30   70 1  
    72   30   71 1  
    73   31   72 1  
    74   32   73 1  
    75   32   74 1  
    76   35   75 1  
    77   36   76 1  
    78   36   77 1  
    79   37   78 1  
    80   37   79 1  
    81   38   80 1  
    82   38   81 1  
    83   38   82 1  
    84   39   83 1  
    85   39   84 1  
    86   39   85 1  
    87   40   86 1  
    88   40   87 1  
    89   40   88 1  
    90   41   89 1  
    91   41   90 1  
    92   43   91 1  
    93   43   92 1  
    94   43   93 1  
@<TRIPOS>SUBSTRUCTURE
     1 ZU3         1

