### 
### Created by X-TOOL on Mon Sep 10 21:13:02 2018
### 

@<TRIPOS>MOLECULE
2zu4_ligand
   93    94     1     0     0
SMALL
GAST_HUCK


@<TRIPOS>ATOM
      1 C1         21.8400    7.1220   20.0550 C.ar      1 ZU3        -0.0685
      2 C2         21.1940    5.9250   19.4490 C.ar      1 ZU3        -0.0578
      3 C4         19.9970    6.0550   18.7750 C.ar      1 ZU3        -0.0130
      4 C6         19.3500    7.3900   18.6490 C.ar      1 ZU3        -0.0578
      5 C8         19.9390    8.4700   19.1960 C.ar      1 ZU3        -0.0685
      6 C10        21.2410    8.3390   19.9340 C.ar      1 ZU3        -0.0687
      7 C13        19.3390    4.8390   18.1670 C.3       1 ZU3         0.1113
      8 O15        18.2660    4.3990   19.0560 O.3       1 ZU3        -0.2506
      9 C17        18.6600    3.4790   20.0370 C.2       1 ZU3         0.3240
     10 O19        19.7990    2.9160   20.0120 O.2       1 ZU3        -0.3773
     11 N21        17.7240    3.1830   21.0410 N.am      1 ZU3        -0.2391
     12 C23        18.0030    2.2150   22.0920 C.3       1 ZU3         0.1528
     13 C25        17.6460    2.8140   23.4540 C.3       1 ZU3         0.0711
     14 N27        18.2720    4.1420   23.6240 N.am      1 ZU3        -0.2813
     15 C29        19.6470    4.2130   24.0990 C.2       1 ZU3         0.2012
     16 C31        17.2620    0.9280   21.7820 C.2       1 ZU3         0.2059
     17 N33        18.0140   -0.2830   21.5650 N.am      1 ZU3        -0.2637
     18 O35        15.9720    0.9030   21.7850 O.2       1 ZU3        -0.3943
     19 C37        17.3210   -1.5500   21.3580 C.3       1 ZU3         0.1311
     20 C39        16.5150   -1.8760   22.5960 C.2       1 ZU3         0.2019
     21 C41        18.3680   -2.6430   20.9160 C.3       1 ZU3        -0.0101
     22 O43        20.2660    3.1440   24.3540 O.2       1 ZU3        -0.3443
     23 C45        20.3550    5.5430   24.3040 C.3       1 ZU3         0.0429
     24 O47        16.9790   -1.5390   23.7230 O.2       1 ZU3        -0.3945
     25 N49        15.2530   -2.5410   22.5430 N.am      1 ZU3        -0.2817
     26 C51        19.1760   -2.4540   19.5860 C.3       1 ZU3        -0.0425
     27 C53        20.0980   -3.6290   19.1910 C.3       1 ZU3        -0.0625
     28 C55        18.2010   -2.2060   18.4160 C.3       1 ZU3        -0.0625
     29 C57        14.5130   -2.8160   23.7590 C.3       1 ZU3         0.0465
     30 C59        13.2400   -1.8030   23.8120 C.3       1 ZU3        -0.0099
     31 C61        13.5660   -0.3700   24.2540 C.3       1 ZU3         0.0525
     32 C63        14.1310   -4.2750   23.6840 C.3       1 ZU3        -0.0139
     33 C65        12.3400    0.4760   24.3300 C.2       1 ZU3         0.1792
     34 O66        11.4050    0.4110   23.5110 O.2       1 ZU3        -0.3968
     35 N69        12.3810    1.3650   25.4460 N.am      1 ZU3        -0.2866
     36 C71        13.6310    1.2240   26.2090 C.3       1 ZU3         0.0332
     37 C73        14.1780   -0.1600   25.7240 C.3       1 ZU3        -0.0129
     38 C76        20.8240    5.6600   25.7600 C.3       1 ZU3        -0.0535
     39 C78        19.4070    6.7330   23.9340 C.3       1 ZU3        -0.0535
     40 C80        21.5430    5.6270   23.3500 C.3       1 ZU3        -0.0535
     41 C82        15.4240   -5.1710   23.7600 C.3       1 ZU3         0.0229
     42 C84        15.2030   -6.3770   24.6720 C.2       1 ZU3         0.1020
     43 C86        16.3600   -7.3390   24.9940 C.3       1 ZU3         0.0094
     44 O88        14.1000   -6.6180   25.1140 O.2       1 ZU3        -0.3919
     45 H1         22.7790    7.0255   20.5879 H         1 ZU3         0.0599
     46 H2         21.6638    4.9521   19.5373 H         1 ZU3         0.0557
     47 H3         18.4096    7.4919   18.1196 H         1 ZU3         0.0557
     48 H4         19.4696    9.4427   19.1031 H         1 ZU3         0.0599
     49 H5         21.7049    9.2156   20.3714 H         1 ZU3         0.0559
     50 H6         20.0800    4.0341   18.0532 H         1 ZU3         0.0776
     51 H7         18.9226    5.0960   17.1819 H         1 ZU3         0.0776
     52 H8         16.8401    3.6507   21.0339 H         1 ZU3         0.1900
     53 H9         19.0807    1.9947   22.0932 H         1 ZU3         0.0820
     54 H10        18.0039    2.1424   24.2483 H         1 ZU3         0.0570
     55 H11        16.5534    2.9185   23.5268 H         1 ZU3         0.0570
     56 H12        17.7610    4.9762   23.4168 H         1 ZU3         0.1859
     57 H13        19.0136   -0.2543   21.5564 H         1 ZU3         0.1883
     58 H14        16.6088   -1.4280   20.5286 H         1 ZU3         0.0800
     59 H15        17.8186   -3.5914   20.8230 H         1 ZU3         0.0315
     60 H16        19.1055   -2.7246   21.7280 H         1 ZU3         0.0315
     61 H17        14.8761   -2.8195   21.6596 H         1 ZU3         0.1855
     62 H18        19.8092   -1.5636   19.7138 H         1 ZU3         0.0298
     63 H19        20.6126   -3.3904   18.2485 H         1 ZU3         0.0232
     64 H20        19.4954   -4.5397   19.0593 H         1 ZU3         0.0232
     65 H21        20.8426   -3.7934   19.9838 H         1 ZU3         0.0232
     66 H22        17.5295   -1.3722   18.6687 H         1 ZU3         0.0232
     67 H23        17.6065   -3.1137   18.2354 H         1 ZU3         0.0232
     68 H24        18.7719   -1.9553   17.5098 H         1 ZU3         0.0232
     69 H25        15.1434   -2.6469   24.6445 H         1 ZU3         0.0559
     70 H26        12.5037   -2.2176   24.5163 H         1 ZU3         0.0315
     71 H27        12.7990   -1.7570   22.8053 H         1 ZU3         0.0315
     72 H28        14.2672    0.0421   23.5134 H         1 ZU3         0.0539
     73 H29        13.6091   -4.4673   22.7350 H         1 ZU3         0.0312
     74 H30        13.4661   -4.5219   24.5248 H         1 ZU3         0.0312
     75 H31        11.6496    2.0053   25.6805 H         1 ZU3         0.1851
     76 H32        13.4358    1.2157   27.2915 H         1 ZU3         0.0521
     77 H33        14.3351    2.0344   25.9695 H         1 ZU3         0.0521
     78 H34        15.2772   -0.1469   25.6849 H         1 ZU3         0.0312
     79 H35        13.8446   -0.9630   26.3979 H         1 ZU3         0.0312
     80 H36        21.3355    6.6231   25.9042 H         1 ZU3         0.0221
     81 H37        21.5185    4.8382   25.9887 H         1 ZU3         0.0221
     82 H38        19.9543    5.6027   26.4311 H         1 ZU3         0.0221
     83 H39        19.0820    6.6313   22.8880 H         1 ZU3         0.0221
     84 H40        19.9457    7.6838   24.0598 H         1 ZU3         0.0221
     85 H41        18.5272    6.7199   24.5942 H         1 ZU3         0.0221
     86 H42        22.2457    4.8089   23.5666 H         1 ZU3         0.0221
     87 H43        22.0525    6.5928   23.4829 H         1 ZU3         0.0221
     88 H44        21.1873    5.5397   22.3128 H         1 ZU3         0.0221
     89 H45        16.2557   -4.5692   24.1550 H         1 ZU3         0.0495
     90 H46        15.6755   -5.5257   22.7496 H         1 ZU3         0.0495
     91 H47        15.9996   -8.1355   25.6616 H         1 ZU3         0.0458
     92 H48        17.1708   -6.7846   25.4892 H         1 ZU3         0.0458
     93 H49        16.7367   -7.7847   24.0615 H         1 ZU3         0.0458
@<TRIPOS>BOND
     1    1    2 ar 
     2    1    6 ar 
     3    2    3 ar 
     4    3    4 ar 
     5    3    7 1  
     6    4    5 ar 
     7    5    6 ar 
     8    7    8 1  
     9    8    9 1  
    10    9   10 2  
    11    9   11 am 
    12   11   12 1  
    13   12   13 1  
    14   12   16 1  
    15   13   14 1  
    16   14   15 am 
    17   15   22 2  
    18   15   23 1  
    19   16   17 am 
    20   16   18 2  
    21   17   19 1  
    22   19   20 1  
    23   19   21 1  
    24   20   24 2  
    25   20   25 am 
    26   21   26 1  
    27   23   38 1  
    28   23   39 1  
    29   23   40 1  
    30   25   29 1  
    31   26   27 1  
    32   26   28 1  
    33   29   30 1  
    34   29   32 1  
    35   30   31 1  
    36   31   33 1  
    37   31   37 1  
    38   32   41 1  
    39   33   34 2  
    40   33   35 am 
    41   35   36 1  
    42   36   37 1  
    43   41   42 1  
    44   42   43 1  
    45   42   44 2  
    46    1   45 1  
    47    2   46 1  
    48    4   47 1  
    49    5   48 1  
    50    6   49 1  
    51    7   50 1  
    52    7   51 1  
    53   11   52 1  
    54   12   53 1  
    55   13   54 1  
    56   13   55 1  
    57   14   56 1  
    58   17   57 1  
    59   19   58 1  
    60   21   59 1  
    61   21   60 1  
    62   25   61 1  
    63   26   62 1  
    64   27   63 1  
    65   27   64 1  
    66   27   65 1  
    67   28   66 1  
    68   28   67 1  
    69   28   68 1  
    70   29   69 1  
    71   30   70 1  
    72   30   71 1  
    73   31   72 1  
    74   32   73 1  
    75   32   74 1  
    76   35   75 1  
    77   36   76 1  
    78   36   77 1  
    79   37   78 1  
    80   37   79 1  
    81   38   80 1  
    82   38   81 1  
    83   38   82 1  
    84   39   83 1  
    85   39   84 1  
    86   39   85 1  
    87   40   86 1  
    88   40   87 1  
    89   40   88 1  
    90   41   89 1  
    91   41   90 1  
    92   43   91 1  
    93   43   92 1  
    94   43   93 1  
@<TRIPOS>SUBSTRUCTURE
     1 ZU3         1

