### 
### Created by X-TOOL on Mon Sep 10 21:13:00 2018
### 

@<TRIPOS>MOLECULE
2zu5_ligand
   97    99     1     0     0
SMALL
GAST_HUCK


@<TRIPOS>ATOM
      1 C1         16.1530   -7.3010   24.9600 C.3       1 ZU5         0.0328
      2 C2         17.2660   -7.7130   23.9620 C.3       1 ZU5        -0.0319
      3 C4         17.5650   -6.6500   25.0110 C.3       1 ZU5        -0.0319
      4 C7         15.0940   -6.2300   24.6040 C.2       1 ZU5         0.1081
      5 C9         15.3920   -5.0530   23.6930 C.3       1 ZU5         0.0234
      6 C11        14.3790   -4.2190   23.4890 C.3       1 ZU5        -0.0138
      7 C13        14.5370   -2.8040   23.6380 C.3       1 ZU5         0.0465
      8 C15        13.4960   -1.7050   23.8700 C.3       1 ZU5        -0.0099
      9 C17        13.5530   -0.2100   24.3000 C.3       1 ZU5         0.0525
     10 C19        14.0390   -0.1500   25.7540 C.3       1 ZU5        -0.0129
     11 C21        13.4760    1.1700   26.2870 C.3       1 ZU5         0.0332
     12 N23        12.2510    1.2910   25.5530 N.am      1 ZU5        -0.2866
     13 C25        12.2850    0.5020   24.4090 C.2       1 ZU5         0.1792
     14 O28        11.3530    0.4180   23.5800 O.2       1 ZU5        -0.3968
     15 O30        13.9680   -6.3740   25.0970 O.2       1 ZU5        -0.3913
     16 N32        15.3750   -2.5530   22.5980 N.am      1 ZU5        -0.2817
     17 C34        16.6500   -1.8650   22.6360 C.2       1 ZU5         0.2019
     18 O36        17.2120   -1.7270   23.7130 O.2       1 ZU5        -0.3945
     19 C38        17.3130   -1.2660   21.4000 C.3       1 ZU5         0.1311
     20 C40        18.4390   -2.1000   20.7340 C.3       1 ZU5        -0.0101
     21 C42        19.0910   -2.1200   19.3660 C.3       1 ZU5        -0.0425
     22 C44        18.0560   -2.2770   18.2430 C.3       1 ZU5        -0.0625
     23 C46        20.1420   -3.2480   19.3100 C.3       1 ZU5        -0.0625
     24 N48        17.8210    0.0890   21.6290 N.am      1 ZU5        -0.2637
     25 C50        16.9660    1.1040   21.7780 C.2       1 ZU5         0.2064
     26 O52        15.7790    0.9270   21.7220 O.2       1 ZU5        -0.3943
     27 C54        17.8840    2.1690   21.9970 C.3       1 ZU5         0.1584
     28 C56        17.5360    2.9700   23.2490 C.3       1 ZU5         0.0964
     29 C58        17.7730    2.1210   24.5500 C.3       1 ZU5        -0.0343
     30 O60        18.2700    4.1480   23.7710 O.3       1 ZU5        -0.3666
     31 C62        17.8120    5.5420   24.0750 C.3       1 ZU5         0.0618
     32 C64        16.4110    5.4460   24.6760 C.3       1 ZU5        -0.0363
     33 C66        17.7080    6.3340   22.6740 C.3       1 ZU5        -0.0363
     34 C68        19.0080    6.3320   24.5710 C.3       1 ZU5        -0.0363
     35 N70        17.6680    3.0370   20.8770 N.am      1 ZU5        -0.2385
     36 C72        18.6370    3.6200   20.0610 C.2       1 ZU5         0.3240
     37 O74        19.8400    3.3830   20.3030 O.2       1 ZU5        -0.3773
     38 O76        18.5340    4.4600   18.9720 O.3       1 ZU5        -0.2506
     39 C78        19.5010    5.0810   18.1090 C.3       1 ZU5         0.1113
     40 C80        20.2380    6.1950   18.8100 C.ar      1 ZU5        -0.0130
     41 C82        21.4910    6.0220   19.3150 C.ar      1 ZU5        -0.0578
     42 C83        22.2610    7.0770   20.0130 C.ar      1 ZU5        -0.0685
     43 C84        21.6250    8.4120   20.1730 C.ar      1 ZU5        -0.0687
     44 C85        20.2720    8.5950   19.6270 C.ar      1 ZU5        -0.0685
     45 C86        19.5820    7.4820   18.9470 C.ar      1 ZU5        -0.0578
     46 H1         15.7758   -8.0221   25.7001 H         1 ZU5         0.0530
     47 H2         17.1841   -7.4291   22.9024 H         1 ZU5         0.0294
     48 H3         17.7319   -8.7064   24.0406 H         1 ZU5         0.0294
     49 H4         18.2446   -6.8783   25.8452 H         1 ZU5         0.0294
     50 H5         17.6969   -5.6011   24.7071 H         1 ZU5         0.0294
     51 H6         15.7058   -5.4507   22.7166 H         1 ZU5         0.0495
     52 H7         16.2186   -4.4800   24.1384 H         1 ZU5         0.0495
     53 H8         13.5841   -4.5184   24.1880 H         1 ZU5         0.0312
     54 H9         14.0411   -4.3870   22.4557 H         1 ZU5         0.0312
     55 H10        15.1369   -2.7145   24.5557 H         1 ZU5         0.0559
     56 H11        12.8356   -2.1513   24.6281 H         1 ZU5         0.0315
     57 H12        12.9694   -1.6609   22.9052 H         1 ZU5         0.0315
     58 H13        14.2287    0.3264   23.6176 H         1 ZU5         0.0539
     59 H14        15.1381   -0.1507   25.7978 H         1 ZU5         0.0312
     60 H15        13.6485   -1.0013   26.3308 H         1 ZU5         0.0312
     61 H16        14.1544    2.0090   26.0730 H         1 ZU5         0.0521
     62 H17        13.2892    1.1164   27.3697 H         1 ZU5         0.0521
     63 H18        11.4783    1.8640   25.8262 H         1 ZU5         0.1851
     64 H19        15.0770   -2.8814   21.7017 H         1 ZU5         0.1855
     65 H20        16.5104   -1.1849   20.6522 H         1 ZU5         0.0800
     66 H21        18.0753   -3.1322   20.8451 H         1 ZU5         0.0315
     67 H22        19.2930   -1.9376   21.4080 H         1 ZU5         0.0315
     68 H23        19.6066   -1.1596   19.2182 H         1 ZU5         0.0298
     69 H24        18.5692   -2.2868   17.2701 H         1 ZU5         0.0232
     70 H25        17.3487   -1.4352   18.2759 H         1 ZU5         0.0232
     71 H26        17.5086   -3.2215   18.3782 H         1 ZU5         0.0232
     72 H27        20.8697   -3.1118   20.1236 H         1 ZU5         0.0232
     73 H28        20.6637   -3.2154   18.3422 H         1 ZU5         0.0232
     74 H29        19.6420   -4.2211   19.4244 H         1 ZU5         0.0232
     75 H30        18.8064    0.2535   21.6737 H         1 ZU5         0.1883
     76 H31        18.9192    1.8003   22.0470 H         1 ZU5         0.0826
     77 H32        16.4779    3.2464   23.1306 H         1 ZU5         0.0642
     78 H33        17.5142    2.7235   25.4332 H         1 ZU5         0.0257
     79 H34        18.8305    1.8236   24.6062 H         1 ZU5         0.0257
     80 H35        17.1402    1.2217   24.5214 H         1 ZU5         0.0257
     81 H36        16.0432    6.4555   24.9118 H         1 ZU5         0.0257
     82 H37        16.4472    4.8447   25.5964 H         1 ZU5         0.0257
     83 H38        15.7336    4.9687   23.9526 H         1 ZU5         0.0257
     84 H39        17.3731    7.3652   22.8598 H         1 ZU5         0.0257
     85 H40        16.9852    5.8262   22.0185 H         1 ZU5         0.0257
     86 H41        18.6948    6.3509   22.1882 H         1 ZU5         0.0257
     87 H42        18.6972    7.3617   24.8017 H         1 ZU5         0.0257
     88 H43        19.7846    6.3492   23.7922 H         1 ZU5         0.0257
     89 H44        19.4095    5.8582   25.4789 H         1 ZU5         0.0257
     90 H45        16.7159    3.2482   20.6560 H         1 ZU5         0.1900
     91 H46        18.9827    5.4935   17.2308 H         1 ZU5         0.0776
     92 H47        20.2277    4.3223   17.7831 H         1 ZU5         0.0776
     93 H48        21.9547    5.0491   19.1985 H         1 ZU5         0.0557
     94 H49        23.2566    6.8825   20.3952 H         1 ZU5         0.0599
     95 H50        22.1412    9.2223   20.6749 H         1 ZU5         0.0559
     96 H51        19.7778    9.5548   19.7248 H         1 ZU5         0.0599
     97 H52        18.5839    7.6260   18.5493 H         1 ZU5         0.0557
@<TRIPOS>BOND
     1    1    2 1  
     2    1    3 1  
     3    1    4 1  
     4    2    3 1  
     5    4    5 1  
     6    4   15 2  
     7    5    6 1  
     8    6    7 1  
     9    7    8 1  
    10    7   16 1  
    11    8    9 1  
    12    9   10 1  
    13    9   13 1  
    14   10   11 1  
    15   11   12 1  
    16   12   13 am 
    17   13   14 2  
    18   16   17 am 
    19   17   18 2  
    20   17   19 1  
    21   19   20 1  
    22   19   24 1  
    23   20   21 1  
    24   21   22 1  
    25   21   23 1  
    26   24   25 am 
    27   25   26 2  
    28   25   27 1  
    29   27   28 1  
    30   27   35 1  
    31   28   29 1  
    32   28   30 1  
    33   30   31 1  
    34   31   32 1  
    35   31   33 1  
    36   31   34 1  
    37   35   36 am 
    38   36   37 2  
    39   36   38 1  
    40   38   39 1  
    41   39   40 1  
    42   40   41 ar 
    43   40   45 ar 
    44   41   42 ar 
    45   42   43 ar 
    46   43   44 ar 
    47   44   45 ar 
    48    1   46 1  
    49    2   47 1  
    50    2   48 1  
    51    3   49 1  
    52    3   50 1  
    53    5   51 1  
    54    5   52 1  
    55    6   53 1  
    56    6   54 1  
    57    7   55 1  
    58    8   56 1  
    59    8   57 1  
    60    9   58 1  
    61   10   59 1  
    62   10   60 1  
    63   11   61 1  
    64   11   62 1  
    65   12   63 1  
    66   16   64 1  
    67   19   65 1  
    68   20   66 1  
    69   20   67 1  
    70   21   68 1  
    71   22   69 1  
    72   22   70 1  
    73   22   71 1  
    74   23   72 1  
    75   23   73 1  
    76   23   74 1  
    77   24   75 1  
    78   27   76 1  
    79   28   77 1  
    80   29   78 1  
    81   29   79 1  
    82   29   80 1  
    83   32   81 1  
    84   32   82 1  
    85   32   83 1  
    86   33   84 1  
    87   33   85 1  
    88   33   86 1  
    89   34   87 1  
    90   34   88 1  
    91   34   89 1  
    92   35   90 1  
    93   39   91 1  
    94   39   92 1  
    95   41   93 1  
    96   42   94 1  
    97   43   95 1  
    98   44   96 1  
    99   45   97 1  
@<TRIPOS>SUBSTRUCTURE
     1 ZU5         1

