### 
### Created by X-TOOL on Mon Sep 10 21:13:01 2018
### 

@<TRIPOS>MOLECULE
2zv2_ligand
   33    37     1     0     0
SMALL
GAST_HUCK


@<TRIPOS>ATOM
      1 CAW         1.1000   -8.2610  -26.3270 C.ar      1 609         0.0187
      2 CAR         1.0630   -9.6440  -26.4790 C.ar      1 609         0.0046
      3 CAI        -0.0810  -10.2480  -26.9900 C.ar      1 609        -0.0449
      4 CAF        -1.1830   -9.4780  -27.3430 C.ar      1 609        -0.0515
      5 CAJ        -1.1470   -8.0970  -27.1910 C.ar      1 609        -0.0372
      6 CAS        -0.0030   -7.4900  -26.6830 C.ar      1 609         0.0754
      7 CAP         0.0240   -6.1090  -26.5180 C.2       1 609         0.2764
      8 OAB        -0.9380   -5.4210  -26.8560 O.2       1 609        -0.3521
      9 NAX         1.1650   -5.5030  -25.9810 N.am      1 609        -0.1444
     10 CAU         1.4630   -4.1890  -25.6090 C.ar      1 609         0.1152
     11 CAK         0.7390   -3.0040  -25.6640 C.ar      1 609        -0.0346
     12 CAE         1.2930   -1.8360  -25.1530 C.ar      1 609        -0.0751
     13 CAD         2.5660   -1.8600  -24.5930 C.ar      1 609        -0.0774
     14 CAH         3.2880   -3.0470  -24.5430 C.ar      1 609        -0.0629
     15 CAQ         2.7360   -4.2180  -25.0510 C.ar      1 609         0.0333
     16 NAM         3.1890   -5.4700  -25.0840 N.2       1 609        -0.3085
     17 CAV         2.2760   -6.2750  -25.6250 C.2       1 609         0.1710
     18 CAT         2.2370   -7.6530  -25.8030 C.ar      1 609         0.0481
     19 CAL         3.3340   -8.4250  -25.4370 C.ar      1 609        -0.0385
     20 CAG         3.2940   -9.8060  -25.5940 C.ar      1 609        -0.0399
     21 CAO         2.1590  -10.4190  -26.1130 C.ar      1 609         0.0230
     22 CAN         2.1340  -11.9460  -26.2390 C.2       1 609         0.0661
     23 OAC         1.0460  -12.5440  -26.0990 O.co2     1 609        -0.5598
     24 OAA         3.2220  -12.5280  -26.4370 O.co2     1 609        -0.5598
     25 H          -0.1135  -11.3304  -27.1142 H         1 609         0.0687
     26 H          -2.0774   -9.9583  -27.7399 H         1 609         0.0642
     27 H          -2.0107   -7.4926  -27.4684 H         1 609         0.0704
     28 H          -0.2576   -2.9905  -26.1053 H         1 609         0.0548
     29 H           0.7308   -0.9029  -25.1911 H         1 609         0.0538
     30 H           2.9995   -0.9440  -24.1915 H         1 609         0.0516
     31 H           4.2864   -3.0598  -24.1058 H         1 609         0.0547
     32 H           4.2244   -7.9481  -25.0274 H         1 609         0.0692
     33 H           4.1554  -10.4101  -25.3092 H         1 609         0.0672
@<TRIPOS>BOND
     1    1    2 ar 
     2    1    6 ar 
     3    1   18 ar 
     4    2    3 ar 
     5    2   21 ar 
     6    3    4 ar 
     7    4    5 ar 
     8    5    6 ar 
     9    6    7 1  
    10    7    8 2  
    11    7    9 am 
    12    9   10 1  
    13    9   17 1  
    14   10   11 ar 
    15   10   15 ar 
    16   11   12 ar 
    17   12   13 ar 
    18   13   14 ar 
    19   14   15 ar 
    20   15   16 1  
    21   16   17 2  
    22   17   18 1  
    23   18   19 ar 
    24   19   20 ar 
    25   20   21 ar 
    26   21   22 1  
    27   22   23 ar 
    28   22   24 ar 
    29    3   25 1  
    30    4   26 1  
    31    5   27 1  
    32   11   28 1  
    33   12   29 1  
    34   13   30 1  
    35   14   31 1  
    36   19   32 1  
    37   20   33 1  
@<TRIPOS>SUBSTRUCTURE
     1 609         1

