### 
### Created by X-TOOL on Mon Sep 10 21:12:58 2018
### 

@<TRIPOS>MOLECULE
2zv9_ligand
   37    39     1     0     0
SMALL
GAST_HUCK


@<TRIPOS>ATOM
      1 C1         19.1000    9.4940   -6.8470 C.ar      1 PP2         0.1643
      2 N2         18.0750    9.8760   -6.0380 N.ar      1 PP2        -0.2674
      3 C3         16.8040    9.6510   -6.4110 C.ar      1 PP2         0.0566
      4 N4         16.5110    9.0540   -7.5790 N.ar      1 PP2        -0.2655
      5 C5         17.4890    8.6550   -8.4210 C.ar      1 PP2         0.1276
      6 C6         18.8290    8.8710   -8.0690 C.ar      1 PP2         0.0877
      7 C8         20.0570    8.5820   -8.6840 C.2       1 PP2         0.0736
      8 N9         21.0610    9.0170   -7.8900 N.2       1 PP2        -0.1914
      9 N10        20.4340    9.5670   -6.7760 N.pl3     1 PP2        -0.1771
     10 C11        20.2710    7.9440  -10.0080 C.ar      1 PP2        -0.0075
     11 C12        19.8770    8.6460  -11.1440 C.ar      1 PP2        -0.0537
     12 C13        20.0650    8.0930  -12.4030 C.ar      1 PP2        -0.0479
     13 C14        20.6590    6.8400  -12.5250 C.ar      1 PP2         0.0399
     14 C15        21.0600    6.1370  -11.3870 C.ar      1 PP2        -0.0479
     15 C16        20.8710    6.6950  -10.1210 C.ar      1 PP2        -0.0537
     16 C22        21.2140   10.1440   -5.6320 C.3       1 PP2         0.0837
     17 C23        20.9030    9.3420   -4.3740 C.3       1 PP2        -0.0311
     18 C24        20.8880   11.6170   -5.4190 C.3       1 PP2        -0.0311
     19 C25        22.7070   10.0320   -5.9120 C.3       1 PP2        -0.0311
     20 N25        17.1300    8.0560   -9.5840 N.pl3     1 PP2        -0.3125
     21 CL         20.9010    6.1400  -14.1610 Cl        1 PP2        -0.0708
     22 H1         15.9970    9.9577   -5.7554 H         1 PP2         0.1030
     23 H2         19.4230    9.6254  -11.0450 H         1 PP2         0.0618
     24 H3         19.7505    8.6346  -13.2878 H         1 PP2         0.0622
     25 H4         21.5175    5.1593  -11.4863 H         1 PP2         0.0622
     26 H5         21.1893    6.1590   -9.2342 H         1 PP2         0.0618
     27 H6         21.4693    9.7553   -3.5264 H         1 PP2         0.0262
     28 H7         21.1894    8.2913   -4.5288 H         1 PP2         0.0262
     29 H8         19.8259    9.4006   -4.1587 H         1 PP2         0.0262
     30 H9         21.4770   12.0045   -4.5746 H         1 PP2         0.0262
     31 H10        19.8158   11.7272   -5.1993 H         1 PP2         0.0262
     32 H11        21.1359   12.1828   -6.3292 H         1 PP2         0.0262
     33 H12        23.2711   10.4571   -5.0687 H         1 PP2         0.0262
     34 H13        22.9501   10.5846   -6.8315 H         1 PP2         0.0262
     35 H14        22.9781    8.9734   -6.0379 H         1 PP2         0.0262
     36 H15        17.8536    7.7411  -10.2459 H         1 PP2         0.1842
     37 H16        16.1338    7.9161   -9.8052 H         1 PP2         0.1842
@<TRIPOS>BOND
     1    1    2 ar 
     2    1    6 ar 
     3    1    9 1  
     4    2    3 ar 
     5    3    4 ar 
     6    4    5 ar 
     7    5    6 ar 
     8    5   20 1  
     9    6    7 1  
    10    7    8 2  
    11    7   10 1  
    12    8    9 1  
    13    9   16 1  
    14   10   11 ar 
    15   10   15 ar 
    16   11   12 ar 
    17   12   13 ar 
    18   13   14 ar 
    19   13   21 1  
    20   14   15 ar 
    21   16   17 1  
    22   16   18 1  
    23   16   19 1  
    24    3   22 1  
    25   11   23 1  
    26   12   24 1  
    27   14   25 1  
    28   15   26 1  
    29   17   27 1  
    30   17   28 1  
    31   17   29 1  
    32   18   30 1  
    33   18   31 1  
    34   18   32 1  
    35   19   33 1  
    36   19   34 1  
    37   19   35 1  
    38   20   36 1  
    39   20   37 1  
@<TRIPOS>SUBSTRUCTURE
     1 PP2         1

