### 
### Created by X-TOOL on Mon Sep 10 21:12:58 2018
### 

@<TRIPOS>MOLECULE
2zva_ligand
   60    63     1     0     0
SMALL
GAST_HUCK


@<TRIPOS>ATOM
      1 C1         16.7010   -8.0160   27.4590 C.2       1 1N1        -0.0104
      2 C2         18.0480   -8.3480   27.6590 C.2       1 1N1         0.1128
      3 C3         19.0890   -7.9330   28.6560 C.2       1 1N1         0.2261
      4 N6         17.0400  -13.4530   17.9910 N.4       1 1N1         0.2397
      5 C7         21.2830   -6.3340   32.8480 C.ar      1 1N1        -0.0834
      6 C8         20.6620   -7.5800   32.7920 C.ar      1 1N1        -0.0735
      7 C9         19.7920   -7.8990   31.7470 C.ar      1 1N1        -0.0235
      8 C10        19.1410   -9.2630   31.7420 C.3       1 1N1        -0.0351
      9 C11        17.4680  -10.8930   23.8000 C.ar      1 1N1         0.1348
     10 C12        16.9700  -11.6170   22.7140 C.ar      1 1N1         0.0208
     11 C13        17.8550  -12.3110   21.8780 C.ar      1 1N1         0.1091
     12 C14        19.6600  -11.5620   23.2190 C.ar      1 1N1         0.0703
     13 C15        21.1380  -11.5180   23.5120 C.3       1 1N1        -0.0028
     14 C16        18.3180  -13.9660   20.0690 C.3       1 1N1         0.0716
     15 C19        16.0210  -13.0030   20.2880 C.3       1 1N1         0.0716
     16 C20        16.8720  -13.7150   16.5640 C.3       1 1N1        -0.0080
     17 C21        16.8720  -15.2150   16.2760 C.3       1 1N1         0.0841
     18 N          16.6120  -10.2060   24.6190 N.pl3     1 1N1        -0.2165
     19 C          16.9810   -9.4630   25.7230 C.2       1 1N1         0.2125
     20 N1         16.1170   -8.6460   26.3810 N.2       1 1N1        -0.2981
     21 S          18.5500   -9.4750   26.4460 S.3       1 1N1         0.0354
     22 N2         18.7040   -7.2170   29.7130 N.am      1 1N1        -0.2384
     23 C4         19.5470   -6.9540   30.7470 C.ar      1 1N1         0.0817
     24 C5         20.1690   -5.7100   30.8040 C.ar      1 1N1         0.0531
     25 C6         21.0370   -5.3950   31.8470 C.ar      1 1N1        -0.0685
     26 CL         19.8590   -4.4920   29.5210 Cl        1 1N1        -0.0853
     27 O          20.2620   -8.2480   28.4890 O.2       1 1N1        -0.3859
     28 N3         19.1860  -12.2640   22.1610 N.ar      1 1N1        -0.2701
     29 N4         18.8050  -10.8900   24.0200 N.ar      1 1N1        -0.2662
     30 N5         17.4010  -13.0680   20.7650 N.pl3     1 1N1        -0.2818
     31 C17        18.3680  -13.6260   18.5840 C.3       1 1N1        -0.0108
     32 C18        15.8780  -12.9990   18.7620 C.3       1 1N1        -0.0108
     33 O1         15.7140  -15.8100   16.8760 O.3       1 1N1        -0.3898
     34 H1         16.1621   -7.3201   28.1002 H         1 1N1         0.0652
     35 H2         16.8147  -14.4105   18.2112 H         1 1N1         0.2036
     36 H3         21.9539   -6.0958   33.6655 H         1 1N1         0.0471
     37 H4         20.8564   -8.3106   33.5688 H         1 1N1         0.0515
     38 H5         19.4788   -9.8337   32.6196 H         1 1N1         0.0362
     39 H6         19.4228   -9.8004   30.8245 H         1 1N1         0.0362
     40 H7         18.0477   -9.1476   31.7783 H         1 1N1         0.0362
     41 H8         15.9040  -11.6418   22.5189 H         1 1N1         0.0519
     42 H9         21.6781  -12.1166   22.7637 H         1 1N1         0.0460
     43 H10        21.3254  -11.9290   24.5150 H         1 1N1         0.0460
     44 H11        21.4891  -10.4764   23.4710 H         1 1N1         0.0460
     45 H12        17.9731  -15.0032   20.1921 H         1 1N1         0.0577
     46 H13        19.3249  -13.8609   20.4992 H         1 1N1         0.0577
     47 H14        15.5650  -12.0813   20.6786 H         1 1N1         0.0577
     48 H15        15.4794  -13.8756   20.6819 H         1 1N1         0.0577
     49 H16        17.6987  -13.2435   16.0125 H         1 1N1         0.0837
     50 H17        15.9161  -13.2852   16.2300 H         1 1N1         0.0837
     51 H18        17.7800  -15.6706   16.6977 H         1 1N1         0.0610
     52 H19        16.8494  -15.3809   15.1888 H         1 1N1         0.0610
     53 H20        15.6081  -10.2469   24.3924 H         1 1N1         0.2300
     54 H21        17.7691   -6.8636   29.7462 H         1 1N1         0.2226
     55 H22        21.5189   -4.4246   31.8803 H         1 1N1         0.0526
     56 H23        18.9328  -12.6906   18.4575 H         1 1N1         0.0835
     57 H24        18.8845  -14.4406   18.0552 H         1 1N1         0.0835
     58 H25        15.0312  -13.6523   18.5048 H         1 1N1         0.0835
     59 H26        15.6535  -11.9681   18.4509 H         1 1N1         0.0835
     60 H27        15.7110  -16.7433   16.6986 H         1 1N1         0.2096
@<TRIPOS>BOND
     1    2    1 2  
     2    1   20 1  
     3    3    2 1  
     4    2   21 1  
     5   22    3 am 
     6    3   27 2  
     7    4   16 1  
     8   31    4 1  
     9   32    4 1  
    10    6    5 ar 
    11    5   25 ar 
    12    7    6 ar 
    13    7    8 1  
    14   23    7 ar 
    15    9   10 ar 
    16   18    9 1  
    17    9   29 ar 
    18   10   11 ar 
    19   11   28 ar 
    20   11   30 1  
    21   12   13 1  
    22   12   28 ar 
    23   29   12 ar 
    24   30   14 1  
    25   14   31 1  
    26   30   15 1  
    27   15   32 1  
    28   16   17 1  
    29   17   33 1  
    30   19   18 1  
    31   19   20 2  
    32   21   19 1  
    33   22   23 1  
    34   23   24 ar 
    35   24   25 ar 
    36   24   26 1  
    37    1   34 1  
    38    4   35 1  
    39    5   36 1  
    40    6   37 1  
    41    8   38 1  
    42    8   39 1  
    43    8   40 1  
    44   10   41 1  
    45   13   42 1  
    46   13   43 1  
    47   13   44 1  
    48   14   45 1  
    49   14   46 1  
    50   15   47 1  
    51   15   48 1  
    52   16   49 1  
    53   16   50 1  
    54   17   51 1  
    55   17   52 1  
    56   18   53 1  
    57   22   54 1  
    58   25   55 1  
    59   31   56 1  
    60   31   57 1  
    61   32   58 1  
    62   32   59 1  
    63   33   60 1  
@<TRIPOS>SUBSTRUCTURE
     1 1N1         1

