### 
### Created by X-TOOL on Mon Sep 10 21:13:01 2018
### 

@<TRIPOS>MOLECULE
2zvj_ligand
   29    31     1     0     0
SMALL
GAST_HUCK


@<TRIPOS>ATOM
      1 O15       -12.9340    2.6220  -21.2850 O.2       1 KOM        -0.3797
      2 C13       -12.9240    3.8300  -21.5570 C.2       1 KOM         0.2543
      3 O14       -14.0720    4.5270  -21.3100 O.3       1 KOM        -0.2180
      4 C4        -14.1600    5.8660  -21.5980 C.ar      1 KOM         0.1625
      5 C5        -15.4070    6.6160  -21.3170 C.ar      1 KOM         0.1570
      6 O9        -16.5000    6.0140  -20.7640 O.3       1 KOM        -0.3402
      7 C6        -15.4370    8.0570  -21.6590 C.ar      1 KOM         0.1157
      8 O10       -16.5910    8.7420  -21.4160 O.3       1 KOM        -0.3359
      9 C1        -14.3050    8.6680  -22.2240 C.ar      1 KOM        -0.0441
     10 C12       -11.7900    4.4290  -22.1090 C.2       1 KOM         0.0195
     11 C11       -11.7650    5.7830  -22.4510 C.2       1 KOM        -0.0069
     12 C3        -12.9980    6.5900  -22.1820 C.ar      1 KOM         0.0131
     13 C2        -13.1250    7.9550  -22.4740 C.ar      1 KOM        -0.0717
     14 C18       -10.4990    6.3590  -23.0120 C.ar      1 KOM        -0.0107
     15 C24        -9.9390    7.4950  -22.3980 C.ar      1 KOM        -0.0499
     16 C23        -8.7460    8.0620  -22.8680 C.ar      1 KOM        -0.0580
     17 C22        -8.0890    7.4620  -23.9480 C.ar      1 KOM        -0.0589
     18 C21        -8.6320    6.3120  -24.5530 C.ar      1 KOM        -0.0580
     19 C20        -9.8290    5.7530  -24.0840 C.ar      1 KOM        -0.0499
     20 H1        -17.1947    6.6539  -20.6616 H         1 KOM         0.2403
     21 H2        -16.4807    9.6487  -21.6772 H         1 KOM         0.2460
     22 H3        -14.3457    9.7220  -22.4739 H         1 KOM         0.0463
     23 H4        -10.9005    3.8238  -22.2775 H         1 KOM         0.0569
     24 H5        -12.2805    8.4775  -22.9086 H         1 KOM         0.0514
     25 H6        -10.4396    7.9399  -21.5456 H         1 KOM         0.0650
     26 H7         -8.3387    8.9518  -22.4018 H         1 KOM         0.0625
     27 H8         -7.1615    7.8826  -24.3192 H         1 KOM         0.0641
     28 H9         -8.1186    5.8540  -25.3907 H         1 KOM         0.0625
     29 H10       -10.2331    4.8597  -24.5464 H         1 KOM         0.0650
@<TRIPOS>BOND
     1    1    2 2  
     2    2    3 1  
     3    2   10 1  
     4    3    4 1  
     5    4    5 ar 
     6    4   12 ar 
     7    5    6 1  
     8    5    7 ar 
     9    7    8 1  
    10    7    9 ar 
    11    9   13 ar 
    12   10   11 2  
    13   11   12 1  
    14   11   14 1  
    15   12   13 ar 
    16   14   15 ar 
    17   14   19 ar 
    18   15   16 ar 
    19   16   17 ar 
    20   17   18 ar 
    21   18   19 ar 
    22    6   20 1  
    23    8   21 1  
    24    9   22 1  
    25   10   23 1  
    26   13   24 1  
    27   15   25 1  
    28   16   26 1  
    29   17   27 1  
    30   18   28 1  
    31   19   29 1  
@<TRIPOS>SUBSTRUCTURE
     1 KOM         1

