### 
### Created by X-TOOL on Mon Sep 10 21:12:59 2018
### 

@<TRIPOS>MOLECULE
2zwz_ligand
   30    30     1     0     0
SMALL
GAST_HUCK


@<TRIPOS>ATOM
      1 OAE        -3.1150   26.0590   24.4980 O.3       1 ZWZ        -0.3833
      2 CAK        -1.7520   26.4870   24.5090 C.3       1 ZWZ         0.1308
      3 CAJ        -1.5670   27.6750   23.5630 C.3       1 ZWZ         0.1175
      4 OAD        -2.0330   27.3480   22.2530 O.3       1 ZWZ        -0.3862
      5 CAI        -0.0770   28.0090   23.5140 C.3       1 ZWZ         0.1256
      6 OAC         0.5930   26.8790   22.9420 O.3       1 ZWZ        -0.3835
      7 CAH         0.4280   28.3030   24.9310 C.3       1 ZWZ         0.0041
      8 CAA         1.9310   28.5830   24.9400 C.3       1 ZWZ        -0.0191
      9 NAG         0.1470   27.1820   25.8460 N.4       1 ZWZ         0.2387
     10 CAL        -1.2940   26.8920   25.9150 C.3       1 ZWZ         0.0474
     11 CAF        -1.5220   25.7600   26.9200 C.3       1 ZWZ         0.0111
     12 NAB        -1.5400   26.2820   28.2960 N.4       1 ZWZ         0.2226
     13 H1         -3.3566   25.7977   23.6172 H         1 ZWZ         0.2102
     14 H2         -1.1238   25.6533   24.1622 H         1 ZWZ         0.0679
     15 H3         -2.1298   28.5406   23.9425 H         1 ZWZ         0.0649
     16 H4         -1.5411   26.6070   21.9189 H         1 ZWZ         0.2100
     17 H5          0.0888   28.8939   22.8820 H         1 ZWZ         0.0677
     18 H6          0.2566   26.7221   22.0675 H         1 ZWZ         0.2102
     19 H7         -0.0965   29.1963   25.3010 H         1 ZWZ         0.0874
     20 H8          2.2593   28.7894   25.9694 H         1 ZWZ         0.0285
     21 H9          2.1453   29.4552   24.3049 H         1 ZWZ         0.0285
     22 H10         2.4697   27.7058   24.5523 H         1 ZWZ         0.0285
     23 H11         0.4778   27.4205   26.7678 H         1 ZWZ         0.2023
     24 H12         0.6311   26.3613   25.5172 H         1 ZWZ         0.2023
     25 H13        -1.8454   27.7864   26.2406 H         1 ZWZ         0.0931
     26 H14        -0.7111   25.0230   26.8240 H         1 ZWZ         0.0870
     27 H15        -2.4856   25.2750   26.7052 H         1 ZWZ         0.0870
     28 H16        -1.6910   25.5226   28.9415 H         1 ZWZ         0.1996
     29 H17        -2.2837   26.9558   28.3901 H         1 ZWZ         0.1996
     30 H18        -0.6576   26.7250   28.4989 H         1 ZWZ         0.1996
@<TRIPOS>BOND
     1    1    2 1  
     2    2    3 1  
     3    2   10 1  
     4    3    4 1  
     5    3    5 1  
     6    5    6 1  
     7    5    7 1  
     8    7    8 1  
     9    7    9 1  
    10    9   10 1  
    11   10   11 1  
    12   11   12 1  
    13    1   13 1  
    14    2   14 1  
    15    3   15 1  
    16    4   16 1  
    17    5   17 1  
    18    6   18 1  
    19    7   19 1  
    20    8   20 1  
    21    8   21 1  
    22    8   22 1  
    23    9   23 1  
    24    9   24 1  
    25   10   25 1  
    26   11   26 1  
    27   11   27 1  
    28   12   28 1  
    29   12   29 1  
    30   12   30 1  
@<TRIPOS>SUBSTRUCTURE
     1 ZWZ         1

