### 
### Created by X-TOOL on Mon Sep 10 21:13:00 2018
### 

@<TRIPOS>MOLECULE
2zx5_ligand
   51    53     1     0     0
SMALL
GAST_HUCK


@<TRIPOS>ATOM
      1 CAT        -4.8310   27.3170   29.2230 C.ar      1 ZX5        -0.0215
      2 CAI        -4.6060   27.8180   27.9450 C.ar      1 ZX5        -0.0747
      3 CAG        -5.5490   27.6040   26.9460 C.ar      1 ZX5        -0.0792
      4 CAF        -6.7130   26.8940   27.2200 C.ar      1 ZX5        -0.0768
      5 CAH        -6.9370   26.3970   28.4990 C.ar      1 ZX5        -0.0443
      6 CAS        -5.9940   26.6100   29.4990 C.ar      1 ZX5         0.0603
      7 NAP        -5.9350   26.2430   30.7770 N.pl3     1 ZX5        -0.2891
      8 CAJ        -4.7990   26.6780   31.3190 C.2       1 ZX5         0.0166
      9 CAR        -4.0940   27.3350   30.4020 C.2       1 ZX5        -0.0440
     10 CAL        -2.7100   27.9510   30.6040 C.3       1 ZX5        -0.0195
     11 CAK        -1.6340   26.8640   30.5820 C.3       1 ZX5         0.0415
     12 CAQ        -1.6930   26.0310   29.2980 C.2       1 ZX5         0.1774
     13 OAB        -1.8070   24.8080   29.3570 O.2       1 ZX5        -0.3970
     14 NAN        -1.6040   26.7010   28.1520 N.am      1 ZX5        -0.2814
     15 CAM        -1.6410   26.0200   26.8490 C.3       1 ZX5         0.0761
     16 CAV        -1.4040   27.0300   25.7230 C.3       1 ZX5         0.0273
     17 NAO         0.0300   27.3410   25.6130 N.4       1 ZX5         0.2364
     18 CAU         0.2420   28.4320   24.6470 C.3       1 ZX5         0.0040
     19 CAA         1.7310   28.7740   24.6030 C.3       1 ZX5        -0.0191
     20 CAW        -0.2690   28.0510   23.2530 C.3       1 ZX5         0.1256
     21 OAC         0.5370   27.0070   22.6980 O.3       1 ZX5        -0.3835
     22 CAY        -1.7240   27.5840   23.3100 C.3       1 ZX5         0.1174
     23 OAE        -2.0950   27.0690   22.0290 O.3       1 ZX5        -0.3862
     24 CAX        -1.8760   26.4890   24.3710 C.3       1 ZX5         0.1278
     25 OAD        -3.2430   26.0790   24.4590 O.3       1 ZX5        -0.3835
     26 H          -3.6949   28.3756   27.7278 H         1 ZX5         0.0540
     27 H          -5.3752   27.9945   25.9433 H         1 ZX5         0.0510
     28 H          -7.4487   26.7274   26.4331 H         1 ZX5         0.0530
     29 H          -7.8492   25.8419   28.7175 H         1 ZX5         0.0541
     30 H          -6.6522   25.7088   31.2676 H         1 ZX5         0.2216
     31 H          -4.4942   26.5202   32.3535 H         1 ZX5         0.0795
     32 H          -2.6840   28.4567   31.5692 H         1 ZX5         0.0374
     33 H          -2.5157   28.6592   29.7985 H         1 ZX5         0.0374
     34 H          -1.8012   26.1993   31.4296 H         1 ZX5         0.0516
     35 H          -0.6581   27.3469   30.6325 H         1 ZX5         0.0516
     36 H          -1.5073   27.7161   28.1779 H         1 ZX5         0.1853
     37 H          -2.6181   25.5560   26.7146 H         1 ZX5         0.0577
     38 H          -0.8600   25.2602   26.8193 H         1 ZX5         0.0577
     39 H          -1.9748   27.9248   25.9713 H         1 ZX5         0.0897
     40 H           0.5279   26.5104   25.2927 H         1 ZX5         0.2021
     41 H           0.3793   27.6315   26.5262 H         1 ZX5         0.2021
     42 H          -0.3249   29.3056   24.9690 H         1 ZX5         0.0874
     43 H           2.0594   29.0896   25.5933 H         1 ZX5         0.0285
     44 H           2.2956   27.8940   24.2949 H         1 ZX5         0.0285
     45 H           1.8961   29.5814   23.8896 H         1 ZX5         0.0285
     46 H          -0.2071   28.9381   22.6226 H         1 ZX5         0.0677
     47 H           0.2066   26.7783   21.8262 H         1 ZX5         0.2102
     48 H          -2.3697   28.4221   23.5724 H         1 ZX5         0.0649
     49 H          -1.5247   26.3299   21.8051 H         1 ZX5         0.2100
     50 H          -1.2705   25.6265   24.0925 H         1 ZX5         0.0678
     51 H          -3.5288   25.7372   23.6087 H         1 ZX5         0.2102
@<TRIPOS>BOND
     1    1    2 ar 
     2    1    6 ar 
     3    1    9 1  
     4    2    3 ar 
     5    3    4 ar 
     6    4    5 ar 
     7    5    6 ar 
     8    6    7 1  
     9    7    8 1  
    10    8    9 2  
    11    9   10 1  
    12   10   11 1  
    13   11   12 1  
    14   12   13 2  
    15   12   14 am 
    16   14   15 1  
    17   15   16 1  
    18   16   17 1  
    19   16   24 1  
    20   17   18 1  
    21   18   19 1  
    22   18   20 1  
    23   20   21 1  
    24   20   22 1  
    25   22   23 1  
    26   22   24 1  
    27   24   25 1  
    28    2   26 1  
    29    3   27 1  
    30    4   28 1  
    31    5   29 1  
    32    7   30 1  
    33    8   31 1  
    34   10   32 1  
    35   10   33 1  
    36   11   34 1  
    37   11   35 1  
    38   14   36 1  
    39   15   37 1  
    40   15   38 1  
    41   16   39 1  
    42   17   40 1  
    43   17   41 1  
    44   18   42 1  
    45   19   43 1  
    46   19   44 1  
    47   19   45 1  
    48   20   46 1  
    49   21   47 1  
    50   22   48 1  
    51   23   49 1  
    52   24   50 1  
    53   25   51 1  
@<TRIPOS>SUBSTRUCTURE
     1 ZX5         1

