### 
### Created by X-TOOL on Mon Sep 10 21:12:59 2018
### 

@<TRIPOS>MOLECULE
2zx6_ligand
   48    50     1     0     0
SMALL
GAST_HUCK


@<TRIPOS>ATOM
      1 CAS        -1.1610   25.1410   31.1330 C.ar      1 ZX6        -0.0194
      2 CAI        -1.7660   24.1020   30.4360 C.ar      1 ZX6        -0.0746
      3 CAG        -1.3070   22.7970   30.5960 C.ar      1 ZX6        -0.0792
      4 CAF        -0.2480   22.5260   31.4560 C.ar      1 ZX6        -0.0767
      5 CAH         0.3560   23.5660   32.1570 C.ar      1 ZX6        -0.0443
      6 CAR        -0.1000   24.8690   31.9900 C.ar      1 ZX6         0.0606
      7 NAO         0.3160   26.0310   32.4850 N.pl3     1 ZX6        -0.2884
      8 CAJ        -0.4270   27.0170   31.9850 C.2       1 ZX6         0.0192
      9 CAQ        -1.3400   26.5200   31.1540 C.2       1 ZX6        -0.0275
     10 CAL        -2.3730   27.3610   30.4010 C.3       1 ZX6         0.0536
     11 CAP        -2.5730   26.9930   28.9260 C.2       1 ZX6         0.1813
     12 OAB        -3.6080   27.3560   28.3690 O.2       1 ZX6        -0.3955
     13 NAM        -1.5730   26.4080   28.2680 N.am      1 ZX6        -0.2806
     14 CAK        -1.6930   25.9670   26.8670 C.3       1 ZX6         0.0762
     15 CAU        -1.4420   27.0340   25.7960 C.3       1 ZX6         0.0273
     16 NAN        -0.0090   27.3760   25.7340 N.4       1 ZX6         0.2364
     17 CAT         0.2610   28.4520   24.7620 C.3       1 ZX6         0.0040
     18 CAA         1.7620   28.7420   24.7310 C.3       1 ZX6        -0.0191
     19 CAV        -0.2350   28.1170   23.3480 C.3       1 ZX6         0.1256
     20 OAC         0.5660   27.0820   22.7690 O.3       1 ZX6        -0.3835
     21 CAX        -1.6950   27.6580   23.4010 C.3       1 ZX6         0.1174
     22 OAE        -2.1520   27.2080   22.1240 O.3       1 ZX6        -0.3862
     23 CAW        -1.7980   26.5060   24.4000 C.3       1 ZX6         0.1278
     24 OAD        -3.1190   25.9680   24.3230 O.3       1 ZX6        -0.3835
     25 H1         -2.5948   24.3073   29.7681 H         1 ZX6         0.0540
     26 H2         -1.7772   21.9887   30.0478 H         1 ZX6         0.0510
     27 H3          0.1057   21.5088   31.5799 H         1 ZX6         0.0530
     28 H4          1.1796   23.3607   32.8312 H         1 ZX6         0.0541
     29 H5          1.0922   26.1501   33.1515 H         1 ZX6         0.2218
     30 H6         -0.3054   28.0731   32.2212 H         1 ZX6         0.0803
     31 H7         -2.0535   28.4125   30.4479 H         1 ZX6         0.0583
     32 H8         -3.3402   27.2484   30.9128 H         1 ZX6         0.0583
     33 H9         -0.7058   26.2623   28.7442 H         1 ZX6         0.1853
     34 H10        -2.7130   25.5812   26.7232 H         1 ZX6         0.0577
     35 H11        -0.9680   25.1552   26.7078 H         1 ZX6         0.0577
     36 H12        -2.0389   27.9283   26.0281 H         1 ZX6         0.0897
     37 H13         0.5100   26.5554   25.4634 H         1 ZX6         0.2021
     38 H14         0.2931   27.6788   26.6468 H         1 ZX6         0.2021
     39 H15        -0.2652   29.3568   25.1002 H         1 ZX6         0.0874
     40 H16         1.9655   29.5443   24.0066 H         1 ZX6         0.0285
     41 H17         2.3051   27.8329   24.4334 H         1 ZX6         0.0285
     42 H18         2.0953   29.0575   25.7307 H         1 ZX6         0.0285
     43 H19        -0.1631   29.0187   22.7221 H         1 ZX6         0.0677
     44 H20         0.2465   26.8869   21.8958 H         1 ZX6         0.2102
     45 H21        -2.3258   28.4955   23.7336 H         1 ZX6         0.0649
     46 H22        -1.6175   26.4768   21.8373 H         1 ZX6         0.2100
     47 H23        -1.0801   25.7177   24.1296 H         1 ZX6         0.0678
     48 H24        -3.2804   25.6527   23.4415 H         1 ZX6         0.2102
@<TRIPOS>BOND
     1    1    2 ar 
     2    1    6 ar 
     3    1    9 1  
     4    2    3 ar 
     5    3    4 ar 
     6    4    5 ar 
     7    5    6 ar 
     8    6    7 1  
     9    7    8 1  
    10    8    9 2  
    11    9   10 1  
    12   10   11 1  
    13   11   12 2  
    14   11   13 am 
    15   13   14 1  
    16   14   15 1  
    17   15   16 1  
    18   15   23 1  
    19   16   17 1  
    20   17   18 1  
    21   17   19 1  
    22   19   20 1  
    23   19   21 1  
    24   21   22 1  
    25   21   23 1  
    26   23   24 1  
    27    2   25 1  
    28    3   26 1  
    29    4   27 1  
    30    5   28 1  
    31    7   29 1  
    32    8   30 1  
    33   10   31 1  
    34   10   32 1  
    35   13   33 1  
    36   14   34 1  
    37   14   35 1  
    38   15   36 1  
    39   16   37 1  
    40   16   38 1  
    41   17   39 1  
    42   18   40 1  
    43   18   41 1  
    44   18   42 1  
    45   19   43 1  
    46   20   44 1  
    47   21   45 1  
    48   22   46 1  
    49   23   47 1  
    50   24   48 1  
@<TRIPOS>SUBSTRUCTURE
     1 ZX6         1

