### 
### Created by X-TOOL on Mon Sep 10 21:12:59 2018
### 

@<TRIPOS>MOLECULE
2zx7_ligand
   45    47     1     0     0
SMALL
GAST_HUCK


@<TRIPOS>ATOM
      1 OAD        -3.2430   25.8470   24.3060 O.3       1 ZX7        -0.3835
      2 CAV        -1.9120   26.3630   24.3570 C.3       1 ZX7         0.1277
      3 CAW        -1.7970   27.5880   23.4480 C.3       1 ZX7         0.1174
      4 OAE        -2.2300   27.2390   22.1340 O.3       1 ZX7        -0.3862
      5 CAU        -0.3380   28.0440   23.4370 C.3       1 ZX7         0.1256
      6 OAC         0.4580   27.0320   22.8150 O.3       1 ZX7        -0.3835
      7 CAS         0.1500   28.3030   24.8680 C.3       1 ZX7         0.0040
      8 CAA         1.6530   28.5840   24.8770 C.3       1 ZX7        -0.0191
      9 NAM        -0.1070   27.1590   25.7590 N.4       1 ZX7         0.2364
     10 CAT        -1.5280   26.7730   25.7820 C.3       1 ZX7         0.0272
     11 CAK        -1.7330   25.5940   26.7360 C.3       1 ZX7         0.0755
     12 NAL        -1.6190   25.9790   28.1510 N.am      1 ZX7        -0.2794
     13 CAO        -1.4190   25.0280   29.0620 C.2       1 ZX7         0.2270
     14 OAB        -1.2690   23.8370   28.7850 O.2       1 ZX7        -0.3841
     15 CAP        -1.3280   25.4520   30.5310 C.2       1 ZX7         0.1321
     16 CAJ        -1.7870   24.6740   31.5050 C.2       1 ZX7        -0.0392
     17 CAQ        -1.5800   25.3220   32.6470 C.ar      1 ZX7        -0.0176
     18 CAH        -1.9100   25.0050   33.9600 C.ar      1 ZX7        -0.0711
     19 CAF        -1.6150   25.9060   34.9770 C.ar      1 ZX7        -0.0763
     20 CAG        -0.9870   27.1070   34.6600 C.ar      1 ZX7        -0.0739
     21 CAI        -0.6540   27.4250   33.3460 C.ar      1 ZX7        -0.0404
     22 CAR        -0.9600   26.5270   32.3300 C.ar      1 ZX7         0.0676
     23 NAN        -0.8230   26.5860   31.0080 N.pl3     1 ZX7        -0.2671
     24 H1         -3.4507   25.5973   23.4132 H         1 ZX7         0.2102
     25 H2         -1.2169   25.5849   24.0086 H         1 ZX7         0.0678
     26 H3         -2.4308   28.3993   23.8353 H         1 ZX7         0.0649
     27 H4         -2.1598   27.9978   21.5667 H         1 ZX7         0.2100
     28 H5         -0.2547   28.9758   22.8583 H         1 ZX7         0.0677
     29 H6          0.1564   26.8963   21.9244 H         1 ZX7         0.2102
     30 H7         -0.3824   29.1822   25.2599 H         1 ZX7         0.0874
     31 H8          1.9856   28.7672   25.9094 H         1 ZX7         0.0285
     32 H9          1.8640   29.4706   24.2611 H         1 ZX7         0.0285
     33 H10         2.1907   27.7163   24.4671 H         1 ZX7         0.0285
     34 H11         0.1761   27.4070   26.6941 H         1 ZX7         0.2021
     35 H12         0.4369   26.3723   25.4407 H         1 ZX7         0.2021
     36 H13        -2.1447   27.6230   26.1095 H         1 ZX7         0.0897
     37 H14        -0.9733   24.8291   26.5177 H         1 ZX7         0.0576
     38 H15        -2.7354   25.1743   26.5657 H         1 ZX7         0.0576
     39 H16        -1.6904   26.9382   28.4244 H         1 ZX7         0.1844
     40 H17        -2.2453   23.6928   31.3899 H         1 ZX7         0.0399
     41 H18        -2.3937   24.0623   34.1890 H         1 ZX7         0.0556
     42 H19        -1.8711   25.6758   36.0048 H         1 ZX7         0.0522
     43 H20        -0.7524   27.8089   35.4521 H         1 ZX7         0.0550
     44 H21        -0.1612   28.3631   33.1177 H         1 ZX7         0.0550
     45 H22        -0.4088   27.3557   30.4631 H         1 ZX7         0.2261
@<TRIPOS>BOND
     1    1    2 1  
     2    2    3 1  
     3    2   10 1  
     4    3    4 1  
     5    3    5 1  
     6    5    6 1  
     7    5    7 1  
     8    7    8 1  
     9    7    9 1  
    10    9   10 1  
    11   10   11 1  
    12   11   12 1  
    13   12   13 am 
    14   13   14 2  
    15   13   15 1  
    16   15   16 2  
    17   15   23 1  
    18   16   17 1  
    19   17   18 ar 
    20   17   22 ar 
    21   18   19 ar 
    22   19   20 ar 
    23   20   21 ar 
    24   21   22 ar 
    25   22   23 1  
    26    1   24 1  
    27    2   25 1  
    28    3   26 1  
    29    4   27 1  
    30    5   28 1  
    31    6   29 1  
    32    7   30 1  
    33    8   31 1  
    34    8   32 1  
    35    8   33 1  
    36    9   34 1  
    37    9   35 1  
    38   10   36 1  
    39   11   37 1  
    40   11   38 1  
    41   12   39 1  
    42   16   40 1  
    43   18   41 1  
    44   19   42 1  
    45   20   43 1  
    46   21   44 1  
    47   23   45 1  
@<TRIPOS>SUBSTRUCTURE
     1 ZX7         1

