### 
### Created by X-TOOL on Mon Sep 10 21:12:59 2018
### 

@<TRIPOS>MOLECULE
2zx9_ligand
   57    59     1     0     0
SMALL
GAST_HUCK


@<TRIPOS>ATOM
      1 CAI        -0.7880   26.9120   31.4170 C.ar      1 ZX9        -0.0577
      2 CAG        -0.0850   26.6860   32.5930 C.ar      1 ZX9        -0.0681
      3 CAF        -0.7970   26.2960   33.7240 C.ar      1 ZX9        -0.0684
      4 CAH        -2.1790   26.1370   33.6820 C.ar      1 ZX9        -0.0681
      5 CAJ        -2.8770   26.3640   32.5010 C.ar      1 ZX9        -0.0577
      6 CAS        -2.1680   26.7500   31.3690 C.ar      1 ZX9        -0.0210
      7 CAZ        -2.8270   26.9350   30.0040 C.3       1 ZX9         0.0843
      8 CAX        -4.3360   26.7210   29.8560 C.3       1 ZX9        -0.0118
      9 CAM        -5.2810   27.9160   29.9550 C.3       1 ZX9        -0.0461
     10 CAK        -6.5460   27.1640   29.5330 C.3       1 ZX9        -0.0525
     11 CAL        -6.5070   25.9090   30.4130 C.3       1 ZX9        -0.0525
     12 CAN        -5.0230   25.6560   30.7130 C.3       1 ZX9        -0.0461
     13 CAR        -2.1160   26.0010   29.0270 C.2       1 ZX9         0.1910
     14 OAB        -1.8340   24.8440   29.3400 O.2       1 ZX9        -0.3938
     15 NAP        -1.8200   26.5850   27.8730 N.am      1 ZX9        -0.2796
     16 CAO        -1.1450   25.8900   26.7740 C.3       1 ZX9         0.0762
     17 CAY        -1.0710   26.9010   25.6320 C.3       1 ZX9         0.0273
     18 NAQ         0.3310   27.3050   25.4450 N.4       1 ZX9         0.2364
     19 CAT         0.3860   28.3770   24.4390 C.3       1 ZX9         0.0040
     20 CAA         1.8290   28.8570   24.2830 C.3       1 ZX9        -0.0191
     21 CAU        -0.1850   27.8990   23.0990 C.3       1 ZX9         0.1256
     22 OAC         0.6130   26.8290   22.5830 O.3       1 ZX9        -0.3835
     23 CAV        -1.6210   27.4020   23.2690 C.3       1 ZX9         0.1174
     24 OAD        -2.1020   26.8640   22.0360 O.3       1 ZX9        -0.3862
     25 CAW        -1.6280   26.3060   24.3340 C.3       1 ZX9         0.1278
     26 OAE        -2.9670   25.8350   24.5180 O.3       1 ZX9        -0.3835
     27 H          -0.2510   27.2204   30.5200 H         1 ZX9         0.0561
     28 H           0.9972   26.8108   32.6297 H         1 ZX9         0.0600
     29 H          -0.2639   26.1123   34.6568 H         1 ZX9         0.0561
     30 H          -2.7171   25.8329   34.5798 H         1 ZX9         0.0600
     31 H          -3.9595   26.2417   32.4634 H         1 ZX9         0.0561
     32 H          -2.7189   28.0024   29.8113 H         1 ZX9         0.0697
     33 H          -4.2177   26.3967   28.8221 H         1 ZX9         0.0349
     34 H          -5.0178   28.7934   29.3642 H         1 ZX9         0.0271
     35 H          -5.3182   28.4272   30.9170 H         1 ZX9         0.0271
     36 H          -6.5665   26.9339   28.4678 H         1 ZX9         0.0265
     37 H          -7.4539   27.7509   29.6722 H         1 ZX9         0.0265
     38 H          -6.9610   25.0561   29.9084 H         1 ZX9         0.0265
     39 H          -7.0791   26.0494   31.3301 H         1 ZX9         0.0265
     40 H          -4.7788   25.7325   31.7725 H         1 ZX9         0.0271
     41 H          -4.7029   24.6411   30.4771 H         1 ZX9         0.0271
     42 H          -2.0745   27.5644   27.7449 H         1 ZX9         0.1854
     43 H          -1.6880   24.9927   26.4770 H         1 ZX9         0.0577
     44 H          -0.1527   25.5485   27.0685 H         1 ZX9         0.0577
     45 H          -1.6776   27.7704   25.8855 H         1 ZX9         0.0897
     46 H           0.8814   26.5064   25.1293 H         1 ZX9         0.2021
     47 H           0.7146   27.6405   26.3286 H         1 ZX9         0.2021
     48 H          -0.2281   29.2124   24.7751 H         1 ZX9         0.0874
     49 H           2.1897   29.2366   25.2390 H         1 ZX9         0.0285
     50 H           2.4548   28.0244   23.9618 H         1 ZX9         0.0285
     51 H           1.8678   29.6511   23.5374 H         1 ZX9         0.0285
     52 H          -0.1750   28.7414   22.4074 H         1 ZX9         0.0677
     53 H           0.2492   26.5356   21.7445 H         1 ZX9         0.2102
     54 H          -2.2646   28.2295   23.5675 H         1 ZX9         0.0649
     55 H          -1.5432   26.1306   21.7685 H         1 ZX9         0.2100
     56 H          -1.0101   25.4608   24.0307 H         1 ZX9         0.0678
     57 H          -3.2972   25.4809   23.6891 H         1 ZX9         0.2102
@<TRIPOS>BOND
     1    1    2 ar 
     2    1    6 ar 
     3    2    3 ar 
     4    3    4 ar 
     5    4    5 ar 
     6    5    6 ar 
     7    6    7 1  
     8    7    8 1  
     9    7   13 1  
    10    8    9 1  
    11    8   12 1  
    12    9   10 1  
    13   10   11 1  
    14   11   12 1  
    15   13   14 2  
    16   13   15 am 
    17   15   16 1  
    18   16   17 1  
    19   17   18 1  
    20   17   25 1  
    21   18   19 1  
    22   19   20 1  
    23   19   21 1  
    24   21   22 1  
    25   21   23 1  
    26   23   24 1  
    27   23   25 1  
    28   25   26 1  
    29    1   27 1  
    30    2   28 1  
    31    3   29 1  
    32    4   30 1  
    33    5   31 1  
    34    7   32 1  
    35    8   33 1  
    36    9   34 1  
    37    9   35 1  
    38   10   36 1  
    39   10   37 1  
    40   11   38 1  
    41   11   39 1  
    42   12   40 1  
    43   12   41 1  
    44   15   42 1  
    45   16   43 1  
    46   16   44 1  
    47   17   45 1  
    48   18   46 1  
    49   18   47 1  
    50   19   48 1  
    51   20   49 1  
    52   20   50 1  
    53   20   51 1  
    54   21   52 1  
    55   22   53 1  
    56   23   54 1  
    57   24   55 1  
    58   25   56 1  
    59   26   57 1  
@<TRIPOS>SUBSTRUCTURE
     1 ZX9         1

