### 
### Created by X-TOOL on Mon Sep 10 21:12:59 2018
### 

@<TRIPOS>MOLECULE
2zxa_ligand
   34    34     1     0     0
SMALL
GAST_HUCK


@<TRIPOS>ATOM
      1 CAA        -1.7240   27.5490   30.6290 C.3       1 ZXA         0.0256
      2 CAJ        -1.8180   26.5340   29.4880 C.2       1 ZXA         0.1731
      3 OAC        -2.0170   25.3470   29.7370 O.2       1 ZXA        -0.3974
      4 NAH        -1.6370   27.0190   28.2630 N.am      1 ZXA        -0.2817
      5 CAG        -1.6920   26.1940   27.0460 C.3       1 ZXA         0.0761
      6 CAL        -1.3680   27.0890   25.8470 C.3       1 ZXA         0.0273
      7 NAI         0.0770   27.3700   25.7690 N.4       1 ZXA         0.2364
      8 CAK         0.3170   28.4330   24.7770 C.3       1 ZXA         0.0040
      9 CAB         1.8100   28.7510   24.6800 C.3       1 ZXA        -0.0191
     10 CAM        -0.2240   28.0720   23.3880 C.3       1 ZXA         0.1256
     11 OAD         0.5760   27.0630   22.7670 O.3       1 ZXA        -0.3835
     12 CAO        -1.6710   27.5860   23.4720 C.3       1 ZXA         0.1174
     13 OAF        -2.0780   27.0950   22.1970 O.3       1 ZXA        -0.3862
     14 CAN        -1.7510   26.4610   24.5050 C.3       1 ZXA         0.1278
     15 OAE        -3.0880   25.9600   24.5090 O.3       1 ZXA        -0.3835
     16 H          -2.6580   27.5496   31.1909 H         1 ZXA         0.0467
     17 H          -0.9012   27.2758   31.2897 H         1 ZXA         0.0467
     18 H          -1.5460   28.5421   30.2164 H         1 ZXA         0.0467
     19 H          -1.4500   28.0166   28.1617 H         1 ZXA         0.1853
     20 H          -2.6852   25.7597   26.9321 H         1 ZXA         0.0577
     21 H          -0.9702   25.3799   27.1120 H         1 ZXA         0.0577
     22 H          -1.9516   27.9947   26.0121 H         1 ZXA         0.0897
     23 H           0.5735   26.5243   25.4884 H         1 ZXA         0.2021
     24 H           0.4143   27.6744   26.6822 H         1 ZXA         0.2021
     25 H          -0.2242   29.3130   25.1247 H         1 ZXA         0.0874
     26 H           2.1728   29.0854   25.6519 H         1 ZXA         0.0285
     27 H           2.3520   27.8552   24.3770 H         1 ZXA         0.0285
     28 H           1.9653   29.5382   23.9422 H         1 ZXA         0.0285
     29 H          -0.1847   28.9780   22.7833 H         1 ZXA         0.0677
     30 H           0.2149   26.8576   21.9015 H         1 ZXA         0.2102
     31 H          -2.3259   28.4059   23.7667 H         1 ZXA         0.0649
     32 H          -1.5083   26.3667   21.9391 H         1 ZXA         0.2100
     33 H          -1.0848   25.6254   24.2903 H         1 ZXA         0.0678
     34 H          -3.3057   25.6253   23.6360 H         1 ZXA         0.2102
@<TRIPOS>BOND
     1    1    2 1  
     2    2    3 2  
     3    2    4 am 
     4    4    5 1  
     5    5    6 1  
     6    6    7 1  
     7    6   14 1  
     8    7    8 1  
     9    8    9 1  
    10    8   10 1  
    11   10   11 1  
    12   10   12 1  
    13   12   13 1  
    14   12   14 1  
    15   14   15 1  
    16    1   16 1  
    17    1   17 1  
    18    1   18 1  
    19    4   19 1  
    20    5   20 1  
    21    5   21 1  
    22    6   22 1  
    23    7   23 1  
    24    7   24 1  
    25    8   25 1  
    26    9   26 1  
    27    9   27 1  
    28    9   28 1  
    29   10   29 1  
    30   11   30 1  
    31   12   31 1  
    32   13   32 1  
    33   14   33 1  
    34   15   34 1  
@<TRIPOS>SUBSTRUCTURE
     1 ZXA         1

