### 
### Created by X-TOOL on Mon Sep 10 21:12:59 2018
### 

@<TRIPOS>MOLECULE
2zxb_ligand
   34    35     1     0     0
SMALL
GAST_HUCK


@<TRIPOS>ATOM
      1 CAG        -4.2660   27.4860   28.8870 C.ar      1 ZXB        -0.0601
      2 CAE        -5.6410   27.2930   29.0070 C.ar      1 ZXB        -0.0686
      3 CAD        -6.4280   27.1420   27.8660 C.ar      1 ZXB        -0.0687
      4 CAF        -5.8410   27.1860   26.5990 C.ar      1 ZXB        -0.0686
      5 CAH        -4.4650   27.3870   26.4770 C.ar      1 ZXB        -0.0601
      6 CAL        -3.6810   27.5410   27.6220 C.ar      1 ZXB        -0.0376
      7 CAJ        -2.1820   27.8590   27.5220 C.3       1 ZXB         0.0266
      8 CAP        -1.4720   27.3490   26.2580 C.3       1 ZXB         0.0160
      9 NAK        -0.1710   28.0480   26.2380 N.4       1 ZXB         0.2344
     10 CAI         0.6340   27.5940   25.0940 C.3       1 ZXB        -0.0040
     11 CAM        -0.0490   28.0930   23.8220 C.3       1 ZXB         0.1231
     12 OAA         0.6490   27.5630   22.6920 O.3       1 ZXB        -0.3838
     13 CAN        -1.4640   27.5300   23.7200 C.3       1 ZXB         0.1172
     14 OAB        -2.0590   28.3240   22.6870 O.3       1 ZXB        -0.3862
     15 CAO        -2.2320   27.8180   25.0140 C.3       1 ZXB         0.1277
     16 OAC        -2.3250   29.2470   25.1400 O.3       1 ZXB        -0.3834
     17 H          -3.6494   27.5937   29.7793 H         1 ZXB         0.0557
     18 H          -6.1018   27.2601   29.9942 H         1 ZXB         0.0599
     19 H          -7.5029   26.9894   27.9627 H         1 ZXB         0.0559
     20 H          -6.4562   27.0636   25.7076 H         1 ZXB         0.0599
     21 H          -4.0037   27.4236   25.4901 H         1 ZXB         0.0557
     22 H          -1.7048   27.3598   28.3653 H         1 ZXB         0.0482
     23 H          -2.0987   28.9457   27.5042 H         1 ZXB         0.0482
     24 H          -1.3962   26.2616   26.2613 H         1 ZXB         0.0901
     25 H           0.3313   27.8421   27.1016 H         1 ZXB         0.2020
     26 H          -0.3331   29.0515   26.1541 H         1 ZXB         0.2020
     27 H           0.7044   26.5063   25.0863 H         1 ZXB         0.0840
     28 H           1.6476   27.9892   25.1615 H         1 ZXB         0.0840
     29 H          -0.0573   29.1827   23.8469 H         1 ZXB         0.0674
     30 H           1.5614   27.8609   22.7123 H         1 ZXB         0.2101
     31 H          -1.4740   26.4557   23.5361 H         1 ZXB         0.0649
     32 H          -1.5603   28.2151   21.8739 H         1 ZXB         0.2100
     33 H          -3.1915   27.3039   24.9570 H         1 ZXB         0.0679
     34 H          -2.7924   29.6043   24.3814 H         1 ZXB         0.2102
@<TRIPOS>BOND
     1    1    2 ar 
     2    1    6 ar 
     3    2    3 ar 
     4    3    4 ar 
     5    4    5 ar 
     6    5    6 ar 
     7    6    7 1  
     8    7    8 1  
     9    8    9 1  
    10    8   15 1  
    11    9   10 1  
    12   10   11 1  
    13   11   12 1  
    14   11   13 1  
    15   13   14 1  
    16   13   15 1  
    17   15   16 1  
    18    1   17 1  
    19    2   18 1  
    20    3   19 1  
    21    4   20 1  
    22    5   21 1  
    23    7   22 1  
    24    7   23 1  
    25    8   24 1  
    26    9   25 1  
    27    9   26 1  
    28   10   27 1  
    29   10   28 1  
    30   11   29 1  
    31   12   30 1  
    32   13   31 1  
    33   14   32 1  
    34   15   33 1  
    35   16   34 1  
@<TRIPOS>SUBSTRUCTURE
     1 ZXB         1

