### 
### Created by X-TOOL on Mon Sep 10 21:12:59 2018
### 

@<TRIPOS>MOLECULE
2zxd_ligand
   30    30     1     0     0
SMALL
GAST_HUCK


@<TRIPOS>ATOM
      1 CAA         1.4890   29.4010   26.9320 C.3       1 ZXD        -0.0575
      2 CAH         1.2300   28.9010   25.5070 C.3       1 ZXD        -0.0011
      3 CAB         2.3070   27.8780   25.1350 C.3       1 ZXD        -0.0575
      4 CAL        -0.1720   28.2870   25.4200 C.3       1 ZXD         0.0089
      5 NAG        -0.2240   27.0110   26.1540 N.4       1 ZXD         0.2331
      6 CAF        -1.6000   26.4880   26.1950 C.3       1 ZXD        -0.0041
      7 CAI        -2.0660   26.2140   24.7590 C.3       1 ZXD         0.1231
      8 OAC        -3.3820   25.6550   24.7520 O.3       1 ZXD        -0.3838
      9 CAJ        -2.0570   27.5250   23.9690 C.3       1 ZXD         0.1170
     10 OAD        -2.4910   27.2890   22.6290 O.3       1 ZXD        -0.3862
     11 CAK        -0.6340   28.0860   23.9730 C.3       1 ZXD         0.1261
     12 OAE         0.2340   27.1550   23.3240 O.3       1 ZXD        -0.3835
     13 H1          2.4958   29.8404   26.9890 H         1 ZXD         0.0234
     14 H2          1.4164   28.5582   27.6352 H         1 ZXD         0.0234
     15 H3          0.7408   30.1633   27.1948 H         1 ZXD         0.0234
     16 H4          1.2883   29.7496   24.8096 H         1 ZXD         0.0351
     17 H5          2.1288   27.5133   24.1126 H         1 ZXD         0.0234
     18 H6          2.2681   27.0327   25.8377 H         1 ZXD         0.0234
     19 H7          3.2977   28.3531   25.1873 H         1 ZXD         0.0234
     20 H8         -0.8724   28.9859   25.9005 H         1 ZXD         0.0880
     21 H9          0.1019   27.1582   27.0964 H         1 ZXD         0.2018
     22 H10         0.3710   26.3402   25.6935 H         1 ZXD         0.2018
     23 H11        -2.2637   27.2291   26.6643 H         1 ZXD         0.0840
     24 H12        -1.6238   25.5544   26.7762 H         1 ZXD         0.0840
     25 H13        -1.3734   25.5017   24.2868 H         1 ZXD         0.0674
     26 H14        -3.9859   26.2644   25.1601 H         1 ZXD         0.2101
     27 H15        -2.7362   28.2463   24.4469 H         1 ZXD         0.0649
     28 H16        -2.4825   28.1069   22.1459 H         1 ZXD         0.2100
     29 H17        -0.6122   29.0481   23.4402 H         1 ZXD         0.0677
     30 H18        -0.0568   27.0233   22.4292 H         1 ZXD         0.2102
@<TRIPOS>BOND
     1    1    2 1  
     2    2    3 1  
     3    2    4 1  
     4    4    5 1  
     5    4   11 1  
     6    5    6 1  
     7    6    7 1  
     8    7    8 1  
     9    7    9 1  
    10    9   10 1  
    11    9   11 1  
    12   11   12 1  
    13    1   13 1  
    14    1   14 1  
    15    1   15 1  
    16    2   16 1  
    17    3   17 1  
    18    3   18 1  
    19    3   19 1  
    20    4   20 1  
    21    5   21 1  
    22    5   22 1  
    23    6   23 1  
    24    6   24 1  
    25    7   25 1  
    26    8   26 1  
    27    9   27 1  
    28   10   28 1  
    29   11   29 1  
    30   12   30 1  
@<TRIPOS>SUBSTRUCTURE
     1 ZXD         1

