### 
### Created by X-TOOL on Mon Sep 10 21:13:00 2018
### 

@<TRIPOS>MOLECULE
2zyb_ligand
   43    46     1     0     0
SMALL
GAST_HUCK


@<TRIPOS>ATOM
      1 C8         19.1860   35.3390    8.7970 C.3       1 KSL        -0.0159
      2 C7         19.0140   36.2140    7.5540 C.ar      1 KSL         0.0301
      3 C5         17.9860   35.9450    6.6540 C.ar      1 KSL        -0.0366
      4 C4         17.8040   36.7030    5.4940 C.ar      1 KSL        -0.0509
      5 C3         18.7660   37.6420    5.1120 C.ar      1 KSL        -0.0366
      6 C6         20.0060   37.2610    7.2400 C.ar      1 KSL         0.1574
      7 C2         19.8370   37.9920    5.9710 C.ar      1 KSL         0.0301
      8 C1         20.8120   39.0920    5.6440 C.3       1 KSL        -0.0159
      9 N9         21.0820   37.5430    8.0460 N.pl3     1 KSL        -0.1977
     10 C10        22.3750   37.0680    7.8750 C.ar      1 KSL         0.2295
     11 C18        23.5120   37.6410    8.6450 C.ar      1 KSL         0.1163
     12 C17        23.6050   38.6800    9.6410 C.2       1 KSL         0.0487
     13 N16        24.8940   38.7240   10.0370 N.pl3     1 KSL        -0.3123
     14 C15        25.5680   37.7770    9.3500 C.2       1 KSL         0.0739
     15 N14        24.7240   37.0990    8.5400 N.ar      1 KSL        -0.3094
     16 C13        24.9360   36.0710    7.6760 C.ar      1 KSL         0.0842
     17 C12        23.8800   35.5540    6.9260 C.ar      1 KSL         0.0648
     18 N11        22.6360   36.0180    7.0820 N.ar      1 KSL        -0.2150
     19 C19        26.2850   35.4400    7.5310 C.ar      1 KSL         0.0241
     20 C24        27.2140   35.5330    8.5440 C.ar      1 KSL        -0.0376
     21 C23        28.4350   34.8690    8.4430 C.ar      1 KSL        -0.0489
     22 C22        28.7650   34.2090    7.2500 C.ar      1 KSL        -0.0501
     23 C21        27.8450   34.1120    6.2430 C.ar      1 KSL        -0.0489
     24 C20        26.5860   34.7010    6.3960 C.ar      1 KSL        -0.0376
     25 H1         18.3530   34.6234    8.8598 H         1 KSL         0.0446
     26 H2         19.1918   35.9745    9.6948 H         1 KSL         0.0446
     27 H3         20.1368   34.7899    8.7302 H         1 KSL         0.0446
     28 H4         17.3078   35.1246    6.8589 H         1 KSL         0.0580
     29 H5         16.9152   36.5623    4.8896 H         1 KSL         0.0782
     30 H6         18.6912   38.1124    4.1382 H         1 KSL         0.0580
     31 H7         20.5519   39.5353    4.6715 H         1 KSL         0.0446
     32 H8         21.8300   38.6779    5.5976 H         1 KSL         0.0446
     33 H9         20.7663   39.8664    6.4239 H         1 KSL         0.0446
     34 H10        20.9140   38.1636    8.8507 H         1 KSL         0.2753
     35 H11        22.7921   39.3076   10.0033 H         1 KSL         0.0484
     36 H12        25.2925   39.3651   10.7378 H         1 KSL         0.2639
     37 H13        26.6368   37.5868    9.4359 H         1 KSL         0.0593
     38 H14        24.0704   34.7654    6.2070 H         1 KSL         0.1022
     39 H15        26.9940   36.1259    9.4244 H         1 KSL         0.0709
     40 H16        29.1243   34.8626    9.2796 H         1 KSL         0.0653
     41 H17        29.7507   33.7753    7.1262 H         1 KSL         0.0715
     42 H18        28.0905   33.5810    5.3304 H         1 KSL         0.0653
     43 H19        25.8383   34.5791    5.6207 H         1 KSL         0.0709
@<TRIPOS>BOND
     1    1    2 1  
     2    2    3 ar 
     3    2    6 ar 
     4    3    4 ar 
     5    4    5 ar 
     6    5    7 ar 
     7    6    7 ar 
     8    6    9 1  
     9    7    8 1  
    10    9   10 1  
    11   10   11 ar 
    12   10   18 ar 
    13   11   12 2  
    14   11   15 ar 
    15   12   13 1  
    16   13   14 1  
    17   14   15 2  
    18   15   16 ar 
    19   16   17 ar 
    20   16   19 1  
    21   17   18 ar 
    22   19   20 ar 
    23   19   24 ar 
    24   20   21 ar 
    25   21   22 ar 
    26   22   23 ar 
    27   23   24 ar 
    28    1   25 1  
    29    1   26 1  
    30    1   27 1  
    31    3   28 1  
    32    4   29 1  
    33    5   30 1  
    34    8   31 1  
    35    8   32 1  
    36    8   33 1  
    37    9   34 1  
    38   12   35 1  
    39   13   36 1  
    40   14   37 1  
    41   17   38 1  
    42   20   39 1  
    43   21   40 1  
    44   22   41 1  
    45   23   42 1  
    46   24   43 1  
@<TRIPOS>SUBSTRUCTURE
     1 KSL         1

