### 
### Created by X-TOOL on Mon Sep 10 21:13:01 2018
### 

@<TRIPOS>MOLECULE
2zzu_ligand
   89    92     1     0     0
SMALL
GAST_HUCK


@<TRIPOS>ATOM
      1 C14        35.6070    6.9670   10.2740 C.2       1 359         0.2012
      2 O1         34.6730    7.2320   11.0260 O.2       1 359        -0.3947
      3 N5         35.6660    7.3770    8.9700 N.am      1 359        -0.2638
      4 C15        34.5450    8.1630    8.4640 C.3       1 359         0.1330
      5 C18        34.6340    8.5000    6.9820 C.3       1 359         0.0045
      6 C19        35.9580    9.2630    6.6040 C.3       1 359         0.0412
      7 C20        33.2690    7.4270    8.7640 C.2       1 359         0.2036
      8 O5         33.1880    6.2170    8.5900 O.2       1 359        -0.3944
      9 N6         32.3000    8.2480    9.2370 N.am      1 359        -0.2737
     10 C21        31.0230    7.6640    9.5170 C.3       1 359         0.0645
     11 C16        31.6110    6.4550   11.6610 C.ar      1 359        -0.0584
     12 C17        31.3500    6.1970   13.0110 C.ar      1 359        -0.0633
     13 C22        30.2870    6.8330   13.6850 C.ar      1 359         0.0188
     14 C23        29.4510    7.6940   12.9690 C.ar      1 359        -0.0633
     15 C24        29.6960    7.9470   11.6170 C.ar      1 359        -0.0584
     16 C25        30.7790    7.3410   10.9600 C.ar      1 359        -0.0210
     17 C26        30.0800    6.6260   15.1230 C.cat     1 359         0.2318
     18 N1         30.7350    5.6690   15.7560 N.pl3     1 359        -0.2729
     19 C2         35.9300    9.7200    5.1650 C.2       1 359         0.1737
     20 O2         35.7300    8.9300    4.2700 O.2       1 359        -0.3973
     21 N3         36.0600   11.0330    4.9540 N.am      1 359        -0.3009
     22 C1         37.7500    6.9510   11.6390 C.3       1 359        -0.0001
     23 N4         36.3240    5.0420   11.6560 N.am      1 359        -0.2287
     24 C5         36.8040    6.1100   10.7990 C.3       1 359         0.1300
     25 S1         36.2080    3.4640   11.0080 S.o2      1 359         0.0410
     26 O4         35.7290    3.6980    9.6870 O.2       1 359        -0.1554
     27 O3         35.4220    2.7870   11.9800 O.2       1 359        -0.1554
     28 C9         37.8360    2.8160   10.9480 C.3       1 359         0.0818
     29 C8         38.2570    2.3730   12.3580 C.3       1 359        -0.0440
     30 N2         29.2460    7.3820   15.8280 N.pl3     1 359        -0.2729
     31 C13        42.7420    5.3820   10.3270 C.ar      1 359        -0.0454
     32 C12        42.3470    4.9620   11.6550 C.ar      1 359        -0.0495
     33 C3         41.0740    5.2210   12.1740 C.ar      1 359         0.0512
     34 C4         40.1140    5.8920   11.3490 C.ar      1 359        -0.0312
     35 C27        40.4700    6.2840   10.0630 C.ar      1 359        -0.0484
     36 C6         41.7830    6.0790    9.5190 C.ar      1 359         0.0756
     37 N7         40.4840    5.1150   13.4220 N.pl3     1 359        -0.2936
     38 C29        39.2260    5.6910   13.4000 C.2       1 359         0.0142
     39 C28        38.9540    6.1810   12.1190 C.2       1 359        -0.0462
     40 O6         41.9960    6.7080    8.2810 O.3       1 359        -0.3144
     41 C7         43.2180    7.4380    8.0820 C.3       1 359         0.1022
     42 C11        44.1600   11.0980   10.2420 C.ar      1 359        -0.0545
     43 C10        45.0120    9.9930   10.3140 C.ar      1 359        -0.0649
     44 C31        44.6740    8.8090    9.6350 C.ar      1 359        -0.0552
     45 C32        43.5050    8.7070    8.8600 C.ar      1 359        -0.0098
     46 C30        42.6790    9.8370    8.7750 C.ar      1 359        -0.0437
     47 C33        42.9870   11.0200    9.4760 C.ar      1 359         0.0035
     48 C34        42.0410   12.1240    9.4580 C.2       1 359         0.0613
     49 O8         42.4610   13.2920    9.6010 O.co2     1 359        -0.5607
     50 O7         40.8300   11.8470    9.3260 O.co2     1 359        -0.5607
     51 H1         36.4455    7.1475    8.3872 H         1 359         0.1883
     52 H2         34.5321    9.1156    9.0138 H         1 359         0.0801
     53 H3         33.7756    9.1335    6.7142 H         1 359         0.0337
     54 H4         34.5924    7.5636    6.4063 H         1 359         0.0337
     55 H5         36.8152    8.5894    6.7504 H         1 359         0.0504
     56 H6         36.0658   10.1411    7.2577 H         1 359         0.0504
     57 H7         32.4700    9.2223    9.3845 H         1 359         0.1878
     58 H8         30.9398    6.7315    8.9395 H         1 359         0.0683
     59 H9         30.2454    8.3693    9.1887 H         1 359         0.0683
     60 H10        32.4460    5.9761   11.1625 H         1 359         0.0557
     61 H11        31.9767    5.4950   13.5491 H         1 359         0.0599
     62 H12        28.6103    8.1668   13.4638 H         1 359         0.0599
     63 H13        29.0436    8.6178   11.0698 H         1 359         0.0557
     64 H14        30.5884    5.5253   16.7653 H         1 359         0.3180
     65 H15        31.3923    5.0667   15.2402 H         1 359         0.3180
     66 H16        36.0487   11.3930    4.0211 H         1 359         0.1814
     67 H17        36.1686   11.6556    5.7290 H         1 359         0.1814
     68 H18        37.2014    7.3259   12.5156 H         1 359         0.0390
     69 H19        38.0964    7.8007   11.0323 H         1 359         0.0390
     70 H20        36.0667    5.2249   12.6049 H         1 359         0.1703
     71 H21        37.3456    5.6863    9.9404 H         1 359         0.0768
     72 H22        38.5270    3.5908   10.5844 H         1 359         0.0515
     73 H23        37.8630    1.9520   10.2678 H         1 359         0.0515
     74 H24        39.2783    1.9657   12.3247 H         1 359         0.0246
     75 H25        37.5651    1.5987   12.7210 H         1 359         0.0246
     76 H26        38.2291    3.2375   13.0376 H         1 359         0.0246
     77 H27        28.7195    8.1370   15.3658 H         1 359         0.3180
     78 H28        29.1258    7.2133   16.8369 H         1 359         0.3180
     79 H29        43.7379    5.1749    9.9524 H         1 359         0.0482
     80 H30        43.0631    4.4279   12.2690 H         1 359         0.0526
     81 H31        39.7225    6.7661    9.4433 H         1 359         0.0435
     82 H32        40.9174    4.6728   14.2451 H         1 359         0.2193
     83 H33        38.5501    5.7533   14.2516 H         1 359         0.0790
     84 H34        43.2496    7.7104    7.0168 H         1 359         0.0774
     85 H35        44.0388    6.7410    8.3068 H         1 359         0.0774
     86 H36        44.4037   12.0101   10.7747 H         1 359         0.0593
     87 H37        45.9286   10.0482   10.8901 H         1 359         0.0606
     88 H38        45.3326    7.9514    9.7110 H         1 359         0.0579
     89 H39        41.7877    9.7998    8.1591 H         1 359         0.0590
@<TRIPOS>BOND
     1    1    2 2  
     2    1    3 am 
     3   24    1 1  
     4    3    4 1  
     5    4    5 1  
     6    4    7 1  
     7    5    6 1  
     8    6   19 1  
     9    7    8 2  
    10    7    9 am 
    11    9   10 1  
    12   10   16 1  
    13   11   12 ar 
    14   16   11 ar 
    15   12   13 ar 
    16   14   13 ar 
    17   13   17 1  
    18   15   14 ar 
    19   16   15 ar 
    20   17   18 ar 
    21   17   30 ar 
    22   19   20 2  
    23   19   21 am 
    24   22   24 1  
    25   39   22 1  
    26   24   23 1  
    27   23   25 am 
    28   25   26 2  
    29   25   27 2  
    30   25   28 1  
    31   28   29 1  
    32   31   32 ar 
    33   36   31 ar 
    34   32   33 ar 
    35   34   33 ar 
    36   33   37 1  
    37   35   34 ar 
    38   34   39 1  
    39   36   35 ar 
    40   40   36 1  
    41   38   37 1  
    42   39   38 2  
    43   41   40 1  
    44   45   41 1  
    45   43   42 ar 
    46   42   47 ar 
    47   44   43 ar 
    48   44   45 ar 
    49   45   46 ar 
    50   46   47 ar 
    51   47   48 1  
    52   48   49 ar 
    53   48   50 ar 
    54    3   51 1  
    55    4   52 1  
    56    5   53 1  
    57    5   54 1  
    58    6   55 1  
    59    6   56 1  
    60    9   57 1  
    61   10   58 1  
    62   10   59 1  
    63   11   60 1  
    64   12   61 1  
    65   14   62 1  
    66   15   63 1  
    67   18   64 1  
    68   18   65 1  
    69   21   66 1  
    70   21   67 1  
    71   22   68 1  
    72   22   69 1  
    73   23   70 1  
    74   24   71 1  
    75   28   72 1  
    76   28   73 1  
    77   29   74 1  
    78   29   75 1  
    79   29   76 1  
    80   30   77 1  
    81   30   78 1  
    82   31   79 1  
    83   32   80 1  
    84   35   81 1  
    85   37   82 1  
    86   38   83 1  
    87   41   84 1  
    88   41   85 1  
    89   42   86 1  
    90   43   87 1  
    91   44   88 1  
    92   46   89 1  
@<TRIPOS>SUBSTRUCTURE
     1 359         1

