### 
### Created by X-TOOL on Mon Sep 10 21:13:05 2018
### 

@<TRIPOS>MOLECULE
3a2c_ligand
   54    57     1     0     0
SMALL
GAST_HUCK


@<TRIPOS>ATOM
      1 C25        95.5350  107.9660   96.2340 C.3       1 PDY        -0.0201
      2 C26        94.1760  107.2690   96.1970 C.3       1 PDY        -0.0103
      3 C23        93.8840  106.7100   97.5920 C.3       1 PDY        -0.0335
      4 N12        93.8390  107.7970   98.5850 N.4       1 PDY         0.2286
      5 C22        95.1190  108.5270   98.6420 C.3       1 PDY        -0.0102
      6 C15        95.5290  109.0870   97.2730 C.3       1 PDY         0.0793
      7 N10        96.9100  109.6020   97.2730 N.pl3     1 PDY        -0.2986
      8 C4         97.1620  110.8930   97.4520 C.2       1 PDY         0.0960
      9 C3         98.4800  111.3080   97.6290 C.2       1 PDY         0.0596
     10 C14        99.6050  110.2790   97.4730 C.3       1 PDY        -0.0357
     11 N6         96.1320  111.7330   97.6510 N.2       1 PDY        -0.2934
     12 C5         96.3240  112.9990   98.0390 C.2       1 PDY         0.1267
     13 C8         95.4570  113.9990   98.1960 C.2       1 PDY        -0.0551
     14 C11        96.2930  115.2500   98.4600 C.2       1 PDY        -0.0311
     15 N7         97.6480  114.6880   98.3640 N.2       1 PDY        -0.2261
     16 N2         97.6340  113.4620   98.2450 N.pl3     1 PDY        -0.1271
     17 C1         98.7280  112.5970   98.0830 C.2       1 PDY         0.2337
     18 N9         99.9160  113.2020   98.0940 N.pl3     1 PDY        -0.2364
     19 C13       101.0390  112.9950   97.4200 C.ar      1 PDY         0.0577
     20 C17       102.2430  113.2850   98.0500 C.ar      1 PDY        -0.0458
     21 C20       103.4420  112.8970   97.4630 C.ar      1 PDY        -0.0419
     22 C18       101.0280  112.2960   96.2220 C.ar      1 PDY        -0.0458
     23 C19       102.2240  111.9500   95.6090 C.ar      1 PDY        -0.0419
     24 C16       103.4240  112.2440   96.2380 C.ar      1 PDY         0.0797
     25 O21       104.5670  111.9090   95.5870 O.3       1 PDY        -0.3255
     26 C24       105.5580  112.9410   95.5380 C.3       1 PDY         0.0652
     27 C27       106.6030  112.3460   94.5920 C.3       1 PDY        -0.0375
     28 H          95.7430  108.3920   95.2525 H         1 PDY         0.0291
     29 H          96.3009  107.2378   96.5010 H         1 PDY         0.0291
     30 H          94.1903  106.4607   95.4659 H         1 PDY         0.0318
     31 H          93.4000  107.9780   95.9085 H         1 PDY         0.0318
     32 H          94.6753  106.0125   97.8665 H         1 PDY         0.0814
     33 H          92.9181  106.2052   97.5759 H         1 PDY         0.0814
     34 H          93.6569  107.3902   99.5025 H         1 PDY         0.2014
     35 H          93.1045  108.4515   98.3157 H         1 PDY         0.2014
     36 H          95.8918  107.8313   98.9689 H         1 PDY         0.0837
     37 H          95.0012  109.3647   99.3294 H         1 PDY         0.0837
     38 H          94.8156  109.8799   97.0484 H         1 PDY         0.0609
     39 H          97.6859  108.9549   97.1330 H         1 PDY         0.1832
     40 H         100.3424  110.6536   96.7630 H         1 PDY         0.0310
     41 H         100.0808  110.1134   98.4396 H         1 PDY         0.0310
     42 H          99.1891  109.3407   97.1058 H         1 PDY         0.0310
     43 H          94.3699  113.9367   98.1461 H         1 PDY         0.0145
     44 H          95.9743  116.2725   98.6627 H         1 PDY         0.0604
     45 H          99.9723  113.9792   98.7522 H         1 PDY         0.2189
     46 H         102.2474  113.8155   99.0022 H         1 PDY         0.0512
     47 H         104.3893  113.1040   97.9609 H         1 PDY         0.0516
     48 H         100.0797  112.0184   95.7619 H         1 PDY         0.0512
     49 H         102.2200  111.4507   94.6401 H         1 PDY         0.0516
     50 H         105.9620  113.1941   96.5182 H         1 PDY         0.0607
     51 H         105.1641  113.8975   95.1944 H         1 PDY         0.0607
     52 H         106.9812  111.4134   95.0107 H         1 PDY         0.0255
     53 H         106.1445  112.1509   93.6226 H         1 PDY         0.0255
     54 H         107.4252  113.0513   94.4711 H         1 PDY         0.0255
@<TRIPOS>BOND
     1    1    2 1  
     2    1    6 1  
     3    2    3 1  
     4    3    4 1  
     5    4    5 1  
     6    5    6 1  
     7    6    7 1  
     8    7    8 1  
     9    8    9 1  
    10    8   11 2  
    11    9   10 1  
    12    9   17 2  
    13   11   12 1  
    14   12   13 2  
    15   12   16 1  
    16   13   14 1  
    17   14   15 2  
    18   15   16 1  
    19   16   17 1  
    20   17   18 1  
    21   18   19 1  
    22   19   20 ar 
    23   19   22 ar 
    24   20   21 ar 
    25   21   24 ar 
    26   22   23 ar 
    27   23   24 ar 
    28   24   25 1  
    29   25   26 1  
    30   26   27 1  
    31    1   28 1  
    32    1   29 1  
    33    2   30 1  
    34    2   31 1  
    35    3   32 1  
    36    3   33 1  
    37    4   34 1  
    38    4   35 1  
    39    5   36 1  
    40    5   37 1  
    41    6   38 1  
    42    7   39 1  
    43   10   40 1  
    44   10   41 1  
    45   10   42 1  
    46   13   43 1  
    47   14   44 1  
    48   18   45 1  
    49   20   46 1  
    50   21   47 1  
    51   22   48 1  
    52   23   49 1  
    53   26   50 1  
    54   26   51 1  
    55   27   52 1  
    56   27   53 1  
    57   27   54 1  
@<TRIPOS>SUBSTRUCTURE
     1 PDY         1

