### 
### Created by X-TOOL on Mon Sep 10 21:13:02 2018
### 

@<TRIPOS>MOLECULE
3a2o_ligand
   80    82     1     0     0
SMALL
GAST_HUCK


@<TRIPOS>ATOM
      1 C6         11.0240   18.9070   16.8340 C.3       1 KNJ        -0.0375
      2 C7         10.9760   18.0910   18.0940 C.ar      1 KNJ        -0.0341
      3 C5         10.0220   17.0800   18.2210 C.ar      1 KNJ        -0.0585
      4 C4          9.9020   16.2850   19.3570 C.ar      1 KNJ         0.0107
      5 C2         11.7650   17.5470   20.3170 C.ar      1 KNJ        -0.0341
      6 N1          8.9670   15.3080   19.4530 N.pl3     1 KNJ        -0.3453
      7 C3         10.7900   16.5430   20.3800 C.ar      1 KNJ        -0.0585
      8 C1         12.7130   17.7850   21.4510 C.3       1 KNJ        -0.0375
      9 C8         11.8460   18.3150   19.1800 C.ar      1 KNJ         0.0831
     10 O1         12.7770   19.3140   19.0470 O.3       1 KNJ        -0.3139
     11 C9         14.0240   18.8150   18.6060 C.3       1 KNJ         0.1528
     12 C10        14.9220   19.9880   18.1900 C.2       1 KNJ         0.2065
     13 O6         16.1370   19.7620   18.0700 O.2       1 KNJ        -0.3942
     14 N3         14.3660   21.1790   17.9830 N.am      1 KNJ        -0.2750
     15 C11        15.1370   22.3170   17.5390 C.3       1 KNJ         0.0945
     16 C12        14.5250   22.9340   16.2820 C.3       1 KNJ         0.0086
     17 C13        14.3060   21.9140   15.2100 C.ar      1 KNJ        -0.0406
     18 C14        15.3840   21.4000   14.4500 C.ar      1 KNJ        -0.0603
     19 C15        15.1570   20.3950   13.5230 C.ar      1 KNJ        -0.0686
     20 C16        13.9050   19.8760   13.3500 C.ar      1 KNJ        -0.0687
     21 C17        12.8610   20.3750   14.0450 C.ar      1 KNJ        -0.0686
     22 C18        13.0290   21.4130   14.9900 C.ar      1 KNJ        -0.0603
     23 C19        15.2810   23.3490   18.6880 C.3       1 KNJ         0.1683
     24 O2         14.1640   24.1820   18.6920 O.3       1 KNJ        -0.3689
     25 C20        16.5690   24.1320   18.5140 C.2       1 KNJ         0.2129
     26 O4         16.5970   25.1770   17.8480 O.2       1 KNJ        -0.3938
     27 N4         17.6860   23.6370   19.0540 N.am      1 KNJ        -0.2383
     28 C25        17.7460   22.4220   19.8900 C.3       1 KNJ         0.0831
     29 S2         19.4830   22.0700   20.1240 S.3       1 KNJ        -0.1252
     30 C22        19.8730   23.8380   20.0240 C.3       1 KNJ         0.0532
     31 C24        19.4780   24.5500   21.3290 C.3       1 KNJ        -0.0463
     32 C23        21.3420   24.0340   19.7270 C.3       1 KNJ        -0.0463
     33 C21        18.9550   24.3560   18.8850 C.3       1 KNJ         0.1487
     34 C26        19.4780   24.1450   17.4670 C.2       1 KNJ         0.2055
     35 O5         19.2480   23.1110   16.8400 O.2       1 KNJ        -0.3943
     36 N5         20.1560   25.1710   16.9610 N.am      1 KNJ        -0.2712
     37 C27        20.7010   25.1690   15.5940 C.3       1 KNJ         0.0653
     38 C28        19.8260   26.0030   14.6830 C.2       1 KNJ        -0.0547
     39 C30        18.4370   25.5160   14.4550 C.3       1 KNJ        -0.0281
     40 C29        20.3380   27.1310   14.1250 C.2       1 KNJ        -0.1274
     41 H1         10.2536   18.5485   16.1354 H         1 KNJ         0.0365
     42 H2         12.0159   18.8060   16.3693 H         1 KNJ         0.0365
     43 H3         10.8376   19.9641   17.0744 H         1 KNJ         0.0365
     44 H4          9.3419   16.9057   17.3951 H         1 KNJ         0.0372
     45 H5          8.9046   14.7371   20.3080 H         1 KNJ         0.1685
     46 H6          8.3190   15.1366   18.6709 H         1 KNJ         0.1685
     47 H7         10.7306   15.9386   21.2779 H         1 KNJ         0.0372
     48 H8         12.4950   17.0786   22.2656 H         1 KNJ         0.0365
     49 H9         12.5948   18.8153   21.8177 H         1 KNJ         0.0365
     50 H10        13.7458   17.6358   21.1030 H         1 KNJ         0.0365
     51 H11        13.8691   18.1478   17.7453 H         1 KNJ         0.0848
     52 H12        14.5051   18.2555   19.4218 H         1 KNJ         0.0848
     53 H13        13.3845   21.2896   18.1396 H         1 KNJ         0.1859
     54 H14        16.1454   21.9631   17.2785 H         1 KNJ         0.0630
     55 H15        15.2039   23.7108   15.9004 H         1 KNJ         0.0451
     56 H16        13.5579   23.3883   16.5435 H         1 KNJ         0.0451
     57 H17        16.3847   21.7915   14.5927 H         1 KNJ         0.0557
     58 H18        15.9812   20.0168   12.9291 H         1 KNJ         0.0599
     59 H19        13.7496   19.0609   12.6524 H         1 KNJ         0.0559
     60 H20        11.8700   19.9701   13.8745 H         1 KNJ         0.0599
     61 H21        12.1784   21.8101   15.5321 H         1 KNJ         0.0557
     62 H22        15.3245   22.8143   19.6483 H         1 KNJ         0.0863
     63 H23        14.2462   24.8168   19.3940 H         1 KNJ         0.2134
     64 H24        17.2513   21.5823   19.3800 H         1 KNJ         0.0640
     65 H25        17.2583   22.6008   20.8596 H         1 KNJ         0.0640
     66 H26        19.7212   25.6199   21.2510 H         1 KNJ         0.0245
     67 H27        20.0326   24.1083   22.1700 H         1 KNJ         0.0245
     68 H28        18.3978   24.4310   21.4992 H         1 KNJ         0.0245
     69 H29        21.5640   25.1098   19.6692 H         1 KNJ         0.0245
     70 H30        21.5890   23.5566   18.7673 H         1 KNJ         0.0245
     71 H31        21.9421   23.5783   20.5284 H         1 KNJ         0.0245
     72 H32        18.7948   25.4350   19.0267 H         1 KNJ         0.0816
     73 H33        20.3016   25.9779   17.5335 H         1 KNJ         0.1884
     74 H34        20.7365   24.1358   15.2182 H         1 KNJ         0.0718
     75 H35        21.7173   25.5896   15.6071 H         1 KNJ         0.0718
     76 H36        17.9122   26.2078   13.7797 H         1 KNJ         0.0425
     77 H37        17.9036   25.4661   15.4157 H         1 KNJ         0.0425
     78 H38        18.4694   24.5145   14.0011 H         1 KNJ         0.0425
     79 H39        21.3645   27.4260   14.3375 H         1 KNJ         0.0076
     80 H40        19.7219   27.7402   13.4653 H         1 KNJ         0.0076
@<TRIPOS>BOND
     1    1    2 1  
     2    2    3 ar 
     3    2    9 ar 
     4    3    4 ar 
     5    4    6 1  
     6    4    7 ar 
     7    7    5 ar 
     8    5    8 1  
     9    5    9 ar 
    10    9   10 1  
    11   10   11 1  
    12   11   12 1  
    13   12   13 2  
    14   12   14 am 
    15   14   15 1  
    16   15   16 1  
    17   15   23 1  
    18   16   17 1  
    19   17   18 ar 
    20   17   22 ar 
    21   18   19 ar 
    22   19   20 ar 
    23   20   21 ar 
    24   21   22 ar 
    25   23   24 1  
    26   23   25 1  
    27   25   26 2  
    28   25   27 am 
    29   27   28 1  
    30   27   33 1  
    31   28   29 1  
    32   29   30 1  
    33   30   31 1  
    34   30   32 1  
    35   30   33 1  
    36   33   34 1  
    37   34   35 2  
    38   34   36 am 
    39   36   37 1  
    40   37   38 1  
    41   38   39 1  
    42   38   40 2  
    43    1   41 1  
    44    1   42 1  
    45    1   43 1  
    46    3   44 1  
    47    6   45 1  
    48    6   46 1  
    49    7   47 1  
    50    8   48 1  
    51    8   49 1  
    52    8   50 1  
    53   11   51 1  
    54   11   52 1  
    55   14   53 1  
    56   15   54 1  
    57   16   55 1  
    58   16   56 1  
    59   18   57 1  
    60   19   58 1  
    61   20   59 1  
    62   21   60 1  
    63   22   61 1  
    64   23   62 1  
    65   24   63 1  
    66   28   64 1  
    67   28   65 1  
    68   31   66 1  
    69   31   67 1  
    70   31   68 1  
    71   32   69 1  
    72   32   70 1  
    73   32   71 1  
    74   33   72 1  
    75   36   73 1  
    76   37   74 1  
    77   37   75 1  
    78   39   76 1  
    79   39   77 1  
    80   39   78 1  
    81   40   79 1  
    82   40   80 1  
@<TRIPOS>SUBSTRUCTURE
     1 KNJ         1

