### 
### Created by X-TOOL on Mon Sep 10 21:13:02 2018
### 

@<TRIPOS>MOLECULE
3a3y_ligand
   85    90     1     0     0
SMALL
GAST_HUCK


@<TRIPOS>ATOM
      1 C1        148.2050   16.4970   -3.5450 C.3       1 OBN         0.0683
      2 C2        147.7280   15.1070   -3.9900 C.3       1 OBN         0.0004
      3 C3        146.9210   15.1880   -5.2810 C.3       1 OBN         0.0668
      4 C4        145.7270   16.1110   -5.0520 C.3       1 OBN         0.0032
      5 C5        146.1260   17.5110   -4.5640 C.3       1 OBN         0.0788
      6 C6        144.8680   18.3470   -4.3380 C.3       1 OBN        -0.0229
      7 C7        144.0840   17.8860   -3.1150 C.3       1 OBN        -0.0446
      8 C8        144.9560   17.8490   -1.8520 C.3       1 OBN        -0.0054
      9 C9        146.2610   17.0500   -2.0540 C.3       1 OBN         0.0032
     10 C10       147.0530   17.4940   -3.3160 C.3       1 OBN         0.0540
     11 C11       147.0400   17.0220   -0.7270 C.3       1 OBN         0.0600
     12 C12       146.2220   16.2250    0.2710 C.3       1 OBN        -0.0156
     13 C13       144.8710   16.8650    0.5870 C.3       1 OBN         0.0170
     14 C14       144.1100   17.4330   -0.6340 C.3       1 OBN         0.0777
     15 C15       143.0340   16.4250   -1.0340 C.3       1 OBN        -0.0201
     16 C16       142.8080   15.5080    0.1490 C.3       1 OBN        -0.0318
     17 C17       143.9890   15.7100    1.0900 C.3       1 OBN         0.0154
     18 C18       145.1360   17.9430    1.6430 C.3       1 OBN        -0.0539
     19 C19       147.5890   18.9220   -3.0650 C.3       1 OBN         0.0552
     20 C20       143.4720   15.8400    2.4930 C.2       1 OBN        -0.0064
     21 C21       142.6150   16.9820    3.0260 C.3       1 OBN         0.1204
     22 C22       143.7370   14.8980    3.3970 C.2       1 OBN         0.0017
     23 C23       143.2890   15.4570    4.6690 C.2       1 OBN         0.2187
     24 C1'       147.6940   15.1610   -7.6030 C.3       1 OBN         0.1881
     25 C2'       148.8660   15.7070   -8.4240 C.3       1 OBN         0.1341
     26 C3'       150.1940   15.0610   -8.0170 C.3       1 OBN         0.1140
     27 C4'       150.1030   13.5350   -8.0310 C.3       1 OBN         0.1095
     28 C5'       148.9060   13.0610   -7.2020 C.3       1 OBN         0.0873
     29 C6'       148.6980   11.5570   -7.3300 C.3       1 OBN        -0.0361
     30 O1        149.1440   17.0130   -4.5030 O.3       1 OBN        -0.3910
     31 O3        147.7800   15.7250   -6.2890 O.3       1 OBN        -0.3452
     32 O5        146.8310   18.1440   -5.6330 O.3       1 OBN        -0.3878
     33 O11       148.3340   16.4100   -0.8090 O.3       1 OBN        -0.3915
     34 O14       143.3930   18.5960   -0.2170 O.3       1 OBN        -0.3875
     35 O19       148.9670   18.9360   -2.6580 O.3       1 OBN        -0.3943
     36 O21       142.5640   16.6870    4.4240 O.3       1 OBN        -0.2665
     37 O23       143.4930   14.9810    5.7710 O.2       1 OBN        -0.3870
     38 O2'       148.6170   15.5070   -9.8220 O.3       1 OBN        -0.3841
     39 O3'       151.2380   15.4940   -8.8940 O.3       1 OBN        -0.3864
     40 O4'       151.3190   12.9790   -7.5140 O.3       1 OBN        -0.3866
     41 O5'       147.6930   13.7200   -7.6060 O.3       1 OBN        -0.3431
     42 H1        148.7288   16.3763   -2.5853 H         1 OBN         0.0601
     43 H2        147.0976   14.6739   -3.1995 H         1 OBN         0.0315
     44 H3        148.6042   14.4626   -4.1545 H         1 OBN         0.0315
     45 H4        146.5692   14.1889   -5.5776 H         1 OBN         0.0599
     46 H5        145.0708   15.6523   -4.2977 H         1 OBN         0.0318
     47 H6        145.1792   16.2149   -6.0002 H         1 OBN         0.0318
     48 H7        144.2227   18.2634   -5.2249 H         1 OBN         0.0293
     49 H8        145.1613   19.3976   -4.1957 H         1 OBN         0.0293
     50 H9        143.6914   16.8762   -3.3049 H         1 OBN         0.0270
     51 H10       143.2467   18.5795   -2.9480 H         1 OBN         0.0270
     52 H11       145.2726   18.8849   -1.6606 H         1 OBN         0.0332
     53 H12       145.9654   16.0091   -2.2518 H         1 OBN         0.0337
     54 H13       147.1630   18.0557   -0.3717 H         1 OBN         0.0596
     55 H14       146.7960   16.1401    1.2055 H         1 OBN         0.0299
     56 H15       146.0454   15.2215   -0.1434 H         1 OBN         0.0299
     57 H16       143.3709   15.8409   -1.9031 H         1 OBN         0.0295
     58 H17       142.1011   16.9510   -1.2851 H         1 OBN         0.0295
     59 H18       142.7644   14.4610   -0.1855 H         1 OBN         0.0301
     60 H19       141.8686   15.7698    0.6578 H         1 OBN         0.0301
     61 H20       144.6096   14.8023    1.0602 H         1 OBN         0.0549
     62 H21       145.7703   18.7312    1.2112 H         1 OBN         0.0238
     63 H22       145.6476   17.4926    2.5064 H         1 OBN         0.0238
     64 H23       144.1805   18.3792    1.9695 H         1 OBN         0.0238
     65 H24       146.9843   19.3905   -2.2745 H         1 OBN         0.0564
     66 H25       147.4911   19.5025   -3.9942 H         1 OBN         0.0564
     67 H26       141.6104   16.9707    2.5782 H         1 OBN         0.0859
     68 H27       143.0883   17.9574    2.8403 H         1 OBN         0.0859
     69 H28       144.1896   13.9226    3.2245 H         1 OBN         0.0295
     70 H29       146.7526   15.4970   -8.0622 H         1 OBN         0.0937
     71 H30       148.9418   16.7882   -8.2361 H         1 OBN         0.0671
     72 H31       150.4369   15.3843   -6.9940 H         1 OBN         0.0648
     73 H32       149.9693   13.1961   -9.0689 H         1 OBN         0.0646
     74 H33       149.1042   13.3015   -6.1471 H         1 OBN         0.0621
     75 H34       147.8323   11.2536   -6.7229 H         1 OBN         0.0255
     76 H35       149.5967   11.0310   -6.9756 H         1 OBN         0.0255
     77 H36       148.5147   11.3005   -8.3839 H         1 OBN         0.0255
     78 H37       148.7006   17.1644   -5.3294 H         1 OBN         0.2098
     79 H38       147.6280   17.6603   -5.8155 H         1 OBN         0.2102
     80 H39       148.8710   16.8892   -1.4290 H         1 OBN         0.2098
     81 H40       142.9196   18.9571   -0.9572 H         1 OBN         0.2102
     82 H41       149.5007   18.5403   -3.3371 H         1 OBN         0.2094
     83 H42       149.3192   15.8999  -10.3270 H         1 OBN         0.2101
     84 H43       151.0509   15.1986   -9.7773 H         1 OBN         0.2100
     85 H44       152.0519   13.2814   -8.0375 H         1 OBN         0.2100
@<TRIPOS>BOND
     1    2    1 1  
     2    1   10 1  
     3    1   30 1  
     4    3    2 1  
     5    3    4 1  
     6   31    3 1  
     7    4    5 1  
     8    5    6 1  
     9    5   10 1  
    10    5   32 1  
    11    6    7 1  
    12    7    8 1  
    13    9    8 1  
    14    8   14 1  
    15   10    9 1  
    16    9   11 1  
    17   10   19 1  
    18   11   12 1  
    19   11   33 1  
    20   12   13 1  
    21   14   13 1  
    22   13   17 1  
    23   13   18 1  
    24   14   15 1  
    25   14   34 1  
    26   15   16 1  
    27   17   16 1  
    28   17   20 1  
    29   19   35 1  
    30   20   21 1  
    31   20   22 2  
    32   21   36 1  
    33   22   23 1  
    34   23   36 1  
    35   23   37 2  
    36   24   25 1  
    37   24   31 1  
    38   24   41 1  
    39   25   26 1  
    40   25   38 1  
    41   26   27 1  
    42   26   39 1  
    43   27   28 1  
    44   27   40 1  
    45   28   29 1  
    46   28   41 1  
    47    1   42 1  
    48    2   43 1  
    49    2   44 1  
    50    3   45 1  
    51    4   46 1  
    52    4   47 1  
    53    6   48 1  
    54    6   49 1  
    55    7   50 1  
    56    7   51 1  
    57    8   52 1  
    58    9   53 1  
    59   11   54 1  
    60   12   55 1  
    61   12   56 1  
    62   15   57 1  
    63   15   58 1  
    64   16   59 1  
    65   16   60 1  
    66   17   61 1  
    67   18   62 1  
    68   18   63 1  
    69   18   64 1  
    70   19   65 1  
    71   19   66 1  
    72   21   67 1  
    73   21   68 1  
    74   22   69 1  
    75   24   70 1  
    76   25   71 1  
    77   26   72 1  
    78   27   73 1  
    79   28   74 1  
    80   29   75 1  
    81   29   76 1  
    82   29   77 1  
    83   30   78 1  
    84   32   79 1  
    85   33   80 1  
    86   34   81 1  
    87   35   82 1  
    88   38   83 1  
    89   39   84 1  
    90   40   85 1  
@<TRIPOS>SUBSTRUCTURE
     1 OBN         1

