### 
### Created by X-TOOL on Mon Sep 10 21:13:02 2018
### 

@<TRIPOS>MOLECULE
3a4o_ligand
   62    69     1     0     0
SMALL
GAST_HUCK


@<TRIPOS>ATOM
      1 O4         -2.6710  -25.1710  -19.4540 O.3       1 STU        -0.3149
      2 C25        -2.2480  -24.4910  -18.2460 C.3       1 STU         0.1668
      3 C24        -3.2940  -24.4990  -17.1250 C.3       1 STU         0.0455
      4 C23        -4.6190  -25.0330  -17.5980 C.3       1 STU         0.0141
      5 C22        -4.7620  -24.2120  -18.8620 C.3       1 STU         0.1556
      6 C21        -3.9320  -24.7970  -19.9590 C.3       1 STU         0.2020
      7 C26        -4.5820  -26.0670  -20.3920 C.3       1 STU        -0.0059
      8 N2         -3.9640  -23.8180  -21.0600 N.pl3     1 STU        -0.2292
      9 C18        -3.2060  -22.6700  -20.7170 C.ar      1 STU         0.0978
     10 C19        -2.2570  -22.3750  -19.6330 C.ar      1 STU         0.0952
     11 C6         -1.5850  -21.1330  -19.6040 C.ar      1 STU        -0.0018
     12 C7         -1.7730  -20.1360  -20.6210 C.ar      1 STU         0.0320
     13 C10        -2.6640  -20.3830  -21.6720 C.ar      1 STU        -0.0168
     14 C11        -3.3370  -21.6400  -21.6830 C.ar      1 STU         0.0011
     15 C12        -4.3290  -22.0700  -22.5990 C.ar      1 STU        -0.0075
     16 C17        -4.5880  -23.3930  -22.1720 C.ar      1 STU         0.0695
     17 C16        -5.5710  -24.1080  -22.8530 C.ar      1 STU        -0.0408
     18 C15        -6.2150  -23.5300  -23.9760 C.ar      1 STU        -0.0739
     19 C14        -5.8880  -22.2350  -24.4210 C.ar      1 STU        -0.0759
     20 C13        -4.9320  -21.4780  -23.7200 C.ar      1 STU        -0.0696
     21 C9         -2.6440  -19.1050  -22.5290 C.3       1 STU         0.0603
     22 N1         -1.7120  -18.2250  -21.8080 N.am      1 STU        -0.2790
     23 C8         -1.1620  -18.8810  -20.7420 C.2       1 STU         0.1871
     24 O5         -0.2480  -18.4520  -20.0640 O.2       1 STU        -0.3964
     25 C5         -0.7600  -21.1220  -18.4460 C.ar      1 STU        -0.0072
     26 C20        -0.9750  -22.3960  -17.8770 C.ar      1 STU         0.0681
     27 C1         -0.2870  -22.7930  -16.6990 C.ar      1 STU        -0.0404
     28 C2          0.6090  -21.8820  -16.0940 C.ar      1 STU        -0.0732
     29 C3          0.8000  -20.6000  -16.6440 C.ar      1 STU        -0.0750
     30 C4          0.1220  -20.2140  -17.8350 C.ar      1 STU        -0.0685
     31 N3         -1.8480  -23.1130  -18.5810 N.pl3     1 STU        -0.2376
     32 O6         -5.0340  -23.0190  -18.8880 O.3       1 STU        -0.3686
     33 C27        -6.3250  -22.3730  -18.8250 C.3       1 STU         0.0373
     34 N4         -5.6280  -24.7260  -16.5980 N.4       1 STU         0.2291
     35 C28        -6.1030  -26.0050  -16.0730 C.3       1 STU        -0.0445
     36 H1         -1.3619  -25.0194  -17.8644 H         1 STU         0.0933
     37 H2         -3.4343  -23.4701  -16.7621 H         1 STU         0.0372
     38 H3         -2.9289  -25.1314  -16.3024 H         1 STU         0.0372
     39 H4         -4.6022  -26.1134  -17.8038 H         1 STU         0.0880
     40 H5         -5.7523  -24.5744  -19.1750 H         1 STU         0.0710
     41 H6         -5.5795  -25.8476  -20.8005 H         1 STU         0.0284
     42 H7         -4.6796  -26.7418  -19.5288 H         1 STU         0.0284
     43 H8         -3.9666  -26.5485  -21.1662 H         1 STU         0.0284
     44 H9         -5.8430  -25.1047  -22.5247 H         1 STU         0.0538
     45 H10        -6.9745  -24.0966  -24.5026 H         1 STU         0.0561
     46 H11        -6.3708  -21.8232  -25.2999 H         1 STU         0.0516
     47 H12        -4.6704  -20.4740  -24.0339 H         1 STU         0.0566
     48 H13        -3.6457  -18.6542  -22.5868 H         1 STU         0.0679
     49 H14        -2.2784  -19.3178  -23.5444 H         1 STU         0.0679
     50 H15        -1.5090  -17.2793  -22.0619 H         1 STU         0.1863
     51 H16        -0.4462  -23.7765  -16.2719 H         1 STU         0.0539
     52 H17         1.1520  -22.1721  -15.2017 H         1 STU         0.0568
     53 H18         1.4693  -19.9006  -16.1563 H         1 STU         0.0516
     54 H19         0.2840  -19.2323  -18.2651 H         1 STU         0.0576
     55 H20        -6.1920  -21.2822  -18.8745 H         1 STU         0.0524
     56 H21        -6.8225  -22.6392  -17.8808 H         1 STU         0.0524
     57 H22        -6.9433  -22.7057  -19.6718 H         1 STU         0.0524
     58 H23        -6.3907  -24.2185  -17.0186 H         1 STU         0.2014
     59 H24        -5.2256  -24.1743  -15.8566 H         1 STU         0.2014
     60 H25        -6.8727  -25.8243  -15.3082 H         1 STU         0.0777
     61 H26        -5.2612  -26.5524  -15.6238 H         1 STU         0.0777
     62 H27        -6.5326  -26.6007  -16.8919 H         1 STU         0.0777
@<TRIPOS>BOND
     1    1    2 1  
     2    1    6 1  
     3    2    3 1  
     4    2   31 1  
     5    3    4 1  
     6    4    5 1  
     7    4   34 1  
     8    5    6 1  
     9    5   32 1  
    10    6    7 1  
    11    6    8 1  
    12    8    9 1  
    13    8   16 1  
    14    9   10 ar 
    15    9   14 ar 
    16   10   11 ar 
    17   10   31 1  
    18   11   12 ar 
    19   11   25 1  
    20   12   13 ar 
    21   12   23 1  
    22   13   14 ar 
    23   13   21 1  
    24   14   15 1  
    25   15   16 ar 
    26   15   20 ar 
    27   16   17 ar 
    28   17   18 ar 
    29   18   19 ar 
    30   19   20 ar 
    31   21   22 1  
    32   22   23 am 
    33   23   24 2  
    34   25   26 ar 
    35   25   30 ar 
    36   26   27 ar 
    37   26   31 1  
    38   27   28 ar 
    39   28   29 ar 
    40   29   30 ar 
    41   32   33 1  
    42   34   35 1  
    43    2   36 1  
    44    3   37 1  
    45    3   38 1  
    46    4   39 1  
    47    5   40 1  
    48    7   41 1  
    49    7   42 1  
    50    7   43 1  
    51   17   44 1  
    52   18   45 1  
    53   19   46 1  
    54   20   47 1  
    55   21   48 1  
    56   21   49 1  
    57   22   50 1  
    58   27   51 1  
    59   28   52 1  
    60   29   53 1  
    61   30   54 1  
    62   33   55 1  
    63   33   56 1  
    64   33   57 1  
    65   34   58 1  
    66   34   59 1  
    67   35   60 1  
    68   35   61 1  
    69   35   62 1  
@<TRIPOS>SUBSTRUCTURE
     1 STU         1

