### 
### Created by X-TOOL on Mon Sep 10 21:13:03 2018
### 

@<TRIPOS>MOLECULE
3a4p_ligand
   45    47     1     0     0
SMALL
GAST_HUCK


@<TRIPOS>ATOM
      1 C1        -26.4880  -19.7530   -2.5780 C.3       1 DFQ         0.0185
      2 N2        -25.5060  -20.3830   -1.6950 N.am      1 DFQ        -0.2915
      3 C4        -24.3700  -19.7870   -1.2970 C.2       1 DFQ         0.1926
      4 O5        -23.9990  -18.6600   -1.6490 O.2       1 DFQ        -0.3900
      5 C6        -23.5800  -20.5570   -0.4260 C.2       1 DFQ         0.0124
      6 C7        -22.3230  -20.1790    0.0650 C.2       1 DFQ        -0.0328
      7 C8        -21.7330  -20.9370    1.1060 C.ar      1 DFQ         0.0105
      8 C9        -20.9730  -20.2930    2.0910 C.ar      1 DFQ        -0.0291
      9 C10       -20.4290  -21.0120    3.1350 C.ar      1 DFQ        -0.0004
     10 C11       -19.6360  -20.3770    4.0830 C.ar      1 DFQ        -0.0194
     11 C12       -21.9490  -22.2980    1.3090 C.ar      1 DFQ         0.0178
     12 N13       -21.4330  -22.9740    2.3300 N.ar      1 DFQ        -0.2973
     13 C14       -20.6780  -22.3830    3.2490 C.ar      1 DFQ         0.0415
     14 C15       -20.1370  -23.1410    4.2900 C.ar      1 DFQ        -0.0404
     15 C16       -19.3700  -22.5020    5.2560 C.ar      1 DFQ        -0.0209
     16 C17       -19.1010  -21.1400    5.1550 C.ar      1 DFQ         0.1018
     17 O18       -18.3020  -20.5960    6.1210 O.3       1 DFQ        -0.2994
     18 C19       -17.8120  -19.1660    6.1240 C.3       1 DFQ         0.1134
     19 C20       -16.4480  -19.0800    6.8660 C.3       1 DFQ        -0.0238
     20 C21       -18.9650  -18.3240    6.7330 C.ar      1 DFQ         0.0163
     21 C22       -19.6940  -18.6780    7.8930 C.ar      1 DFQ         0.0774
     22 CL23      -19.3510  -20.0890    8.8320 Cl        1 DFQ        -0.0787
     23 C24       -20.7350  -17.8510    8.3660 C.ar      1 DFQ         0.1404
     24 F25       -21.4380  -18.1690    9.4760 F         1 DFQ        -0.1842
     25 C26       -21.0700  -16.6850    7.6920 C.ar      1 DFQ        -0.0339
     26 C27       -20.3740  -16.3540    6.5420 C.ar      1 DFQ        -0.0561
     27 C28       -19.3480  -17.1660    6.0850 C.ar      1 DFQ         0.0404
     28 CL29      -18.5320  -16.6870    4.6710 Cl        1 DFQ        -0.0808
     29 H         -26.8619  -18.8414   -2.1118 H         1 DFQ         0.0482
     30 H         -26.0153  -19.5085   -3.5293 H         1 DFQ         0.0482
     31 H         -27.3158  -20.4413   -2.7485 H         1 DFQ         0.0482
     32 H         -25.6949  -21.3287   -1.3628 H         1 DFQ         0.1833
     33 H         -23.9752  -21.5218   -0.1082 H         1 DFQ         0.0677
     34 H         -21.8062  -19.3131   -0.3487 H         1 DFQ         0.0751
     35 H         -20.8105  -19.2168    2.0321 H         1 DFQ         0.0775
     36 H         -19.4277  -19.3099    4.0052 H         1 DFQ         0.0536
     37 H         -22.5725  -22.8354    0.5945 H         1 DFQ         0.0859
     38 H         -20.3136  -24.2153    4.3435 H         1 DFQ         0.0642
     39 H         -18.9763  -23.0707    6.0984 H         1 DFQ         0.0631
     40 H         -17.5950  -18.7681    5.1327 H         1 DFQ         0.0817
     41 H         -16.5726  -19.4218    7.8935 H         1 DFQ         0.0281
     42 H         -15.7189  -19.7111    6.3577 H         1 DFQ         0.0281
     43 H         -16.0998  -18.0471    6.8650 H         1 DFQ         0.0281
     44 H         -21.8676  -16.0407    8.0619 H         1 DFQ         0.0547
     45 H         -20.6345  -15.4493    5.9926 H         1 DFQ         0.0597
@<TRIPOS>BOND
     1    1    2 1  
     2    2    3 am 
     3    3    4 2  
     4    3    5 1  
     5    5    6 2  
     6    6    7 1  
     7    7    8 ar 
     8    7   11 ar 
     9    8    9 ar 
    10    9   10 ar 
    11    9   13 ar 
    12   10   16 ar 
    13   11   12 ar 
    14   12   13 ar 
    15   13   14 ar 
    16   14   15 ar 
    17   15   16 ar 
    18   16   17 1  
    19   17   18 1  
    20   18   19 1  
    21   18   20 1  
    22   20   21 ar 
    23   20   27 ar 
    24   21   22 1  
    25   21   23 ar 
    26   23   24 1  
    27   23   25 ar 
    28   25   26 ar 
    29   26   27 ar 
    30   27   28 1  
    31    1   29 1  
    32    1   30 1  
    33    1   31 1  
    34    2   32 1  
    35    5   33 1  
    36    6   34 1  
    37    8   35 1  
    38   10   36 1  
    39   11   37 1  
    40   14   38 1  
    41   15   39 1  
    42   18   40 1  
    43   19   41 1  
    44   19   42 1  
    45   19   43 1  
    46   25   44 1  
    47   26   45 1  
@<TRIPOS>SUBSTRUCTURE
     1 DFQ         1

