### 
### Created by X-TOOL on Mon Sep 10 21:13:02 2018
### 

@<TRIPOS>MOLECULE
3a5y_ligand
   60    62     1     0     0
SMALL
GAST_HUCK


@<TRIPOS>ATOM
      1 NZ         -3.7240   -4.2390    3.2760 N.4       1 KAA         0.2185
      2 CE         -3.1590   -2.8830    3.2590 C.3       1 KAA        -0.0354
      3 CD         -2.2900   -2.6970    2.0130 C.3       1 KAA        -0.0123
      4 CG         -3.0980   -2.8760    0.7260 C.3       1 KAA        -0.0410
      5 CB         -2.2500   -2.4790   -0.4830 C.3       1 KAA         0.0081
      6 CA         -3.0410   -2.5780   -1.7890 C.3       1 KAA         0.0665
      7 N          -3.2670   -3.9910   -2.1280 N.4       1 KAA         0.2379
      8 C          -2.2450   -1.8860   -2.8970 C.2       1 KAA         0.2460
      9 O          -1.7770   -2.5520   -3.8190 O.2       1 KAA        -0.3891
     10 N8         -2.0920   -0.5690   -2.7960 N.am      1 KAA        -0.1294
     11 S1         -1.3090    0.0800   -4.0700 S.o2      1 KAA         0.1859
     12 O1S        -2.0270   -0.2450   -5.3450 O.2       1 KAA        -0.1218
     13 O2S        -1.2650    1.5700   -3.9010 O.2       1 KAA        -0.1218
     14 O5'         0.0270   -0.4330   -4.1550 O.3       1 KAA        -0.2161
     15 C5'         1.0080   -0.0960   -3.1690 C.3       1 KAA         0.1073
     16 C4'         2.2780    0.4700   -3.8100 C.3       1 KAA         0.1161
     17 O4'         2.7420   -0.3700   -4.8750 O.3       1 KAA        -0.3367
     18 C3'         2.0290    1.8030   -4.5160 C.3       1 KAA         0.1146
     19 O3'         1.9940    2.8430   -3.5350 O.3       1 KAA        -0.3864
     20 C2'         3.3200    1.9040   -5.3300 C.3       1 KAA         0.1385
     21 O2'         4.4020    2.3940   -4.5310 O.3       1 KAA        -0.3836
     22 C1'         3.5910    0.4430   -5.7040 C.3       1 KAA         0.2010
     23 N9          3.2080    0.1630   -7.1040 N.pl3     1 KAA        -0.1919
     24 C8          1.9730   -0.0650   -7.5450 C.2       1 KAA         0.1123
     25 N7          2.0110   -0.3080   -8.8530 N.2       1 KAA        -0.2958
     26 C5          3.2790   -0.2360   -9.2480 C.ar      1 KAA         0.1045
     27 C4          4.0440    0.0700   -8.1330 C.ar      1 KAA         0.1613
     28 N3          5.3710    0.2110   -8.2610 N.ar      1 KAA        -0.2714
     29 C2          5.9500    0.0600   -9.4390 C.ar      1 KAA         0.0533
     30 N1          5.2550   -0.2370  -10.5220 N.ar      1 KAA        -0.2698
     31 C6          3.9250   -0.3950  -10.4680 C.ar      1 KAA         0.1298
     32 N6          3.2390   -0.7120  -11.5630 N.pl3     1 KAA        -0.3152
     33 H1         -4.2949   -4.3548    4.0986 H         1 KAA         0.1994
     34 H2         -2.9760   -4.9146    3.2883 H         1 KAA         0.1994
     35 H3         -4.2888   -4.3780    2.4528 H         1 KAA         0.1994
     36 H4         -2.5439   -2.7327    4.1585 H         1 KAA         0.0813
     37 H5         -3.9766   -2.1472    3.2467 H         1 KAA         0.0813
     38 H6         -1.4787   -3.4396    2.0304 H         1 KAA         0.0317
     39 H7         -1.8606   -1.6844    2.0260 H         1 KAA         0.0317
     40 H8         -3.9943   -2.2397    0.7670 H         1 KAA         0.0270
     41 H9         -3.4001   -3.9292    0.6290 H         1 KAA         0.0270
     42 H10        -1.3793   -3.1485   -0.5425 H         1 KAA         0.0346
     43 H11        -1.9070   -1.4421   -0.3523 H         1 KAA         0.0346
     44 H12        -4.0122   -2.0757   -1.6690 H         1 KAA         0.1099
     45 H13        -3.7882   -4.0508   -2.9887 H         1 KAA         0.2015
     46 H14        -3.7881   -4.4349   -1.3881 H         1 KAA         0.2015
     47 H15        -2.3796   -4.4559   -2.2396 H         1 KAA         0.2015
     48 H16        -2.4228   -0.0326   -2.0195 H         1 KAA         0.2167
     49 H17         1.2679   -1.0007   -2.5998 H         1 KAA         0.0611
     50 H18         0.5856    0.6572   -2.4877 H         1 KAA         0.0611
     51 H19         3.0502    0.5811   -3.0346 H         1 KAA         0.0648
     52 H20         1.1219    1.8067   -5.1381 H         1 KAA         0.0648
     53 H21         1.8396    3.6765   -3.9641 H         1 KAA         0.2100
     54 H22         3.1875    2.5380   -6.2190 H         1 KAA         0.0676
     55 H23         4.1843    3.2576   -4.2004 H         1 KAA         0.2101
     56 H24         4.6520    0.2010   -5.5437 H         1 KAA         0.0996
     57 H25         1.0730   -0.0544   -6.9320 H         1 KAA         0.1349
     58 H26         7.0240    0.1832   -9.5186 H         1 KAA         0.0996
     59 H27         3.7284   -0.8273  -12.4619 H         1 KAA         0.1820
     60 H28         2.2185   -0.8421  -11.5118 H         1 KAA         0.1820
@<TRIPOS>BOND
     1    1    2 1  
     2    2    3 1  
     3    3    4 1  
     4    4    5 1  
     5    5    6 1  
     6    6    7 1  
     7    6    8 1  
     8    8    9 2  
     9    8   10 am 
    10   10   11 am 
    11   11   12 2  
    12   11   13 2  
    13   11   14 1  
    14   14   15 1  
    15   15   16 1  
    16   16   17 1  
    17   16   18 1  
    18   17   22 1  
    19   18   19 1  
    20   18   20 1  
    21   20   21 1  
    22   20   22 1  
    23   22   23 1  
    24   23   24 1  
    25   23   27 1  
    26   24   25 2  
    27   25   26 1  
    28   26   27 ar 
    29   26   31 ar 
    30   27   28 ar 
    31   28   29 ar 
    32   29   30 ar 
    33   30   31 ar 
    34   31   32 1  
    35    1   33 1  
    36    1   34 1  
    37    1   35 1  
    38    2   36 1  
    39    2   37 1  
    40    3   38 1  
    41    3   39 1  
    42    4   40 1  
    43    4   41 1  
    44    5   42 1  
    45    5   43 1  
    46    6   44 1  
    47    7   45 1  
    48    7   46 1  
    49    7   47 1  
    50   10   48 1  
    51   15   49 1  
    52   15   50 1  
    53   16   51 1  
    54   18   52 1  
    55   19   53 1  
    56   20   54 1  
    57   21   55 1  
    58   22   56 1  
    59   24   57 1  
    60   29   58 1  
    61   32   59 1  
    62   32   60 1  
@<TRIPOS>SUBSTRUCTURE
     1 KAA         1

