### 
### Created by X-TOOL on Mon Sep 10 21:13:04 2018
### 

@<TRIPOS>MOLECULE
3a73_ligand
   53    53     1     0     0
SMALL
GAST_HUCK


@<TRIPOS>ATOM
      1 CAA        28.5910   32.2420  -61.5570 C.3       1 PJ2        -0.0653
      2 OAB        27.5690   35.4570  -62.4570 O.co2     1 PJ2        -0.5690
      3 OAC        31.4370   33.1970  -53.6150 O.2       1 PJ2        -0.3937
      4 OAD        25.5590   36.1830  -63.0980 O.co2     1 PJ2        -0.5690
      5 OAE        30.8360   29.6150  -57.4860 O.3       1 PJ2        -0.3827
      6 CAF        26.4330   35.5350  -58.2600 C.2       1 PJ2        -0.0983
      7 CAG        27.5000   35.3450  -57.3640 C.2       1 PJ2        -0.0953
      8 CAH        30.1070   34.9270  -53.9920 C.2       1 PJ2        -0.0169
      9 CAI        29.3110   35.4020  -54.9450 C.2       1 PJ2        -0.0510
     10 CAJ        30.9350   32.2260  -56.1820 C.2       1 PJ2        -0.0738
     11 CAK        29.8140   31.3300  -61.4930 C.3       1 PJ2        -0.0559
     12 CAL        25.5990   34.5890  -58.8080 C.3       1 PJ2        -0.0349
     13 CAM        28.0120   34.2090  -56.7490 C.3       1 PJ2        -0.0162
     14 CAN        30.5480   31.8750  -57.4620 C.2       1 PJ2        -0.0673
     15 CAO        29.4980   29.8760  -61.2530 C.3       1 PJ2        -0.0531
     16 CAP        25.1870   35.0160  -60.2090 C.3       1 PJ2        -0.0348
     17 CAQ        30.2700   29.4830  -60.0410 C.3       1 PJ2        -0.0491
     18 CAR        26.0650   36.1670  -60.7500 C.3       1 PJ2         0.0017
     19 CAS        30.8900   30.7530  -59.5440 C.3       1 PJ2        -0.0199
     20 CAT        26.4230   35.9180  -62.2260 C.2       1 PJ2         0.0349
     21 CAU        30.7140   33.8140  -54.3460 C.2       1 PJ2         0.1178
     22 CAV        30.3600   33.3680  -55.5780 C.3       1 PJ2         0.0618
     23 CAW        31.2930   30.7730  -58.0990 C.3       1 PJ2         0.0733
     24 CAX        29.4410   34.5030  -56.1710 C.3       1 PJ2         0.0274
     25 H          27.9413   31.9198  -62.3707 H         1 PJ2         0.0230
     26 H          28.0483   32.1866  -60.6133 H         1 PJ2         0.0230
     27 H          28.9135   33.2683  -61.7325 H         1 PJ2         0.0230
     28 H          31.2879   28.8558  -57.8614 H         1 PJ2         0.2127
     29 H          26.2423   36.5657  -58.5589 H         1 PJ2         0.0450
     30 H          28.0253   36.2634  -57.1021 H         1 PJ2         0.0452
     31 H          30.2423   35.4071  -53.0228 H         1 PJ2         0.0462
     32 H          28.6743   36.2831  -54.8643 H         1 PJ2         0.0863
     33 H          31.6736   31.6303  -55.6455 H         1 PJ2         0.0475
     34 H          30.4199   31.6676  -60.6522 H         1 PJ2         0.0263
     35 H          30.3097   31.3929  -62.4617 H         1 PJ2         0.0263
     36 H          24.7099   34.4880  -58.1856 H         1 PJ2         0.0389
     37 H          26.1222   33.6342  -58.8611 H         1 PJ2         0.0389
     38 H          28.0824   33.4067  -57.4835 H         1 PJ2         0.0425
     39 H          27.3507   33.9160  -55.9336 H         1 PJ2         0.0425
     40 H          29.7335   32.3868  -57.9745 H         1 PJ2         0.0487
     41 H          29.7739   29.2648  -62.1123 H         1 PJ2         0.0265
     42 H          28.4287   29.7232  -61.1069 H         1 PJ2         0.0265
     43 H          24.1558   35.3667  -60.1673 H         1 PJ2         0.0302
     44 H          25.3038   34.1594  -60.8728 H         1 PJ2         0.0302
     45 H          31.0236   28.7295  -60.2701 H         1 PJ2         0.0268
     46 H          29.6302   29.0249  -59.2868 H         1 PJ2         0.0268
     47 H          26.9833   36.2189  -60.1651 H         1 PJ2         0.0432
     48 H          25.5124   37.1032  -60.6711 H         1 PJ2         0.0432
     49 H          30.1313   31.5271  -59.6588 H         1 PJ2         0.0310
     50 H          31.8071   30.8884  -60.1174 H         1 PJ2         0.0310
     51 H          30.0266   32.4157  -55.9903 H         1 PJ2         0.0667
     52 H          32.3750   30.8717  -58.0112 H         1 PJ2         0.0721
     53 H          29.9076   34.8627  -57.0881 H         1 PJ2         0.0592
@<TRIPOS>BOND
     1   11    1 1  
     2   20    2 ar 
     3   21    3 2  
     4   20    4 ar 
     5   23    5 1  
     6    7    6 2  
     7    6   12 1  
     8   13    7 1  
     9    8    9 2  
    10   21    8 1  
    11    9   24 1  
    12   10   14 2  
    13   22   10 1  
    14   15   11 1  
    15   12   16 1  
    16   24   13 1  
    17   14   23 1  
    18   17   15 1  
    19   16   18 1  
    20   19   17 1  
    21   18   20 1  
    22   23   19 1  
    23   21   22 1  
    24   22   24 1  
    25    1   25 1  
    26    1   26 1  
    27    1   27 1  
    28    5   28 1  
    29    6   29 1  
    30    7   30 1  
    31    8   31 1  
    32    9   32 1  
    33   10   33 1  
    34   11   34 1  
    35   11   35 1  
    36   12   36 1  
    37   12   37 1  
    38   13   38 1  
    39   13   39 1  
    40   14   40 1  
    41   15   41 1  
    42   15   42 1  
    43   16   43 1  
    44   16   44 1  
    45   17   45 1  
    46   17   46 1  
    47   18   47 1  
    48   18   48 1  
    49   19   49 1  
    50   19   50 1  
    51   22   51 1  
    52   23   52 1  
    53   24   53 1  
@<TRIPOS>SUBSTRUCTURE
     1 PJ2         1

