### 
### Created by X-TOOL on Mon Sep 10 21:13:00 2018
### 

@<TRIPOS>MOLECULE
3a9i_ligand
   25    24     1     0     0
SMALL
GAST_HUCK


@<TRIPOS>ATOM
      1 N          24.4720   17.8700    1.6860 N.4       1 LYS         0.2327
      2 CA         25.8430   18.4940    1.5890 C.3       1 LYS         0.0283
      3 C          26.5720   17.8450    0.4150 C.2       1 LYS         0.0844
      4 O          26.1970   16.7640   -0.0490 O.co2     1 LYS        -0.5643
      5 CB         26.6050   18.2300    2.8790 C.3       1 LYS         0.0026
      6 CG         27.9560   18.9190    3.0110 C.3       1 LYS        -0.0416
      7 CD         28.6080   18.4330    4.3100 C.3       1 LYS        -0.0123
      8 CE         29.8120   19.2760    4.6620 C.3       1 LYS        -0.0354
      9 NZ         30.2730   18.9510    6.0650 N.4       1 LYS         0.2185
     10 OXT        27.5510   18.4080   -0.0920 O.co2     1 LYS        -0.5643
     11 H1         23.9688   18.2826    2.4558 H         1 LYS         0.2010
     12 H2         24.5644   16.8779    1.8382 H         1 LYS         0.2010
     13 H3         23.9672   18.0329    0.8288 H         1 LYS         0.2010
     14 H4         25.7549   19.5781    1.4245 H         1 LYS         0.1024
     15 H5         26.7719   17.1454    2.9549 H         1 LYS         0.0339
     16 H6         25.9744   18.5635    3.7163 H         1 LYS         0.0339
     17 H7         27.8173   20.0096    3.0478 H         1 LYS         0.0270
     18 H8         28.5934   18.6592    2.1530 H         1 LYS         0.0270
     19 H9         28.9259   17.3876    4.1834 H         1 LYS         0.0317
     20 H10        27.8736   18.4967    5.1265 H         1 LYS         0.0317
     21 H11        29.5418   20.3407    4.6040 H         1 LYS         0.0813
     22 H12        30.6255   19.0649    3.9524 H         1 LYS         0.0813
     23 H13        31.0758   19.5159    6.2942 H         1 LYS         0.1994
     24 H14        30.5219   17.9757    6.1195 H         1 LYS         0.1994
     25 H15        29.5288   19.1448    6.7166 H         1 LYS         0.1994
@<TRIPOS>BOND
     1    1    2 1  
     2    2    3 1  
     3    2    5 1  
     4    3    4 ar 
     5    3   10 ar 
     6    5    6 1  
     7    6    7 1  
     8    7    8 1  
     9    8    9 1  
    10    1   11 1  
    11    1   12 1  
    12    1   13 1  
    13    2   14 1  
    14    5   15 1  
    15    5   16 1  
    16    6   17 1  
    17    6   18 1  
    18    7   19 1  
    19    7   20 1  
    20    8   21 1  
    21    8   22 1  
    22    9   23 1  
    23    9   24 1  
    24    9   25 1  
@<TRIPOS>SUBSTRUCTURE
     1 LYS         1

