### 
### Created by X-TOOL on Mon Sep 10 21:13:02 2018
### 

@<TRIPOS>MOLECULE
3aas_ligand
   32    32     1     0     0
SMALL
GAST_HUCK


@<TRIPOS>ATOM
      1 C          -0.5740   18.8000   21.2800 C.2       1 GUS         0.0529
      2 N          -1.1730   16.8280   19.9230 N.2       1 GUS        -0.2902
      3 O          -0.8440   19.9350   21.7300 O.co2     1 GUS        -0.5674
      4 CA         -1.5760   18.1920   20.2970 C.3       1 GUS         0.0817
      5 CB         -2.9600   18.1480   20.9460 C.3       1 GUS        -0.0363
      6 NAA        -2.5540   14.2610   14.1580 N.pl3     1 GUS        -0.3515
      7 CAB        -2.5980   13.0080   14.5990 C.cat     1 GUS         0.1554
      8 NAC        -2.4520   12.6960   15.8630 N.pl3     1 GUS        -0.2532
      9 CAD        -1.8830   13.1190   16.9890 C.ar      1 GUS         0.1418
     10 CAE        -0.9960   12.3240   17.7080 C.ar      1 GUS         0.0422
     11 CAF        -0.3940   12.8190   18.8590 C.ar      1 GUS         0.0526
     12 NAG        -2.8080   12.0190   13.7330 N.pl3     1 GUS        -0.3515
     13 CAH        -2.1650   14.4030   17.4370 C.ar      1 GUS         0.0501
     14 CAI        -1.5660   14.9020   18.5850 C.ar      1 GUS         0.1201
     15 CAJ        -0.6740   14.1070   19.2990 C.ar      1 GUS         0.2027
     16 OAK        -0.0680   14.5850   20.4190 O.3       1 GUS        -0.2617
     17 CAL        -1.8480   16.2090   18.9750 C.2       1 GUS         0.0590
     18 OXT         0.4390   18.1220   21.5590 O.co2     1 GUS        -0.5674
     19 H1         -1.6168   18.8165   19.3924 H         1 GUS         0.0639
     20 H2         -3.6820   17.7110   20.2405 H         1 GUS         0.0262
     21 H3         -3.2750   19.1689   21.2076 H         1 GUS         0.0262
     22 H4         -2.9186   17.5323   21.8566 H         1 GUS         0.0262
     23 H5         -2.6741   14.4582   13.1542 H         1 GUS         0.1659
     24 H6         -2.3998   15.0349   14.8200 H         1 GUS         0.1659
     25 H7         -2.9526   11.8156   16.0508 H         1 GUS         0.2309
     26 H8         -0.7743   11.3180   17.3704 H         1 GUS         0.0969
     27 H9          0.2973   12.1971   19.4161 H         1 GUS         0.0857
     28 H10        -2.9272   12.2280   12.7315 H         1 GUS         0.1659
     29 H11        -2.8513   11.0447   14.0645 H         1 GUS         0.1659
     30 H12        -2.8612   15.0226   16.8834 H         1 GUS         0.0856
     31 H13        -0.7289   14.8161   21.0612 H         1 GUS         0.2970
     32 H14        -2.6579   16.7403   18.4772 H         1 GUS         0.1183
@<TRIPOS>BOND
     1    1    3 ar 
     2    4    1 1  
     3    1   18 ar 
     4    2    4 1  
     5   17    2 2  
     6    4    5 1  
     7    7    6 ar 
     8    8    7 ar 
     9    7   12 ar 
    10    9    8 1  
    11    9   10 ar 
    12   13    9 ar 
    13   11   10 ar 
    14   15   11 ar 
    15   14   13 ar 
    16   14   15 ar 
    17   14   17 1  
    18   15   16 1  
    19    4   19 1  
    20    5   20 1  
    21    5   21 1  
    22    5   22 1  
    23    6   23 1  
    24    6   24 1  
    25    8   25 1  
    26   10   26 1  
    27   11   27 1  
    28   12   28 1  
    29   12   29 1  
    30   13   30 1  
    31   16   31 1  
    32   17   32 1  
@<TRIPOS>SUBSTRUCTURE
     1 GUS         1

