### 
### Created by X-TOOL on Mon Sep 10 21:13:02 2018
### 

@<TRIPOS>MOLECULE
3aau_ligand
   52    53     1     0     0
SMALL
GAST_HUCK


@<TRIPOS>ATOM
      1 NAA        -0.0670   21.6430   29.2130 N.pl3     1 GZC        -0.3515
      2 CAB         0.5650   20.5600   28.7720 C.cat     1 GZC         0.1554
      3 NAC         1.3320   20.3610   27.7490 N.pl3     1 GZC        -0.2532
      4 CAD         0.9210   19.6980   26.6710 C.ar      1 GZC         0.1418
      5 CAE         1.1060   18.3200   26.6360 C.ar      1 GZC         0.0422
      6 CAF         0.7560   17.5950   25.5060 C.ar      1 GZC         0.0526
      7 CAG        -0.0950   14.7450   19.4760 C.ar      1 GZC         0.0441
      8 CAH        -0.4160   14.0240   18.3320 C.ar      1 GZC         0.0337
      9 CAI        -1.2890   14.5700   17.3960 C.ar      1 GZC         0.1294
     10 NAJ        -1.6040   13.8400   16.3290 N.pl3     1 GZC        -0.2552
     11 CAK        -2.2460   14.3050   15.2590 C.cat     1 GZC         0.1553
     12 NAL        -2.7650   13.4470   14.3840 N.pl3     1 GZC        -0.3515
     13 NAM         0.3850   19.4020   29.3990 N.pl3     1 GZC        -0.3515
     14 CAN         0.3710   20.3410   25.5660 C.ar      1 GZC         0.0501
     15 CAO         0.0130   19.6200   24.4350 C.ar      1 GZC         0.1202
     16 CAP         0.2210   18.2480   24.4030 C.ar      1 GZC         0.2027
     17 OAQ        -0.0140   17.5430   23.2670 O.3       1 GZC        -0.2617
     18 OAR        -0.3200   16.6930   20.8150 O.3       1 GZC        -0.2668
     19 CAS        -0.6460   16.0030   19.6890 C.ar      1 GZC         0.1930
     20 CAT        -1.5260   16.5610   18.7650 C.ar      1 GZC         0.0786
     21 CAU        -1.8320   15.8300   17.6220 C.ar      1 GZC         0.0346
     22 NAV        -2.3430   15.6110   15.0300 N.pl3     1 GZC        -0.3515
     23 CAW        -0.6570   20.2320   23.3820 C.2       1 GZC         0.0606
     24 NAX        -1.1070   19.9810   22.2900 N.2       1 GZC        -0.2846
     25 CAY        -1.7000   20.7590   21.1910 C.3       1 GZC         0.0806
     26 CAZ        -2.2710   19.8780   20.2810 C.2       1 GZC         0.0182
     27 NBA        -1.5880   18.8410   19.8260 N.2       1 GZC        -0.3262
     28 CBB        -2.2400   17.9060   18.9260 C.3       1 GZC         0.0593
     29 H1         -0.6414   21.5923   30.0665 H         1 GZC         0.1659
     30 H2          0.0177   22.5329   28.7013 H         1 GZC         0.1659
     31 H3          2.2940   20.7285   27.7699 H         1 GZC         0.2309
     32 H4          1.5256   17.8100   27.4956 H         1 GZC         0.0969
     33 H5          0.8998   16.5208   25.4840 H         1 GZC         0.0857
     34 H6          0.5880   14.3244   20.2052 H         1 GZC         0.0819
     35 H7          0.0116   13.0412   18.1697 H         1 GZC         0.0912
     36 H8         -1.3324   12.8464   16.3308 H         1 GZC         0.2308
     37 H9         -3.2634   13.7968   13.5533 H         1 GZC         0.1659
     38 H10        -2.6683   12.4331   14.5375 H         1 GZC         0.1659
     39 H11        -0.2020   19.3599   30.2443 H         1 GZC         0.1659
     40 H12         0.8325   18.5467   29.0396 H         1 GZC         0.1659
     41 H13         0.2208   21.4143   25.5887 H         1 GZC         0.0856
     42 H14         0.1783   16.6253   23.4197 H         1 GZC         0.2970
     43 H15        -0.5782   16.1906   21.5788 H         1 GZC         0.2942
     44 H16        -2.5102   16.2528   16.8896 H         1 GZC         0.0695
     45 H17        -1.9444   16.2826   15.7015 H         1 GZC         0.1659
     46 H18        -2.8168   15.9512   14.1811 H         1 GZC         0.1659
     47 H19        -0.8338   21.2800   23.6194 H         1 GZC         0.1184
     48 H20        -0.9185   21.3513   20.6927 H         1 GZC         0.0719
     49 H21        -2.4729   21.4328   21.5891 H         1 GZC         0.0719
     50 H22        -3.2916   20.0431   19.9389 H         1 GZC         0.1220
     51 H23        -3.2523   17.7116   19.3101 H         1 GZC         0.0629
     52 H24        -2.3082   18.3774   17.9345 H         1 GZC         0.0629
@<TRIPOS>BOND
     1    2    1 ar 
     2    3    2 ar 
     3    2   13 ar 
     4    4    3 1  
     5    4    5 ar 
     6   14    4 ar 
     7    6    5 ar 
     8   16    6 ar 
     9    7    8 ar 
    10   19    7 ar 
    11    9    8 ar 
    12    9   10 1  
    13   21    9 ar 
    14   10   11 ar 
    15   11   12 ar 
    16   11   22 ar 
    17   15   14 ar 
    18   15   16 ar 
    19   23   15 1  
    20   16   17 1  
    21   19   18 1  
    22   20   19 ar 
    23   20   21 ar 
    24   28   20 1  
    25   24   23 2  
    26   25   24 1  
    27   26   25 1  
    28   27   26 2  
    29   27   28 1  
    30    1   29 1  
    31    1   30 1  
    32    3   31 1  
    33    5   32 1  
    34    6   33 1  
    35    7   34 1  
    36    8   35 1  
    37   10   36 1  
    38   12   37 1  
    39   12   38 1  
    40   13   39 1  
    41   13   40 1  
    42   14   41 1  
    43   17   42 1  
    44   18   43 1  
    45   21   44 1  
    46   22   45 1  
    47   22   46 1  
    48   23   47 1  
    49   25   48 1  
    50   25   49 1  
    51   26   50 1  
    52   28   51 1  
    53   28   52 1  
@<TRIPOS>SUBSTRUCTURE
     1 GZC         1

