### 
### Created by X-TOOL on Mon Sep 10 21:13:03 2018
### 

@<TRIPOS>MOLECULE
3aav_ligand
   54    55     1     0     0
SMALL
GAST_HUCK


@<TRIPOS>ATOM
      1 NAA       -17.0910   44.0060    1.2030 N.pl3     1 A2C        -0.2734
      2 CAB       -17.6250   42.7870    1.1520 C.cat     1 A2C         0.2278
      3 CAC       -17.3710   41.9680    0.0590 C.ar      1 A2C         0.0079
      4 CAD       -16.4330   42.3620   -0.8870 C.ar      1 A2C        -0.0724
      5 CAE       -16.1780   41.5530   -1.9910 C.ar      1 A2C        -0.0397
      6 CAF       -18.3210   37.3380   -7.9560 C.ar      1 A2C        -0.0397
      7 CAG       -19.1130   36.5870   -8.8180 C.ar      1 A2C        -0.0724
      8 CAH       -19.1960   35.2090   -8.6460 C.ar      1 A2C         0.0079
      9 CAI       -19.2690   34.5300   -9.7820 C.cat     1 A2C         0.2278
     10 NAJ       -19.6320   35.1940  -10.8330 N.pl3     1 A2C        -0.2734
     11 NAK       -18.3950   42.3580    2.1480 N.pl3     1 A2C        -0.2734
     12 CAL       -18.0580   40.7670   -0.0950 C.ar      1 A2C        -0.0586
     13 CAM       -17.8040   39.9640   -1.2000 C.ar      1 A2C         0.0302
     14 CAN       -16.8620   40.3530   -2.1460 C.ar      1 A2C         0.0943
     15 OAO       -16.5920   39.5530   -3.2110 O.3       1 A2C        -0.3367
     16 OAP       -17.7310   37.4170   -5.7700 O.3       1 A2C        -0.3367
     17 CAQ       -17.6240   36.7310   -6.9370 C.ar      1 A2C         0.0943
     18 CAR       -17.6890   35.3370   -6.7610 C.ar      1 A2C         0.0302
     19 CAS       -18.3940   34.6600   -7.6440 C.ar      1 A2C        -0.0586
     20 NAT       -18.9010   33.2580   -9.6560 N.pl3     1 A2C        -0.2734
     21 CAU       -18.5290   38.7940   -1.3940 C.3       1 A2C        -0.0012
     22 NAV       -18.3740   37.9940   -2.4010 N.4       1 A2C         0.2413
     23 CAW       -17.6060   36.7450   -2.3200 C.3       1 A2C         0.0086
     24 CAX       -17.8580   35.8710   -3.3710 C.3       1 A2C         0.0086
     25 NAY       -16.9980   35.3460   -4.5970 N.4       1 A2C         0.2413
     26 CAZ       -16.9110   34.5570   -5.7000 C.3       1 A2C        -0.0012
     27 H         -17.2727   44.6093    2.0052 H         1 A2C         0.3180
     28 H         -16.5003   44.3364    0.4399 H         1 A2C         0.3180
     29 H         -15.8973   43.3034   -0.7650 H         1 A2C         0.0531
     30 H         -15.4420   41.8607   -2.7338 H         1 A2C         0.0521
     31 H         -18.2519   38.4176   -8.0890 H         1 A2C         0.0521
     32 H         -19.6644   37.0743   -9.6221 H         1 A2C         0.0531
     33 H         -19.8447   36.1889  -10.7595 H         1 A2C         0.3180
     34 H         -19.7052   34.7221  -11.7343 H         1 A2C         0.3180
     35 H         -18.8023   41.4235    2.1117 H         1 A2C         0.3180
     36 H         -18.5782   42.9635    2.9482 H         1 A2C         0.3180
     37 H         -18.7925   40.4578    0.6486 H         1 A2C         0.0527
     38 H         -16.2689   38.7046   -2.8987 H         1 A2C         0.2456
     39 H         -17.3809   38.3031   -5.8877 H         1 A2C         0.2456
     40 H         -18.3469   33.5725   -7.5871 H         1 A2C         0.0527
     41 H         -18.6024   32.9010   -8.7484 H         1 A2C         0.3180
     42 H         -18.9174   32.6396  -10.4670 H         1 A2C         0.3180
     43 H         -19.5431   39.1657   -1.5410 H         1 A2C         0.0955
     44 H         -18.2139   38.1780   -0.5518 H         1 A2C         0.0955
     45 H         -17.8363   38.5546   -3.0621 H         1 A2C         0.2028
     46 H         -19.3231   37.6711   -2.5891 H         1 A2C         0.2028
     47 H         -17.8956   36.2411   -1.3979 H         1 A2C         0.0867
     48 H         -16.5487   37.0071   -2.3578 H         1 A2C         0.0867
     49 H         -18.5804   36.4746   -3.9204 H         1 A2C         0.0867
     50 H         -17.9239   34.9426   -2.8037 H         1 A2C         0.0867
     51 H         -16.4146   34.7368   -4.0234 H         1 A2C         0.2028
     52 H         -17.0939   36.2099   -5.1307 H         1 A2C         0.2028
     53 H         -15.8795   34.3654   -5.9957 H         1 A2C         0.0955
     54 H         -17.3183   33.5598   -5.5329 H         1 A2C         0.0955
@<TRIPOS>BOND
     1    2    1 ar 
     2    3    2 1  
     3    2   11 ar 
     4    3    4 ar 
     5   12    3 ar 
     6    5    4 ar 
     7   14    5 ar 
     8    6    7 ar 
     9   17    6 ar 
    10    8    7 ar 
    11    8    9 1  
    12   19    8 ar 
    13    9   10 ar 
    14    9   20 ar 
    15   13   12 ar 
    16   13   14 ar 
    17   21   13 1  
    18   14   15 1  
    19   17   16 1  
    20   18   17 ar 
    21   18   19 ar 
    22   26   18 1  
    23   22   21 1  
    24   23   22 1  
    25   24   23 1  
    26   25   24 1  
    27   25   26 1  
    28    1   27 1  
    29    1   28 1  
    30    4   29 1  
    31    5   30 1  
    32    6   31 1  
    33    7   32 1  
    34   10   33 1  
    35   10   34 1  
    36   11   35 1  
    37   11   36 1  
    38   12   37 1  
    39   15   38 1  
    40   16   39 1  
    41   19   40 1  
    42   20   41 1  
    43   20   42 1  
    44   21   43 1  
    45   21   44 1  
    46   22   45 1  
    47   22   46 1  
    48   23   47 1  
    49   23   48 1  
    50   24   49 1  
    51   24   50 1  
    52   25   51 1  
    53   25   52 1  
    54   26   53 1  
    55   26   54 1  
@<TRIPOS>SUBSTRUCTURE
     1 A2C         1

