### 
### Created by X-TOOL on Mon Sep 10 21:13:02 2018
### 

@<TRIPOS>MOLECULE
3acw_ligand
   43    46     1     0     0
SMALL
GAST_HUCK


@<TRIPOS>ATOM
      1 OAA        54.8850   12.3290   53.3370 O.3       1 651        -0.4236
      2 CAB        57.7110   21.0050   53.2580 C.ar      1 651        -0.0563
      3 CAC        57.9630   20.1180   54.3060 C.ar      1 651        -0.0552
      4 CAD        57.1980   20.4670   52.0800 C.ar      1 651        -0.0552
      5 CAE        57.6930   18.7580   54.1550 C.ar      1 651        -0.0454
      6 CAF        56.9110   19.1060   51.9570 C.ar      1 651        -0.0454
      7 CAG        56.3040   16.3200   51.7220 C.ar      1 651        -0.0261
      8 CAH        57.1270   15.9370   53.8960 C.ar      1 651        -0.0261
      9 CAI        56.0250   14.9650   51.5700 C.ar      1 651        -0.0390
     10 CAJ        56.8350   14.5770   53.7630 C.ar      1 651        -0.0390
     11 CAK        58.2670   11.6770   51.8540 C.3       1 651        -0.0152
     12 CAL        56.7100   10.2160   52.9660 C.3       1 651        -0.0152
     13 CAM        57.7060   11.0780   50.5680 C.3       1 651        -0.0331
     14 CAN        55.9580    9.8540   51.6870 C.3       1 651        -0.0331
     15 CAO        55.5750   12.1650   51.0450 C.3       1 651        -0.0283
     16 CAP        57.1490   18.2100   52.9940 C.ar      1 651         0.0022
     17 CAQ        56.8700   16.8530   52.8770 C.ar      1 651         0.0101
     18 CAR        56.2990   14.0520   52.5850 C.ar      1 651        -0.0233
     19 CAS        57.1380   11.6770   52.8780 C.3       1 651        -0.0252
     20 NAT        56.2470   10.8960   50.6860 N.4       1 651         0.2304
     21 CAU        55.9840   12.5840   52.4560 C.3       1 651         0.0922
     22 H1         54.6751   11.4027   53.3197 H         1 651         0.1945
     23 H2         57.9061   22.0667   53.3567 H         1 651         0.0663
     24 H3         58.3699   20.4874   55.2403 H         1 651         0.0633
     25 H4         57.0167   21.1226   51.2360 H         1 651         0.0633
     26 H5         57.9173   18.0937   54.9817 H         1 651         0.0672
     27 H6         56.4912   18.7376   51.0279 H         1 651         0.0672
     28 H7         56.0699   16.9912   50.9036 H         1 651         0.0700
     29 H8         57.5674   16.2911   54.8211 H         1 651         0.0700
     30 H9         55.5858   14.6135   50.6434 H         1 651         0.0838
     31 H10        57.0297   13.9117   54.5964 H         1 651         0.0838
     32 H11        58.6115   12.7057   51.6722 H         1 651         0.0312
     33 H12        59.1072   11.0680   52.2188 H         1 651         0.0312
     34 H13        57.5978    9.5748   53.0687 H         1 651         0.0312
     35 H14        56.0523   10.0738   53.8362 H         1 651         0.0312
     36 H15        58.1803   10.1027   50.3841 H         1 651         0.0814
     37 H16        57.9211   11.7546   49.7278 H         1 651         0.0814
     38 H17        54.8769    9.8159   51.8863 H         1 651         0.0814
     39 H18        56.2975    8.8752   51.3173 H         1 651         0.0814
     40 H19        54.4847   12.0247   51.0071 H         1 651         0.0725
     41 H20        55.8689   12.9488   50.3314 H         1 651         0.0725
     42 H21        57.5136   12.0196   53.8535 H         1 651         0.0225
     43 H22        55.8904   10.5916   49.7937 H         1 651         0.2025
@<TRIPOS>BOND
     1   21    1 1  
     2    3    2 ar 
     3    4    2 ar 
     4    5    3 ar 
     5    6    4 ar 
     6   16    5 ar 
     7   16    6 ar 
     8    9    7 ar 
     9    7   17 ar 
    10   10    8 ar 
    11    8   17 ar 
    12   18    9 ar 
    13   18   10 ar 
    14   13   11 1  
    15   11   19 1  
    16   14   12 1  
    17   12   19 1  
    18   20   13 1  
    19   20   14 1  
    20   15   20 1  
    21   21   15 1  
    22   17   16 1  
    23   18   21 1  
    24   19   21 1  
    25    1   22 1  
    26    2   23 1  
    27    3   24 1  
    28    4   25 1  
    29    5   26 1  
    30    6   27 1  
    31    7   28 1  
    32    8   29 1  
    33    9   30 1  
    34   10   31 1  
    35   11   32 1  
    36   11   33 1  
    37   12   34 1  
    38   12   35 1  
    39   13   36 1  
    40   13   37 1  
    41   14   38 1  
    42   14   39 1  
    43   15   40 1  
    44   15   41 1  
    45   19   42 1  
    46   20   43 1  
@<TRIPOS>SUBSTRUCTURE
     1 651         1

