### 
### Created by X-TOOL on Mon Sep 10 21:13:02 2018
### 

@<TRIPOS>MOLECULE
3acx_ligand
   51    52     1     0     0
SMALL
GAST_HUCK


@<TRIPOS>ATOM
      1 CAA        56.3780   16.2930   57.5430 C.2       1 673        -0.1156
      2 CAB        52.6540    8.7070   53.9290 C.3       1 673        -0.0219
      3 CAC        52.5750   10.8840   55.2050 C.3       1 673        -0.0219
      4 CAD        56.9430   15.7410   56.4070 C.2       1 673        -0.0800
      5 CAE        58.2420   22.3580   53.7270 C.ar      1 673        -0.0632
      6 CAF        57.4630   22.0760   52.6320 C.ar      1 673        -0.0629
      7 CAG        58.5460   21.3310   54.6090 C.ar      1 673        -0.0629
      8 CAH        57.0470   20.7730   52.4150 C.ar      1 673        -0.0568
      9 CAI        58.1220   20.0270   54.3810 C.ar      1 673        -0.0568
     10 CAJ        56.3720   17.9780   51.8460 C.ar      1 673        -0.0681
     11 CAK        55.8350   16.6960   51.7200 C.ar      1 673        -0.0368
     12 CAL        56.8210   17.5110   54.1430 C.ar      1 673        -0.0578
     13 CAM        56.2240   15.3030   55.2830 C.3       1 673         0.0066
     14 CAN        55.0340   12.3450   51.8160 C.3       1 673         0.0151
     15 CAO        54.6010   11.8740   53.2070 C.3       1 673        -0.0310
     16 CAP        55.9130   13.5920   51.9260 C.3       1 673         0.0743
     17 NAQ        53.7210   10.7030   53.0610 N.4       1 673         0.2288
     18 OAR        55.2290   14.5830   52.6740 O.3       1 673        -0.3197
     19 CAS        57.3810   19.7030   53.2540 C.ar      1 673        -0.0263
     20 CAT        56.8940   18.3930   53.0660 C.ar      1 673        -0.0343
     21 CAU        56.2800   16.2260   54.0490 C.ar      1 673         0.0001
     22 CAV        55.8020   15.8160   52.8030 C.ar      1 673         0.0972
     23 CAW        53.4150    9.9790   54.3110 C.3       1 673        -0.0284
     24 H1         57.0135   16.6063   58.3700 H         1 673         0.0297
     25 H2         55.2978   16.4142   57.6101 H         1 673         0.0297
     26 H3         52.4082    8.1397   54.8388 H         1 673         0.0284
     27 H4         53.2808    8.0888   53.2696 H         1 673         0.0284
     28 H5         51.7261    8.9784   53.4043 H         1 673         0.0284
     29 H6         53.1515   11.7857   55.4591 H         1 673         0.0284
     30 H7         52.3110   10.3457   56.1272 H         1 673         0.0284
     31 H8         51.6564   11.1738   54.6738 H         1 673         0.0284
     32 H9         58.0269   15.6385   56.3827 H         1 673         0.0685
     33 H10        58.6119   23.3624   53.8988 H         1 673         0.0605
     34 H11        57.1769   22.8643   51.9452 H         1 673         0.0614
     35 H12        59.1279   21.5507   55.4968 H         1 673         0.0614
     36 H13        56.4288   20.5704   51.5479 H         1 673         0.0609
     37 H14        58.3743   19.2513   55.0949 H         1 673         0.0609
     38 H15        56.3821   18.6488   50.9945 H         1 673         0.0548
     39 H16        55.4362   16.3778   50.7635 H         1 673         0.0529
     40 H17        57.2036   17.8388   55.1028 H         1 673         0.0539
     41 H18        55.1695   15.1967   55.5773 H         1 673         0.0578
     42 H19        56.6233   14.3213   54.9885 H         1 673         0.0578
     43 H20        54.1410   12.5824   51.2192 H         1 673         0.0343
     44 H21        55.6025   11.5431   51.3223 H         1 673         0.0343
     45 H22        54.0580   12.6825   53.7183 H         1 673         0.0815
     46 H23        55.4880   11.5982   53.7962 H         1 673         0.0815
     47 H24        56.1317   13.9774   50.9192 H         1 673         0.0614
     48 H25        56.8548   13.3342   52.4325 H         1 673         0.0614
     49 H26        54.1663   10.0566   52.4286 H         1 673         0.2016
     50 H27        52.8499   11.0167   52.6625 H         1 673         0.2016
     51 H28        54.3455    9.7110   54.8329 H         1 673         0.0845
@<TRIPOS>BOND
     1    4    1 2  
     2   23    2 1  
     3   23    3 1  
     4   13    4 1  
     5    6    5 ar 
     6    7    5 ar 
     7    8    6 ar 
     8    9    7 ar 
     9   19    8 ar 
    10   19    9 ar 
    11   10   11 ar 
    12   20   10 ar 
    13   11   22 ar 
    14   20   12 ar 
    15   12   21 ar 
    16   21   13 1  
    17   14   15 1  
    18   16   14 1  
    19   15   17 1  
    20   18   16 1  
    21   17   23 1  
    22   22   18 1  
    23   19   20 1  
    24   21   22 ar 
    25    1   24 1  
    26    1   25 1  
    27    2   26 1  
    28    2   27 1  
    29    2   28 1  
    30    3   29 1  
    31    3   30 1  
    32    3   31 1  
    33    4   32 1  
    34    5   33 1  
    35    6   34 1  
    36    7   35 1  
    37    8   36 1  
    38    9   37 1  
    39   10   38 1  
    40   11   39 1  
    41   12   40 1  
    42   13   41 1  
    43   13   42 1  
    44   14   43 1  
    45   14   44 1  
    46   15   45 1  
    47   15   46 1  
    48   16   47 1  
    49   16   48 1  
    50   17   49 1  
    51   17   50 1  
    52   23   51 1  
@<TRIPOS>SUBSTRUCTURE
     1 673         1

