### 
### Created by X-TOOL on Mon Sep 10 21:13:04 2018
### 

@<TRIPOS>MOLECULE
3ads_ligand
   40    42     1     0     0
SMALL
GAST_HUCK


@<TRIPOS>ATOM
      1 C          17.2700   67.6780    9.1220 C.ar      1 IMN         0.0787
      2 C1         16.2160   67.0750    9.8870 C.ar      1 IMN        -0.0393
      3 C2         16.5010   65.9500   10.7250 C.ar      1 IMN        -0.0562
      4 C3         17.8170   65.4330   10.7950 C.ar      1 IMN         0.0670
      5 C4         18.8540   66.0300   10.0380 C.ar      1 IMN        -0.0504
      6 C5         18.5880   67.1380    9.2120 C.ar      1 IMN        -0.0495
      7 C6         17.7610   63.0020   11.2700 C.3       1 IMN         0.0564
      8 C7         14.9890   67.8430    9.5790 C.2       1 IMN        -0.0396
      9 C8         15.3270   68.8100    8.6970 C.2       1 IMN         0.0648
     10 C9         17.4310   69.5610    7.5250 C.2       1 IMN         0.2697
     11 C10        17.5910   71.0680    7.6520 C.ar      1 IMN         0.0658
     12 C11        18.3580   71.7700    6.6590 C.ar      1 IMN        -0.0401
     13 C12        18.5190   73.1650    6.7340 C.ar      1 IMN        -0.0421
     14 C13        17.9270   73.8900    7.7880 C.ar      1 IMN         0.0451
     15 C14        17.1730   73.2200    8.7780 C.ar      1 IMN        -0.0421
     16 C15        17.0020   71.8210    8.7180 C.ar      1 IMN        -0.0401
     17 C16        14.3290   69.8080    8.1250 C.3       1 IMN        -0.0090
     18 C17        13.5780   67.6100   10.1310 C.3       1 IMN         0.0085
     19 C18        12.9790   66.2720    9.7200 C.2       1 IMN         0.0372
     20 N          16.7090   68.7430    8.3990 N.am      1 IMN        -0.1828
     21 O          18.0880   64.3570   11.5940 O.3       1 IMN        -0.3319
     22 O1         17.9750   69.0140    6.5770 O.2       1 IMN        -0.3512
     23 O2         13.5940   65.4910    9.0300 O.co2     1 IMN        -0.5679
     24 O3         11.7430   65.9500   10.1310 O.co2     1 IMN        -0.5679
     25 CL         18.1240   75.6110    7.8720 Cl        1 IMN        -0.0665
     26 H          15.7039   65.4910   11.3098 H         1 IMN         0.0397
     27 H          19.8657   65.6285   10.0954 H         1 IMN         0.0444
     28 H          19.3963   67.5880    8.6355 H         1 IMN         0.0515
     29 H          16.6826   62.9109   11.1404 H         1 IMN         0.0572
     30 H          18.2646   62.7191   10.3456 H         1 IMN         0.0572
     31 H          18.0877   62.3475   12.0781 H         1 IMN         0.0572
     32 H          18.8187   71.2162    5.8410 H         1 IMN         0.0670
     33 H          19.1027   73.6867    5.9756 H         1 IMN         0.0634
     34 H          16.7214   73.7871    9.5920 H         1 IMN         0.0634
     35 H          16.4196   71.3115    9.4857 H         1 IMN         0.0670
     36 H          13.5466   69.2708    7.5890 H         1 IMN         0.0401
     37 H          13.8854   70.3828    8.9380 H         1 IMN         0.0401
     38 H          14.8433   70.4822    7.4401 H         1 IMN         0.0401
     39 H          12.9355   68.3939    9.7299 H         1 IMN         0.0476
     40 H          13.6460   67.6184   11.2188 H         1 IMN         0.0476
@<TRIPOS>BOND
     1    1    2 ar 
     2    1    6 ar 
     3   20    1 1  
     4    2    3 ar 
     5    8    2 1  
     6    3    4 ar 
     7    5    4 ar 
     8    4   21 1  
     9    6    5 ar 
    10   21    7 1  
    11    9    8 2  
    12    8   18 1  
    13    9   17 1  
    14   20    9 1  
    15   10   11 1  
    16   10   20 am 
    17   10   22 2  
    18   11   12 ar 
    19   11   16 ar 
    20   12   13 ar 
    21   13   14 ar 
    22   14   15 ar 
    23   14   25 1  
    24   15   16 ar 
    25   18   19 1  
    26   19   23 ar 
    27   19   24 ar 
    28    3   26 1  
    29    5   27 1  
    30    6   28 1  
    31    7   29 1  
    32    7   30 1  
    33    7   31 1  
    34   12   32 1  
    35   13   33 1  
    36   15   34 1  
    37   16   35 1  
    38   17   36 1  
    39   17   37 1  
    40   17   38 1  
    41   18   39 1  
    42   18   40 1  
@<TRIPOS>SUBSTRUCTURE
     1 IMN         1

