### 
### Created by X-TOOL on Mon Sep 10 21:13:04 2018
### 

@<TRIPOS>MOLECULE
3adt_ligand
   22    23     1     0     0
SMALL
GAST_HUCK


@<TRIPOS>ATOM
      1 OAA        18.4760   65.4180   20.1750 O.co2     1 HID        -0.5675
      2 OAB        19.1060   63.4780   19.3360 O.co2     1 HID        -0.5675
      3 OAC        15.1180   63.3750   14.9380 O.3       1 HID        -0.3421
      4 CAD        17.1630   62.8490   13.7650 C.ar      1 HID        -0.0459
      5 CAE        18.5940   62.9080   13.6810 C.ar      1 HID        -0.0495
      6 CAF        20.7950   64.4580   16.0520 C.2       1 HID         0.0159
      7 CAG        17.2020   64.1070   15.9210 C.ar      1 HID        -0.0488
      8 CAH        19.3670   65.4810   17.9800 C.3       1 HID         0.0159
      9 NAI        20.6080   63.7780   14.9160 N.pl3     1 HID        -0.2932
     10 CAJ        18.9550   64.7190   19.2630 C.2       1 HID         0.0399
     11 CAK        16.4790   63.4450   14.8780 C.ar      1 HID         0.0693
     12 CAL        19.6220   64.7200   16.6530 C.2       1 HID        -0.0374
     13 CAM        19.3040   63.5730   14.7320 C.ar      1 HID         0.0514
     14 CAN        18.6300   64.1720   15.8460 C.ar      1 HID        -0.0298
     15 H          14.8108   63.8152   15.7339 H         1 HID         0.2441
     16 H          16.5931   62.3500   12.9812 H         1 HID         0.0481
     17 H          19.1254   62.4597   12.8415 H         1 HID         0.0526
     18 H          21.7685   64.7594   16.4387 H         1 HID         0.0795
     19 H          16.6722   64.5557   16.7613 H         1 HID         0.0435
     20 H          20.3353   65.9159   18.2279 H         1 HID         0.0510
     21 H          18.5096   66.1175   17.7614 H         1 HID         0.0510
     22 H          21.3482   63.4649   14.2879 H         1 HID         0.2195
@<TRIPOS>BOND
     1   10    1 ar 
     2   10    2 ar 
     3   11    3 1  
     4    5    4 ar 
     5    4   11 ar 
     6   13    5 ar 
     7    9    6 1  
     8    6   12 2  
     9   11    7 ar 
    10    7   14 ar 
    11    8   10 1  
    12   12    8 1  
    13    9   13 1  
    14   12   14 1  
    15   13   14 ar 
    16    3   15 1  
    17    4   16 1  
    18    5   17 1  
    19    6   18 1  
    20    7   19 1  
    21    8   20 1  
    22    8   21 1  
    23    9   22 1  
@<TRIPOS>SUBSTRUCTURE
     1 HID         1

