### 
### Created by X-TOOL on Mon Sep 10 21:13:03 2018
### 

@<TRIPOS>MOLECULE
3adu_ligand
   25    26     1     0     0
SMALL
GAST_HUCK


@<TRIPOS>ATOM
      1 CAA        17.6750   65.1430    9.7080 C.3       1 MYI         0.0567
      2 OAB        10.7150   60.5950   13.0510 O.co2     1 MYI        -0.5675
      3 OAC        12.0950   60.7340   14.7860 O.co2     1 MYI        -0.5675
      4 CAD        17.4600   64.3360   12.6880 C.ar      1 MYI        -0.0456
      5 CAE        16.9230   64.3430   14.0060 C.ar      1 MYI        -0.0495
      6 CAF        13.6950   63.2020   15.0260 C.2       1 MYI         0.0159
      7 CAG        15.3550   63.3310   11.8020 C.ar      1 MYI        -0.0486
      8 CAH        12.3840   62.3190   12.9700 C.3       1 MYI         0.0159
      9 NAI        14.8750   63.7320   15.3230 N.pl3     1 MYI        -0.2932
     10 OAJ        17.3260   63.8810   10.3450 O.3       1 MYI        -0.3302
     11 CAK        11.6750   61.1140   13.6670 C.2       1 MYI         0.0399
     12 CAL        16.7000   63.8390   11.5750 C.ar      1 MYI         0.0725
     13 CAM        13.5940   62.9360   13.7160 C.2       1 MYI        -0.0374
     14 CAN        15.6040   63.8420   14.2230 C.ar      1 MYI         0.0514
     15 CAO        14.8140   63.3360   13.1400 C.ar      1 MYI        -0.0298
     16 H          16.7703   65.7289    9.5456 H         1 MYI         0.0573
     17 H          18.3576   65.6972   10.3523 H         1 MYI         0.0573
     18 H          18.1574   64.9443    8.7510 H         1 MYI         0.0573
     19 H          18.4679   64.7153   12.5198 H         1 MYI         0.0482
     20 H          17.5116   64.7262   14.8395 H         1 MYI         0.0526
     21 H          12.9080   63.0077   15.7547 H         1 MYI         0.0795
     22 H          14.7624   62.9507   10.9700 H         1 MYI         0.0435
     23 H          11.6369   63.1098   12.9013 H         1 MYI         0.0510
     24 H          12.7746   61.9350   12.0276 H         1 MYI         0.0510
     25 H          15.1748   64.0121   16.2568 H         1 MYI         0.2195
@<TRIPOS>BOND
     1   10    1 1  
     2   11    2 ar 
     3   11    3 ar 
     4    4    5 ar 
     5   12    4 ar 
     6    5   14 ar 
     7    9    6 1  
     8    6   13 2  
     9   12    7 ar 
    10    7   15 ar 
    11    8   11 1  
    12   13    8 1  
    13   14    9 1  
    14   10   12 1  
    15   13   15 1  
    16   14   15 ar 
    17    1   16 1  
    18    1   17 1  
    19    1   18 1  
    20    4   19 1  
    21    5   20 1  
    22    6   21 1  
    23    7   22 1  
    24    8   23 1  
    25    8   24 1  
    26    9   25 1  
@<TRIPOS>SUBSTRUCTURE
     1 MYI         1

