### 
### Created by X-TOOL on Fri Sep 26 17:34:48 2014
### 

@<TRIPOS>MOLECULE
3adv_ligand
   26    27     1     0     0
SMALL
GAST_HUCK


@<TRIPOS>ATOM
      1 OH         18.6310   64.8870    9.9730 O.3       1 SRO        -0.3421
      2 CZ3        17.8260   64.5690   11.0190 C.ar      1 SRO         0.0693
      3 CH2        16.4170   64.5310   10.8410 C.ar      1 SRO        -0.0459
      4 CZ2        15.5710   64.2040   11.9160 C.ar      1 SRO        -0.0495
      5 CE2        16.1210   63.9090   13.1920 C.ar      1 SRO         0.0512
      6 NE1        15.5690   63.5640   14.4060 N.pl3     1 SRO        -0.2936
      7 CD1        16.5610   63.3840   15.3350 C.2       1 SRO         0.0142
      8 CG         17.7760   63.5980   14.7850 C.2       1 SRO        -0.0452
      9 CD2        17.5440   63.9470   13.3750 C.ar      1 SRO        -0.0312
     10 CE3        18.3930   64.2800   12.2760 C.ar      1 SRO        -0.0489
     11 CB         19.1240   63.4960   15.4810 C.3       1 SRO         0.0032
     12 CA         19.2270   64.5110   16.6320 C.3       1 SRO        -0.0314
     13 NZ         18.9910   63.8330   17.9140 N.4       1 SRO         0.2194
     14 H1         19.5378   64.8681   10.2556 H         1 SRO         0.2441
     15 H2         15.9910   64.7556    9.8699 H         1 SRO         0.0481
     16 H3         14.4971   64.1771   11.7705 H         1 SRO         0.0526
     17 H4         14.5610   63.4572   14.5886 H         1 SRO         0.2193
     18 H5         16.3924   63.1064   16.3744 H         1 SRO         0.0790
     19 H6         19.4685   64.3103   12.4083 H         1 SRO         0.0435
     20 H7         19.9220   63.6973   14.7512 H         1 SRO         0.0399
     21 H8         19.2444   62.4801   15.8852 H         1 SRO         0.0399
     22 H9         18.4737   65.3002   16.4919 H         1 SRO         0.0828
     23 H10        20.2315   64.9593   16.6352 H         1 SRO         0.0828
     24 H11        19.0594   64.5016   18.6652 H         1 SRO         0.1995
     25 H12        19.6813   63.1100   18.0438 H         1 SRO         0.1995
     26 H13        18.0704   63.4224   17.9125 H         1 SRO         0.1995
@<TRIPOS>BOND
     1    1    2 1  
     2    2    3 ar 
     3    2   10 ar 
     4    3    4 ar 
     5    4    5 ar 
     6    5    6 1  
     7    5    9 ar 
     8    6    7 1  
     9    7    8 2  
    10    8    9 1  
    11    8   11 1  
    12    9   10 ar 
    13   11   12 1  
    14   12   13 1  
    15    1   14 1  
    16    3   15 1  
    17    4   16 1  
    18    6   17 1  
    19    7   18 1  
    20   10   19 1  
    21   11   20 1  
    22   11   21 1  
    23   12   22 1  
    24   12   23 1  
    25   13   24 1  
    26   13   25 1  
    27   13   26 1  
@<TRIPOS>SUBSTRUCTURE
     1 SRO         1

