### 
### Created by X-TOOL on Fri Sep 26 17:34:47 2014
### 

@<TRIPOS>MOLECULE
3afk_ligand
   65    66     1     0     0
SMALL
GAST_HUCK


@<TRIPOS>ATOM
      1 C1         13.2640    6.2850  -19.2990 C.3       1 GAL         0.1884
      2 C2         12.5760    7.6050  -18.9450 C.3       1 GAL         0.1341
      3 C3         13.4270    8.4650  -18.0100 C.3       1 GAL         0.1141
      4 C4         13.8370    7.6200  -16.8030 C.3       1 GAL         0.1119
      5 C5         14.5580    6.3670  -17.3050 C.3       1 GAL         0.1130
      6 C6         15.0530    5.5340  -16.1220 C.3       1 GAL         0.0730
      7 O2         12.2630    8.3260  -20.1400 O.3       1 GAL        -0.3841
      8 O3         12.6550    9.5860  -17.5720 O.3       1 GAL        -0.3864
      9 O4         12.6650    7.2300  -16.0820 O.3       1 GAL        -0.3865
     10 O5         13.6650    5.5830  -18.1110 O.3       1 GAL        -0.3405
     11 O6         15.7760    4.4010  -16.6110 O.3       1 GAL        -0.3924
     12 O          12.5530    1.9970  -22.1450 O.3       1 GAL        -0.3408
     13 C1         11.9950    3.1270  -22.8340 C.3       1 GAL         0.1856
     14 C2         11.6040    4.2330  -21.8520 C.3       1 GAL         0.1213
     15 N2         11.2450    5.4370  -22.6160 N.am      1 GAL        -0.2766
     16 C3         12.7770    4.6150  -20.9490 C.3       1 GAL         0.1176
     17 O3         12.2530    5.5140  -19.9630 O.3       1 GAL        -0.3403
     18 C4         13.4110    3.3670  -20.3320 C.3       1 GAL         0.1120
     19 O4         12.5190    2.7720  -19.3850 O.3       1 GAL        -0.3865
     20 C5         13.7470    2.3570  -21.4310 C.3       1 GAL         0.1130
     21 C6         14.3530    1.1010  -20.8010 C.3       1 GAL         0.0730
     22 O6         14.7040    0.1770  -21.8350 O.3       1 GAL        -0.3924
     23 C7          9.9900    5.8490  -22.7750 C.2       1 GAL         0.1733
     24 O7          8.9630    5.1470  -22.2260 O.2       1 GAL        -0.3974
     25 C8          9.7310    7.0160  -23.4850 C.3       1 GAL         0.0257
     26 N          13.5820    4.7050  -26.2940 N.4       1 GAL         0.2345
     27 CA         12.6280    3.5920  -26.1880 C.3       1 GAL         0.0548
     28 C          11.2090    4.1530  -26.0790 C.2       1 GAL         0.0870
     29 O          11.0850    5.3960  -26.1130 O.co2     1 GAL        -0.5642
     30 CB         12.9500    2.7690  -24.9380 C.3       1 GAL         0.1131
     31 OG1        12.9370    3.6310  -23.7910 O.3       1 GAL        -0.3386
     32 CG2        14.3220    2.1090  -25.0800 C.3       1 GAL        -0.0316
     33 OXT        10.2780    3.3260  -25.9650 O.co2     1 GAL        -0.5642
     34 H1         14.1330    6.4563  -19.9513 H         1 GAL         0.0938
     35 H2         11.6352    7.3699  -18.4258 H         1 GAL         0.0671
     36 H3         14.3244    8.8174  -18.5395 H         1 GAL         0.0648
     37 H4         14.5034    8.1998  -16.1475 H         1 GAL         0.0647
     38 H5         15.4211    6.6706  -17.9156 H         1 GAL         0.0647
     39 H6         14.1927    5.1923  -15.5277 H         1 GAL         0.0584
     40 H7         15.7137    6.1473  -15.4917 H         1 GAL         0.0584
     41 H8         11.7348    7.7790  -20.7094 H         1 GAL         0.2101
     42 H9         11.8765    9.2772  -17.1235 H         1 GAL         0.2100
     43 H10        12.0897    6.7389  -16.6568 H         1 GAL         0.2100
     44 H11        15.2042    3.8727  -17.1554 H         1 GAL         0.2095
     45 H12        11.0909    2.7988  -23.3678 H         1 GAL         0.0935
     46 H13        10.7535    3.8982  -21.2400 H         1 GAL         0.0633
     47 H14        11.9787    5.9713  -23.0358 H         1 GAL         0.1857
     48 H15        13.5438    5.1358  -21.5412 H         1 GAL         0.0649
     49 H16        14.3381    3.6565  -19.8157 H         1 GAL         0.0647
     50 H17        12.3287    3.3967  -18.6951 H         1 GAL         0.2100
     51 H18        14.4704    2.8039  -22.1289 H         1 GAL         0.0647
     52 H19        13.6182    0.6366  -20.1269 H         1 GAL         0.0584
     53 H20        15.2531    1.3735  -20.2304 H         1 GAL         0.0584
     54 H21        13.9256   -0.0568  -22.3269 H         1 GAL         0.2095
     55 H22         8.6461    7.1956  -23.5120 H         1 GAL         0.0467
     56 H23        10.1111    6.9124  -24.5120 H         1 GAL         0.0467
     57 H24        10.2308    7.8633  -22.9927 H         1 GAL         0.0467
     58 H25        13.3731    5.2494  -27.1162 H         1 GAL         0.2011
     59 H26        14.5188    4.3392  -26.3623 H         1 GAL         0.2011
     60 H27        13.5084    5.2897  -25.4762 H         1 GAL         0.2011
     61 H28        12.7045    2.9530  -27.0801 H         1 GAL         0.1050
     62 H29        12.1867    1.9869  -24.8128 H         1 GAL         0.0670
     63 H30        14.5414    1.5212  -24.1764 H         1 GAL         0.0258
     64 H31        15.0908    2.8852  -25.2081 H         1 GAL         0.0258
     65 H32        14.3208    1.4457  -25.9575 H         1 GAL         0.0258
@<TRIPOS>BOND
     1    1    2 1  
     2    1   10 1  
     3   17    1 1  
     4    2    3 1  
     5    2    7 1  
     6    3    4 1  
     7    3    8 1  
     8    5    4 1  
     9    4    9 1  
    10    5    6 1  
    11   10    5 1  
    12    6   11 1  
    13   13   12 1  
    14   12   20 1  
    15   13   14 1  
    16   31   13 1  
    17   14   15 1  
    18   14   16 1  
    19   15   23 am 
    20   16   17 1  
    21   16   18 1  
    22   18   19 1  
    23   20   18 1  
    24   20   21 1  
    25   21   22 1  
    26   23   24 2  
    27   23   25 1  
    28   27   26 1  
    29   27   28 1  
    30   30   27 1  
    31   28   29 ar 
    32   28   33 ar 
    33   30   31 1  
    34   30   32 1  
    35    1   34 1  
    36    2   35 1  
    37    3   36 1  
    38    4   37 1  
    39    5   38 1  
    40    6   39 1  
    41    6   40 1  
    42    7   41 1  
    43    8   42 1  
    44    9   43 1  
    45   11   44 1  
    46   13   45 1  
    47   14   46 1  
    48   15   47 1  
    49   16   48 1  
    50   18   49 1  
    51   19   50 1  
    52   20   51 1  
    53   21   52 1  
    54   21   53 1  
    55   22   54 1  
    56   25   55 1  
    57   25   56 1  
    58   25   57 1  
    59   26   58 1  
    60   26   59 1  
    61   26   60 1  
    62   27   61 1  
    63   30   62 1  
    64   32   63 1  
    65   32   64 1  
    66   32   65 1  
@<TRIPOS>SUBSTRUCTURE
     1 GAL         1

