### 
### Created by X-TOOL on Mon Sep 10 21:13:03 2018
### 

@<TRIPOS>MOLECULE
3ag9_ligand
  140   142     1     0     0
SMALL
GAST_HUCK


@<TRIPOS>ATOM
      1 N1          8.1330    4.1030   17.1980 N.ar      1 A02        -0.2698
      2 C2          7.3260    4.7630   16.3560 C.ar      1 A02         0.0533
      3 N3          7.7330    5.1070   15.1410 N.ar      1 A02        -0.2714
      4 C4          8.9690    4.7920   14.7230 C.ar      1 A02         0.1613
      5 C5          9.8310    4.1170   15.5770 C.ar      1 A02         0.1045
      6 C6          9.3850    3.7730   16.8420 C.ar      1 A02         0.1298
      7 N6         10.1900    3.1300   17.6810 N.pl3     1 A02        -0.3152
      8 N7         10.9870    3.9300   14.9430 N.2       1 A02        -0.2958
      9 C8         10.8470    4.4670   13.7260 C.2       1 A02         0.1123
     10 N9          9.6260    5.0080   13.5880 N.pl3     1 A02        -0.1918
     11 OAL        11.5190    4.3030   10.5370 O.2       1 A02        -0.3941
     12 OAN         8.3910    7.5990   10.2280 O.3       1 A02        -0.3840
     13 OAO         9.7350    8.0680   12.4790 O.3       1 A02        -0.3834
     14 OBV         8.9100    4.8170   11.2340 O.3       1 A02        -0.3181
     15 CCC        10.8260    4.8240    9.6510 C.2       1 A02         0.2080
     16 CCK         9.6510    6.9150   10.3730 C.3       1 A02         0.1295
     17 CCL        10.0240    6.8320   11.8420 C.3       1 A02         0.1408
     18 CCM         9.4640    5.4380   10.0260 C.3       1 A02         0.1788
     19 CCN         9.0810    5.7280   12.3590 C.3       1 A02         0.2035
     20 CBZ        16.3250    1.5850    5.8220 C.2       1 A02         0.1782
     21 OAI        15.9480    1.3040    4.6780 O.2       1 A02        -0.3969
     22 CBG        15.7840    0.8100    7.0410 C.3       1 A02         0.0374
     23 CAX        14.2840    1.0790    7.2730 C.3       1 A02        -0.0360
     24 CAU        13.9760    2.5800    7.2340 C.3       1 A02        -0.0492
     25 CAW        12.5930    2.9190    7.7970 C.3       1 A02        -0.0326
     26 CBD        12.4690    4.4440    7.8270 C.3       1 A02         0.0310
     27 NBR        11.1750    4.8980    8.3660 N.am      1 A02        -0.2847
     28 NBS        17.1720    2.5850    6.1140 N.am      1 A02        -0.2656
     29 CCI        17.7880    3.4240    5.0540 C.3       1 A02         0.1308
     30 CCB        16.7230    4.3270    4.3850 C.2       1 A02         0.2016
     31 OAK        15.7310    4.6850    5.0080 O.2       1 A02        -0.3945
     32 CBJ        19.0060    4.2140    5.5840 C.3       1 A02        -0.0122
     33 CAZ        18.6760    5.3540    6.5530 C.3       1 A02        -0.0440
     34 CAS        19.9630    6.1100    6.9450 C.3       1 A02        -0.0124
     35 CAR        19.8140    6.7850    8.3170 C.3       1 A02        -0.0354
     36 NAC        20.2100    8.2020    8.2270 N.4       1 A02         0.2185
     37 CCA        16.3330   11.1550    1.4080 C.2       1 A02         0.1782
     38 OAJ        17.5310   11.4240    1.2740 O.2       1 A02        -0.3969
     39 CBH        15.6390   10.1580    0.4650 C.3       1 A02         0.0374
     40 CAY        16.3530    8.7960    0.4520 C.3       1 A02        -0.0360
     41 CAT        15.6320    7.7690    1.3310 C.3       1 A02        -0.0492
     42 CAV        16.6190    6.8800    2.0970 C.3       1 A02        -0.0326
     43 CBC        16.0230    5.4860    2.3230 C.3       1 A02         0.0310
     44 NBQ        16.9520    4.6450    3.1120 N.am      1 A02        -0.2851
     45 NBT        15.5410   11.6900    2.3450 N.am      1 A02        -0.2656
     46 CCJ        16.0220   12.6680    3.3520 C.3       1 A02         0.1310
     47 CBK        14.9850   12.8640    4.4900 C.3       1 A02        -0.0092
     48 CBB        13.5280   12.5910    4.0780 C.3       1 A02        -0.0156
     49 CBF        12.9210   13.7540    3.2770 C.3       1 A02         0.0627
     50 NBP        12.7560   13.3160    1.8780 N.pl3     1 A02        -0.2723
     51 CBX        12.4380   14.1360    0.8670 C.cat     1 A02         0.2882
     52 NAB        12.2550   15.4440    1.0400 N.pl3     1 A02        -0.2849
     53 NAE        12.3120   13.6200   -0.3520 N.pl3     1 A02        -0.2849
     54 CCD        16.3700   14.0160    2.6750 C.2       1 A02         0.2039
     55 OAM        16.2800   14.1540    1.4550 O.2       1 A02        -0.3944
     56 N          16.7690   14.9850    3.5020 N.am      1 A02        -0.2637
     57 CA         17.1480   16.3410    3.0460 C.3       1 A02         0.1307
     58 CB         17.8410   17.0950    4.1880 C.3       1 A02        -0.0092
     59 CG         17.0880   16.9250    5.5090 C.3       1 A02        -0.0156
     60 CD         18.0520   16.7450    6.6770 C.3       1 A02         0.0627
     61 NE         18.3430   18.0710    7.2130 N.pl3     1 A02        -0.2723
     62 CZ         17.8120   18.5840    8.3220 C.cat     1 A02         0.2882
     63 NH1        16.9670   17.9090    9.1010 N.pl3     1 A02        -0.2849
     64 NH2        18.1780   19.8160    8.6480 N.pl3     1 A02        -0.2849
     65 C          15.9170   17.1400    2.5600 C.2       1 A02         0.1992
     66 O          14.8180   17.0370    3.1090 O.2       1 A02        -0.3947
     67 NAF        16.1500   17.9510    1.5300 N.am      1 A02        -0.2990
     68 H1          6.3221    5.0206   16.6735 H         1 A02         0.0996
     69 H2         11.1473    2.8851   17.3904 H         1 A02         0.1820
     70 H3          9.8567    2.8764   18.6220 H         1 A02         0.1820
     71 H4         11.6159    4.4656   12.9549 H         1 A02         0.1349
     72 H5          8.4655    8.4766   10.5840 H         1 A02         0.2102
     73 H6          8.8070    8.2549   12.3990 H         1 A02         0.2101
     74 H7         10.4322    7.3967    9.7666 H         1 A02         0.0673
     75 H8         11.0819    6.5660   11.9840 H         1 A02         0.0678
     76 H9          8.7654    5.3226    9.1842 H         1 A02         0.0869
     77 H10         8.1107    6.1724   12.6256 H         1 A02         0.0998
     78 H11        16.3434    1.1194    7.9361 H         1 A02         0.0502
     79 H12        15.9301   -0.2670    6.8713 H         1 A02         0.0502
     80 H13        13.9960    0.6794    8.2565 H         1 A02         0.0290
     81 H14        13.7033    0.5734    6.4874 H         1 A02         0.0290
     82 H15        14.0229    2.9210    6.1892 H         1 A02         0.0267
     83 H16        14.7359    3.1098    7.8271 H         1 A02         0.0267
     84 H17        12.4924    2.5141    8.8148 H         1 A02         0.0285
     85 H18        11.8104    2.4913    7.1532 H         1 A02         0.0285
     86 H19        12.5767    4.8263    6.8012 H         1 A02         0.0520
     87 H20        13.2745    4.8504    8.4562 H         1 A02         0.0520
     88 H21        10.5139    5.2879    7.7250 H         1 A02         0.1851
     89 H22        17.3943    2.7701    7.0712 H         1 A02         0.1883
     90 H23        18.1654    2.7428    4.2772 H         1 A02         0.0800
     91 H24        19.5339    4.6444    4.7202 H         1 A02         0.0312
     92 H25        19.6692    3.5072    6.1042 H         1 A02         0.0312
     93 H26        18.2092    4.9379    7.4580 H         1 A02         0.0269
     94 H27        17.9779    6.0523    6.0682 H         1 A02         0.0269
     95 H28        20.1722    6.8795    6.1873 H         1 A02         0.0317
     96 H29        20.8000    5.3973    6.9847 H         1 A02         0.0317
     97 H30        20.4577    6.2725    9.0470 H         1 A02         0.0813
     98 H31        18.7655    6.7198    8.6432 H         1 A02         0.0813
     99 H32        20.1093    8.6370    9.1307 H         1 A02         0.1994
    100 H33        19.6204    8.6739    7.5594 H         1 A02         0.1994
    101 H34        21.1711    8.2641    7.9295 H         1 A02         0.1994
    102 H35        15.6408   10.5711   -0.5545 H         1 A02         0.0502
    103 H36        14.6014   10.0133    0.8002 H         1 A02         0.0502
    104 H37        17.3789    8.9278    0.8265 H         1 A02         0.0290
    105 H38        16.3853    8.4204   -0.5814 H         1 A02         0.0290
    106 H39        15.0026    7.1327    0.6915 H         1 A02         0.0267
    107 H40        14.9983    8.3025    2.0547 H         1 A02         0.0267
    108 H41        16.8407    7.3410    3.0708 H         1 A02         0.0285
    109 H42        17.5481    6.7864    1.5156 H         1 A02         0.0285
    110 H43        15.8410    5.0081    1.3491 H         1 A02         0.0520
    111 H44        15.0720    5.5830    2.8673 H         1 A02         0.0520
    112 H45        17.7826    4.3029    2.6725 H         1 A02         0.1851
    113 H46        14.5791   11.4176    2.3675 H         1 A02         0.1883
    114 H47        16.9423   12.2665    3.8013 H         1 A02         0.0800
    115 H48        15.0535   13.9038    4.8422 H         1 A02         0.0313
    116 H49        15.2435   12.1805    5.3122 H         1 A02         0.0313
    117 H50        12.9269   12.4350    4.9859 H         1 A02         0.0301
    118 H51        13.4997   11.6823    3.4588 H         1 A02         0.0301
    119 H52        13.5926   14.6242    3.3176 H         1 A02         0.0689
    120 H53        11.9425   14.0260    3.6995 H         1 A02         0.0689
    121 H54        12.8938   12.3177    1.6651 H         1 A02         0.2642
    122 H55        12.0113   16.0406    0.2365 H         1 A02         0.2615
    123 H56        12.3572   15.8588    1.9772 H         1 A02         0.2615
    124 H57        12.4507   12.6103   -0.5007 H         1 A02         0.2615
    125 H58        12.0757   14.2300   -1.1476 H         1 A02         0.2615
    126 H59        16.8142   14.7842    4.4806 H         1 A02         0.1883
    127 H60        17.8525   16.2426    2.2070 H         1 A02         0.0800
    128 H61        17.8839   18.1649    3.9360 H         1 A02         0.0313
    129 H62        18.8627   16.7048    4.3060 H         1 A02         0.0313
    130 H63        16.4391   16.0394    5.4402 H         1 A02         0.0301
    131 H64        16.4715   17.8183    5.6876 H         1 A02         0.0301
    132 H65        18.9802   16.2688    6.3281 H         1 A02         0.0689
    133 H66        17.5884   16.1192    7.4538 H         1 A02         0.0689
    134 H67        19.0118   18.6565    6.6927 H         1 A02         0.2642
    135 H68        16.5836   18.3506    9.9489 H         1 A02         0.2615
    136 H69        16.6974   16.9458    8.8551 H         1 A02         0.2615
    137 H70        18.8311   20.3359    8.0446 H         1 A02         0.2615
    138 H71        17.8092   20.2532    9.5046 H         1 A02         0.2615
    139 H72        15.4083   18.5052    1.1523 H         1 A02         0.1815
    140 H73        17.0667   18.0058    1.1342 H         1 A02         0.1815
@<TRIPOS>BOND
     1    2    1 ar 
     2    6    1 ar 
     3    3    2 ar 
     4    4    3 ar 
     5    4    5 ar 
     6   10    4 1  
     7    5    6 ar 
     8    8    5 1  
     9    6    7 1  
    10    9    8 2  
    11   10    9 1  
    12   19   10 1  
    13   15   11 2  
    14   16   12 1  
    15   17   13 1  
    16   18   14 1  
    17   14   19 1  
    18   15   18 1  
    19   27   15 am 
    20   16   17 1  
    21   18   16 1  
    22   17   19 1  
    23   20   21 2  
    24   20   22 1  
    25   28   20 am 
    26   22   23 1  
    27   23   24 1  
    28   24   25 1  
    29   25   26 1  
    30   26   27 1  
    31   29   28 1  
    32   30   29 1  
    33   29   32 1  
    34   30   31 2  
    35   44   30 am 
    36   32   33 1  
    37   33   34 1  
    38   34   35 1  
    39   35   36 1  
    40   37   38 2  
    41   39   37 1  
    42   37   45 am 
    43   40   39 1  
    44   41   40 1  
    45   42   41 1  
    46   43   42 1  
    47   43   44 1  
    48   45   46 1  
    49   46   47 1  
    50   46   54 1  
    51   47   48 1  
    52   48   49 1  
    53   49   50 1  
    54   50   51 ar 
    55   51   52 ar 
    56   51   53 ar 
    57   54   55 2  
    58   54   56 am 
    59   56   57 1  
    60   57   58 1  
    61   57   65 1  
    62   58   59 1  
    63   59   60 1  
    64   60   61 1  
    65   61   62 ar 
    66   62   63 ar 
    67   62   64 ar 
    68   65   66 2  
    69   65   67 am 
    70    2   68 1  
    71    7   69 1  
    72    7   70 1  
    73    9   71 1  
    74   12   72 1  
    75   13   73 1  
    76   16   74 1  
    77   17   75 1  
    78   18   76 1  
    79   19   77 1  
    80   22   78 1  
    81   22   79 1  
    82   23   80 1  
    83   23   81 1  
    84   24   82 1  
    85   24   83 1  
    86   25   84 1  
    87   25   85 1  
    88   26   86 1  
    89   26   87 1  
    90   27   88 1  
    91   28   89 1  
    92   29   90 1  
    93   32   91 1  
    94   32   92 1  
    95   33   93 1  
    96   33   94 1  
    97   34   95 1  
    98   34   96 1  
    99   35   97 1  
   100   35   98 1  
   101   36   99 1  
   102   36  100 1  
   103   36  101 1  
   104   39  102 1  
   105   39  103 1  
   106   40  104 1  
   107   40  105 1  
   108   41  106 1  
   109   41  107 1  
   110   42  108 1  
   111   42  109 1  
   112   43  110 1  
   113   43  111 1  
   114   44  112 1  
   115   45  113 1  
   116   46  114 1  
   117   47  115 1  
   118   47  116 1  
   119   48  117 1  
   120   48  118 1  
   121   49  119 1  
   122   49  120 1  
   123   50  121 1  
   124   52  122 1  
   125   52  123 1  
   126   53  124 1  
   127   53  125 1  
   128   56  126 1  
   129   57  127 1  
   130   58  128 1  
   131   58  129 1  
   132   59  130 1  
   133   59  131 1  
   134   60  132 1  
   135   60  133 1  
   136   61  134 1  
   137   63  135 1  
   138   63  136 1  
   139   64  137 1  
   140   64  138 1  
   141   67  139 1  
   142   67  140 1  
@<TRIPOS>SUBSTRUCTURE
     1 A02         1

