### 
### Created by X-TOOL on Mon Sep 10 21:13:03 2018
### 

@<TRIPOS>MOLECULE
3agl_ligand
  128   130     1     0     0
SMALL
GAST_HUCK


@<TRIPOS>ATOM
      1 N1        -18.4220    5.2210   -0.1900 N.ar      1 A03        -0.2698
      2 C2        -19.5910    5.2260    0.4450 C.ar      1 A03         0.0533
      3 N3        -19.6940    5.5280    1.7340 N.ar      1 A03        -0.2714
      4 C4        -18.5890    5.8530    2.4360 C.ar      1 A03         0.1613
      5 C5        -17.3510    5.8490    1.8040 C.ar      1 A03         0.1045
      6 C6        -17.2790    5.5120    0.4510 C.ar      1 A03         0.1298
      7 N6        -16.1020    5.4980   -0.1930 N.pl3     1 A03        -0.3152
      8 N7        -16.4400    6.1770    2.7130 N.2       1 A03        -0.2958
      9 C8        -17.0650    6.3890    3.8660 C.2       1 A03         0.1123
     10 N9        -18.3750    6.1940    3.7040 N.pl3     1 A03        -0.1918
     11 OAL       -16.5820    7.5410    6.9640 O.2       1 A03        -0.3941
     12 OAN       -19.0490    4.6600    7.9310 O.3       1 A03        -0.3840
     13 OAO       -20.9760    5.0680    5.9800 O.3       1 A03        -0.3834
     14 OBR       -19.1020    7.4150    5.6860 O.3       1 A03        -0.3181
     15 CBY       -17.6330    7.5010    7.6130 C.2       1 A03         0.2080
     16 CCG       -18.6520    5.3600    6.7770 C.3       1 A03         0.1295
     17 CCH       -19.6050    5.0900    5.5950 C.3       1 A03         0.1408
     18 CCI       -18.8720    6.8420    7.0060 C.3       1 A03         0.1788
     19 CCJ       -19.4260    6.3390    4.7530 C.3       1 A03         0.2035
     20 CBV       -14.0520   12.7150   11.5640 C.2       1 A03         0.1782
     21 OAI       -14.7380   13.5310   12.1730 O.2       1 A03        -0.3969
     22 CBD       -13.9360   12.7930   10.0380 C.3       1 A03         0.0374
     23 CAV       -15.1950   12.2730    9.3360 C.3       1 A03        -0.0360
     24 CAR       -15.3670   10.7830    9.6380 C.3       1 A03        -0.0492
     25 CAU       -16.7020   10.2080    9.1740 C.3       1 A03        -0.0326
     26 CBA       -16.6920    8.7180    9.5380 C.3       1 A03         0.0310
     27 NBN       -17.7790    8.0170    8.8360 N.am      1 A03        -0.2847
     28 N         -13.3680   11.7160   12.1430 N.am      1 A03        -0.2659
     29 CA        -13.3630   11.5250   13.5870 C.3       1 A03         0.1280
     30 CB        -12.2620   10.5300   14.0170 C.3       1 A03        -0.0244
     31 C         -14.7430   11.0530   14.0800 C.2       1 A03         0.2014
     32 O         -15.3050   11.6350   15.0070 O.2       1 A03        -0.3945
     33 CBW       -19.7760    6.4650   17.3600 C.2       1 A03         0.1782
     34 OAJ       -19.4620    5.2980   17.7220 O.2       1 A03        -0.3969
     35 CBE       -18.8130    7.6420   17.5990 C.3       1 A03         0.0374
     36 CAW       -18.3510    8.2120   16.2720 C.3       1 A03        -0.0360
     37 CAS       -16.8650    8.5730   16.2650 C.3       1 A03        -0.0492
     38 CAT       -16.2550    8.2790   14.8910 C.3       1 A03        -0.0326
     39 CAZ       -16.5180    9.3810   13.8750 C.3       1 A03         0.0310
     40 NBM       -15.2310    9.9700   13.4820 N.am      1 A03        -0.2851
     41 NBP       -20.9280    6.8090   16.7380 N.am      1 A03        -0.2656
     42 CCF       -22.0070    5.8370   16.4130 C.3       1 A03         0.1310
     43 CBG       -23.2580    6.6220   16.0060 C.3       1 A03        -0.0092
     44 CAY       -23.1280    7.1460   14.5720 C.3       1 A03        -0.0156
     45 CBC       -23.4690    6.0140   13.5950 C.3       1 A03         0.0627
     46 NBL       -22.5020    6.0120   12.4970 N.pl3     1 A03        -0.2723
     47 CBT       -22.3880    5.0030   11.6280 C.cat     1 A03         0.2882
     48 NAC       -21.4910    5.1310   10.6380 N.pl3     1 A03        -0.2849
     49 NAE       -23.1650    3.9260   11.7290 N.pl3     1 A03        -0.2849
     50 CBZ       -22.3410    4.9300   17.6000 C.2       1 A03         0.2039
     51 OAM       -22.3320    5.3900   18.7350 O.2       1 A03        -0.3944
     52 NBQ       -22.6230    3.6530   17.3070 N.am      1 A03        -0.2637
     53 CCE       -22.9330    2.6370   18.3280 C.3       1 A03         0.1307
     54 CBF       -22.0170    1.4180   18.1680 C.3       1 A03        -0.0092
     55 CAX       -20.5220    1.7670   18.0620 C.3       1 A03        -0.0156
     56 CBB       -19.7280    0.4670   18.3100 C.3       1 A03         0.0627
     57 NBK       -19.6070   -0.2720   17.0280 N.pl3     1 A03        -0.2723
     58 CBS       -19.8750   -1.5790   16.9750 C.cat     1 A03         0.2882
     59 NAB       -20.2810   -2.2420   18.0560 N.pl3     1 A03        -0.2849
     60 NAD       -19.7320   -2.2320   15.8290 N.pl3     1 A03        -0.2849
     61 CBU       -24.3870    2.1400   18.2230 C.2       1 A03         0.1992
     62 OAH       -25.0690    2.3520   17.2220 O.2       1 A03        -0.3947
     63 NAF       -24.8180    1.4570   19.2660 N.am      1 A03        -0.2990
     64 H1        -20.4890    4.9753   -0.1080 H         1 A03         0.0996
     65 H2        -15.2346    5.7239    0.3144 H         1 A03         0.1820
     66 H3        -16.0659    5.2614   -1.1948 H         1 A03         0.1820
     67 H4        -16.5828    6.6773    4.7989 H         1 A03         0.1349
     68 H5        -19.0476    3.7273    7.7504 H         1 A03         0.2102
     69 H6        -21.1121    4.3827    6.6237 H         1 A03         0.2101
     70 H7        -17.6078    5.1237    6.5244 H         1 A03         0.0673
     71 H8        -19.3347    4.1677    5.0600 H         1 A03         0.0678
     72 H9        -19.7400    7.0037    7.6620 H         1 A03         0.0869
     73 H10       -20.3766    6.5688    4.2496 H         1 A03         0.0998
     74 H11       -13.0754   12.1881    9.7165 H         1 A03         0.0502
     75 H12       -13.7759   13.8419    9.7477 H         1 A03         0.0502
     76 H13       -15.0961   12.4182    8.2501 H         1 A03         0.0290
     77 H14       -16.0734   12.8252    9.7014 H         1 A03         0.0290
     78 H15       -15.2870   10.6386   10.7255 H         1 A03         0.0267
     79 H16       -14.5590   10.2321    9.1345 H         1 A03         0.0267
     80 H17       -16.8102   10.3315    8.0863 H         1 A03         0.0285
     81 H18       -17.5321   10.7173    9.6853 H         1 A03         0.0285
     82 H19       -16.8302    8.6081   10.6237 H         1 A03         0.0520
     83 H20       -15.7272    8.2786    9.2448 H         1 A03         0.0520
     84 H21       -18.6632    7.9232    9.2936 H         1 A03         0.1851
     85 H22       -12.8475   11.0854   11.5673 H         1 A03         0.1882
     86 H23       -13.1461   12.4957   14.0569 H         1 A03         0.0797
     87 H24       -12.2846   10.4080   15.1100 H         1 A03         0.0277
     88 H25       -11.2786   10.9168   13.7116 H         1 A03         0.0277
     89 H26       -12.4389    9.5568   13.5357 H         1 A03         0.0277
     90 H27       -17.9400    7.2887   18.1673 H         1 A03         0.0502
     91 H28       -19.3307    8.4257   18.1716 H         1 A03         0.0502
     92 H29       -18.9338    9.1200   16.0579 H         1 A03         0.0290
     93 H30       -18.5344    7.4647   15.4860 H         1 A03         0.0290
     94 H31       -16.3430    7.9781   17.0289 H         1 A03         0.0267
     95 H32       -16.7501    9.6432   16.4919 H         1 A03         0.0267
     96 H33       -16.6853    7.3411   14.5099 H         1 A03         0.0285
     97 H34       -15.1675    8.1626   15.0080 H         1 A03         0.0285
     98 H35       -17.1582   10.1546   14.3241 H         1 A03         0.0520
     99 H36       -17.0181    8.9589   12.9909 H         1 A03         0.0520
    100 H37       -14.7071    9.5447   12.7440 H         1 A03         0.1851
    101 H38       -21.0610    7.7669   16.4834 H         1 A03         0.1883
    102 H39       -21.6790    5.2094   15.5713 H         1 A03         0.0800
    103 H40       -23.3885    7.4730   16.6906 H         1 A03         0.0313
    104 H41       -24.1353    5.9615   16.0706 H         1 A03         0.0313
    105 H42       -22.0973    7.4873   14.3959 H         1 A03         0.0301
    106 H43       -23.8230    7.9852   14.4214 H         1 A03         0.0301
    107 H44       -24.4809    6.1689   13.1925 H         1 A03         0.0689
    108 H45       -23.4277    5.0494   14.1221 H         1 A03         0.0689
    109 H46       -21.8802    6.8260   12.3887 H         1 A03         0.2642
    110 H47       -21.3737    4.3750    9.9484 H         1 A03         0.2615
    111 H48       -20.9199    5.9853   10.5678 H         1 A03         0.2615
    112 H49       -23.8456    3.8523   12.4986 H         1 A03         0.2615
    113 H50       -23.0853    3.1668   11.0375 H         1 A03         0.2615
    114 H51       -22.6230    3.3755   16.3463 H         1 A03         0.1883
    115 H52       -22.7767    3.0825   19.3215 H         1 A03         0.0800
    116 H53       -22.3123    0.8812   17.2544 H         1 A03         0.0313
    117 H54       -22.1580    0.7627   19.0402 H         1 A03         0.0313
    118 H55       -20.2568    2.5201   18.8186 H         1 A03         0.0301
    119 H56       -20.2974    2.1597   17.0593 H         1 A03         0.0301
    120 H57       -20.2578   -0.1549   19.0465 H         1 A03         0.0689
    121 H58       -18.7258    0.7129   18.6909 H         1 A03         0.0689
    122 H59       -19.3148    0.2261   16.1751 H         1 A03         0.2642
    123 H60       -20.4831   -3.2502   17.9961 H         1 A03         0.2615
    124 H61       -20.3930   -1.7467   18.9521 H         1 A03         0.2615
    125 H62       -19.4186   -1.7301   14.9859 H         1 A03         0.2615
    126 H63       -19.9344   -3.2408   15.7824 H         1 A03         0.2615
    127 H64       -25.7514    1.0984   19.2778 H         1 A03         0.1815
    128 H65       -24.2113    1.2978   20.0448 H         1 A03         0.1815
@<TRIPOS>BOND
     1    2    1 ar 
     2    6    1 ar 
     3    3    2 ar 
     4    4    3 ar 
     5    4    5 ar 
     6   10    4 1  
     7    5    6 ar 
     8    8    5 1  
     9    6    7 1  
    10    9    8 2  
    11   10    9 1  
    12   19   10 1  
    13   15   11 2  
    14   16   12 1  
    15   17   13 1  
    16   18   14 1  
    17   14   19 1  
    18   15   18 1  
    19   27   15 am 
    20   16   17 1  
    21   18   16 1  
    22   17   19 1  
    23   20   21 2  
    24   20   22 1  
    25   28   20 am 
    26   22   23 1  
    27   23   24 1  
    28   24   25 1  
    29   25   26 1  
    30   26   27 1  
    31   29   28 1  
    32   29   30 1  
    33   31   29 1  
    34   31   32 2  
    35   40   31 am 
    36   33   34 2  
    37   35   33 1  
    38   33   41 am 
    39   36   35 1  
    40   37   36 1  
    41   38   37 1  
    42   39   38 1  
    43   39   40 1  
    44   41   42 1  
    45   42   43 1  
    46   42   50 1  
    47   43   44 1  
    48   44   45 1  
    49   45   46 1  
    50   46   47 ar 
    51   47   48 ar 
    52   47   49 ar 
    53   50   51 2  
    54   50   52 am 
    55   52   53 1  
    56   53   54 1  
    57   53   61 1  
    58   54   55 1  
    59   55   56 1  
    60   56   57 1  
    61   57   58 ar 
    62   58   59 ar 
    63   58   60 ar 
    64   61   62 2  
    65   61   63 am 
    66    2   64 1  
    67    7   65 1  
    68    7   66 1  
    69    9   67 1  
    70   12   68 1  
    71   13   69 1  
    72   16   70 1  
    73   17   71 1  
    74   18   72 1  
    75   19   73 1  
    76   22   74 1  
    77   22   75 1  
    78   23   76 1  
    79   23   77 1  
    80   24   78 1  
    81   24   79 1  
    82   25   80 1  
    83   25   81 1  
    84   26   82 1  
    85   26   83 1  
    86   27   84 1  
    87   28   85 1  
    88   29   86 1  
    89   30   87 1  
    90   30   88 1  
    91   30   89 1  
    92   35   90 1  
    93   35   91 1  
    94   36   92 1  
    95   36   93 1  
    96   37   94 1  
    97   37   95 1  
    98   38   96 1  
    99   38   97 1  
   100   39   98 1  
   101   39   99 1  
   102   40  100 1  
   103   41  101 1  
   104   42  102 1  
   105   43  103 1  
   106   43  104 1  
   107   44  105 1  
   108   44  106 1  
   109   45  107 1  
   110   45  108 1  
   111   46  109 1  
   112   48  110 1  
   113   48  111 1  
   114   49  112 1  
   115   49  113 1  
   116   52  114 1  
   117   53  115 1  
   118   54  116 1  
   119   54  117 1  
   120   55  118 1  
   121   55  119 1  
   122   56  120 1  
   123   56  121 1  
   124   57  122 1  
   125   59  123 1  
   126   59  124 1  
   127   60  125 1  
   128   60  126 1  
   129   63  127 1  
   130   63  128 1  
@<TRIPOS>SUBSTRUCTURE
     1 A03         1

