### 
### Created by X-TOOL on Mon Sep 10 21:13:04 2018
### 

@<TRIPOS>MOLECULE
3ah8_ligand
  137   138     1     0     0
SMALL
GAST_HUCK


@<TRIPOS>ATOM
      1 C           9.3730  -30.8480  -44.9020 C.2       1 ACE         0.1753
      2 O           8.4960  -30.5610  -45.7080 O.2       1 ACE        -0.3972
      3 CH3        10.3210  -31.9820  -45.1480 C.3       1 ACE         0.0258
      4 C           9.2890  -27.7380  -43.7040 C.2       1 HL2         0.2627
      5 N           9.5530  -30.1840  -43.7580 N.am      1 HL2        -0.2623
      6 O          10.3930  -27.6220  -44.2020 O.2       1 HL2        -0.3677
      7 CA          8.6720  -29.0700  -43.4410 C.3       1 HL2         0.1683
      8 CB          8.3020  -29.1120  -41.9620 C.3       1 HL2         0.0988
      9 CG          7.0720  -30.0110  -41.7260 C.3       1 HL2        -0.0161
     10 OH          9.4530  -29.4560  -41.1670 O.3       1 HL2        -0.3867
     11 CD1         5.8380  -29.1050  -41.4860 C.3       1 HL2        -0.0601
     12 CD2         7.2390  -31.0250  -40.5730 C.3       1 HL2        -0.0601
     13 C          10.1190  -23.2690  -43.0520 C.2       1 HL2         0.2093
     14 N           9.5260  -24.7920  -44.8970 N.am      1 HL2        -0.2610
     15 O          11.0400  -23.6790  -42.3540 O.2       1 HL2        -0.3941
     16 CA          9.1370  -24.2840  -43.5830 C.3       1 HL2         0.1619
     17 CB          9.2040  -25.5430  -42.7040 C.3       1 HL2         0.1298
     18 CG          8.6360  -25.5070  -41.2780 C.3       1 HL2        -0.0115
     19 OH          8.4920  -26.5710  -43.3720 O.3       1 HL2        -0.2667
     20 CD1         8.1410  -24.1590  -40.7540 C.3       1 HL2        -0.0598
     21 CD2         9.6640  -26.1270  -40.3560 C.3       1 HL2        -0.0598
     22 N          10.0090  -21.9520  -43.2940 N.am      1 OTH        -0.2489
     23 C           9.5020  -20.2390  -44.9320 C.2       1 OTH         0.2628
     24 CA          8.9470  -21.3850  -44.1280 C.3       1 OTH         0.1702
     25 O           9.7380  -19.1560  -44.4130 O.2       1 OTH        -0.3677
     26 OG1         7.9880  -21.2500  -41.7860 O.3       1 OTH        -0.3752
     27 CB          7.7660  -20.9100  -43.2590 C.3       1 OTH         0.0970
     28 C22         8.0340  -19.7530  -41.0560 C.3       1 OTH         0.0371
     29 CG2         6.4470  -21.6170  -43.7990 C.3       1 OTH        -0.0342
     30 C24        10.9940  -21.0100  -42.7500 C.3       1 OTH         0.0256
     31 N          10.8670  -21.5810  -48.5170 N.am      1 THC        -0.2620
     32 CN         11.2660  -22.0760  -49.6960 C.2       1 THC         0.1753
     33 ON         12.4410  -22.2010  -50.0110 O.2       1 THC        -0.3972
     34 CM         10.1660  -22.4770  -50.6370 C.3       1 THC         0.0258
     35 CA         11.8010  -21.1380  -47.4810 C.3       1 THC         0.1727
     36 CB         11.1010  -20.0260  -46.7040 C.3       1 THC         0.1260
     37 OG1         9.7830  -20.4310  -46.3450 O.3       1 THC        -0.2671
     38 CG2        11.0080  -18.7450  -47.5200 C.3       1 THC        -0.0297
     39 C          12.1230  -22.2440  -46.5290 C.2       1 THC         0.2653
     40 O          11.2190  -22.9610  -46.1430 O.2       1 THC        -0.3675
     41 C          13.4290  -24.8610  -45.6970 C.2       1 HF2         0.2450
     42 O          13.2710  -24.9000  -46.9060 O.2       1 HF2        -0.3795
     43 CA         13.7120  -23.4860  -45.1190 C.3       1 HF2         0.1916
     44 OA         13.5010  -22.4530  -46.0920 O.3       1 HF2        -0.2476
     45 CB         15.1390  -23.3420  -44.6020 C.3       1 HF2         0.0298
     46 CG         15.0720  -23.4000  -43.0930 C.ar      1 HF2        -0.0379
     47 CZ         14.9460  -23.5370  -40.3030 C.ar      1 HF2        -0.0687
     48 CD1        16.1440  -23.9160  -42.3670 C.ar      1 HF2        -0.0601
     49 CD2        13.9350  -22.9530  -42.4190 C.ar      1 HF2        -0.0601
     50 CE1        16.0820  -23.9810  -40.9750 C.ar      1 HF2        -0.0686
     51 CE2        13.8710  -23.0290  -41.0300 C.ar      1 HF2        -0.0686
     52 N          13.3280  -25.9670  -44.9060 N.am      1 DAM        -0.2111
     53 CM         13.5000  -25.9510  -43.4550 C.3       1 DAM         0.0468
     54 CA         13.0720  -27.1720  -45.4660 C.2       1 DAM         0.1319
     55 CB         12.9790  -28.2270  -44.6660 C.2       1 DAM        -0.0862
     56 C          12.8380  -27.3580  -46.8980 C.2       1 DAM         0.2360
     57 O          13.7460  -27.3260  -47.7190 O.2       1 DAM        -0.3773
     58 N          11.5400  -27.5590  -47.1550 N.am      1 ALA        -0.2620
     59 CA         10.8970  -27.7670  -48.4460 C.3       1 ALA         0.1282
     60 C           9.4020  -27.9210  -48.2730 C.2       1 ALA         0.2059
     61 O           8.8790  -28.9400  -48.7110 O.2       1 ALA        -0.3942
     62 CB         11.4740  -28.9940  -49.1560 C.3       1 ALA        -0.0244
     63 N           8.6560  -26.9800  -47.6520 N.am      1 MAA        -0.2532
     64 CM          7.2090  -27.1570  -47.5020 C.3       1 MAA         0.0254
     65 CA          9.2520  -25.7430  -47.1190 C.3       1 MAA         0.1306
     66 CB          9.1830  -24.6370  -48.1670 C.3       1 MAA        -0.0242
     67 C           8.6630  -25.2430  -45.8190 C.2       1 MAA         0.2039
     68 O           7.4550  -25.2590  -45.6390 O.2       1 MAA        -0.3944
     69 H           9.7578  -32.9102  -45.2448 H         1 ACE         0.0467
     70 H          10.8777  -31.7958  -46.0665 H         1 ACE         0.0467
     71 H          11.0147  -32.0620  -44.3111 H         1 ACE         0.0467
     72 H          10.2976  -30.4537  -43.1151 H         1 HL2         0.1885
     73 H           7.8010  -29.1823  -44.0866 H         1 HL2         0.0843
     74 H           7.9973  -28.1191  -41.6311 H         1 HL2         0.0646
     75 H           6.9411  -30.6215  -42.6195 H         1 HL2         0.0323
     76 H           9.2297  -29.3867  -40.2359 H         1 HL2         0.2101
     77 H           6.0138  -28.4778  -40.6120 H         1 HL2         0.0233
     78 H           5.6760  -28.4747  -42.3604 H         1 HL2         0.0233
     79 H           4.9592  -29.7274  -41.3173 H         1 HL2         0.0233
     80 H           8.0800  -31.6838  -40.7892 H         1 HL2         0.0233
     81 H           7.4261  -30.4882  -39.6430 H         1 HL2         0.0233
     82 H           6.3284  -31.6161  -40.4760 H         1 HL2         0.0233
     83 H          10.5194  -24.8043  -45.1280 H         1 HL2         0.1884
     84 H           8.1679  -23.7856  -43.6080 H         1 HL2         0.0830
     85 H          10.2769  -25.6807  -42.5700 H         1 HL2         0.0701
     86 H           7.7095  -26.0804  -41.3076 H         1 HL2         0.0326
     87 H           8.9645  -23.4449  -40.7569 H         1 HL2         0.0233
     88 H           7.3392  -23.7935  -41.3955 H         1 HL2         0.0233
     89 H           7.7676  -24.2808  -39.7372 H         1 HL2         0.0233
     90 H           9.8523  -27.1557  -40.6633 H         1 HL2         0.0233
     91 H          10.5903  -25.5550  -40.4098 H         1 HL2         0.0233
     92 H           9.2870  -26.1152  -39.3333 H         1 HL2         0.0233
     93 H           8.5772  -22.1552  -44.8049 H         1 OTH         0.0845
     94 H           7.6743  -19.8260  -43.3266 H         1 OTH         0.0643
     95 H           8.8515  -19.1690  -41.4787 H         1 OTH         0.0524
     96 H           7.0897  -19.2367  -41.2288 H         1 OTH         0.0524
     97 H           8.1908  -19.8774  -39.9845 H         1 OTH         0.0524
     98 H           6.2867  -21.3374  -44.8403 H         1 OTH         0.0257
     99 H           6.5598  -22.6986  -43.7251 H         1 OTH         0.0257
    100 H           5.5940  -21.2976  -43.2003 H         1 OTH         0.0257
    101 H          10.9941  -21.0745  -41.6619 H         1 OTH         0.0488
    102 H          11.9840  -21.2616  -43.1303 H         1 OTH         0.0488
    103 H          10.7329  -19.9967  -43.0552 H         1 OTH         0.0488
    104 H           9.8663  -21.5095  -48.3328 H         1 THC         0.1885
    105 H          10.2460  -21.8963  -51.5559 H         1 THC         0.0467
    106 H          10.2558  -23.5385  -50.8676 H         1 THC         0.0467
    107 H           9.2008  -22.2862  -50.1679 H         1 THC         0.0467
    108 H          12.7307  -20.8064  -47.9433 H         1 THC         0.0847
    109 H          11.6952  -19.8336  -45.8107 H         1 THC         0.0697
    110 H          12.0115  -18.4063  -47.7777 H         1 THC         0.0260
    111 H          10.4425  -18.9368  -48.4319 H         1 THC         0.0260
    112 H          10.5037  -17.9775  -46.9329 H         1 THC         0.0260
    113 H          13.0157  -23.3806  -44.2871 H         1 HF2         0.0924
    114 H          15.5749  -22.3991  -44.9322 H         1 HF2         0.0480
    115 H          15.7717  -24.1401  -44.9903 H         1 HF2         0.0480
    116 H          14.8979  -23.5865  -39.2152 H         1 HF2         0.0559
    117 H          17.0334  -24.2698  -42.8885 H         1 HF2         0.0557
    118 H          13.0954  -22.5436  -42.9807 H         1 HF2         0.0557
    119 H          16.9252  -24.3805  -40.4116 H         1 HF2         0.0599
    120 H          12.9758  -22.6895  -40.5089 H         1 HF2         0.0599
    121 H          14.5006  -25.5928  -43.2129 H         1 DAM         0.0557
    122 H          12.7579  -25.2883  -43.0097 H         1 DAM         0.0557
    123 H          13.3693  -26.9599  -43.0638 H         1 DAM         0.0557
    124 H          13.1080  -28.1082  -43.5902 H         1 DAM         0.0195
    125 H          12.7737  -29.2122  -45.0848 H         1 DAM         0.0195
    126 H          10.9220  -27.5677  -46.3436 H         1 ALA         0.1879
    127 H          11.0928  -26.8907  -49.0639 H         1 ALA         0.0797
    128 H          12.5425  -28.8503  -49.3165 H         1 ALA         0.0277
    129 H          11.3137  -29.8781  -48.5389 H         1 ALA         0.0277
    130 H          10.9753  -29.1244  -50.1164 H         1 ALA         0.0277
    131 H           6.7506  -27.2423  -48.4872 H         1 MAA         0.0488
    132 H           7.0126  -28.0631  -46.9288 H         1 MAA         0.0488
    133 H           6.7913  -26.2968  -46.9788 H         1 MAA         0.0488
    134 H          10.2833  -26.0083  -46.8864 H         1 MAA         0.0799
    135 H           9.7322  -24.9461  -49.0563 H         1 MAA         0.0277
    136 H           8.1414  -24.4503  -48.4283 H         1 MAA         0.0277
    137 H           9.6263  -23.7270  -47.7627 H         1 MAA         0.0277
@<TRIPOS>BOND
     1    1    2 2  
     2    1    3 1  
     3    5    1 am 
     4    4    6 2  
     5    4    7 1  
     6   19    4 1  
     7    7    5 1  
     8    7    8 1  
     9    8    9 1  
    10    8   10 1  
    11    9   11 1  
    12    9   12 1  
    13   13   15 2  
    14   13   16 1  
    15   22   13 am 
    16   16   14 1  
    17   14   67 am 
    18   16   17 1  
    19   17   18 1  
    20   17   19 1  
    21   18   20 1  
    22   18   21 1  
    23   24   22 1  
    24   22   30 1  
    25   23   24 1  
    26   23   25 2  
    27   37   23 1  
    28   24   27 1  
    29   27   26 1  
    30   26   28 1  
    31   27   29 1  
    32   31   32 am 
    33   35   31 1  
    34   32   33 2  
    35   32   34 1  
    36   35   36 1  
    37   39   35 1  
    38   36   37 1  
    39   36   38 1  
    40   39   40 2  
    41   44   39 1  
    42   41   42 2  
    43   43   41 1  
    44   41   52 am 
    45   43   44 1  
    46   45   43 1  
    47   46   45 1  
    48   48   46 ar 
    49   46   49 ar 
    50   50   47 ar 
    51   47   51 ar 
    52   48   50 ar 
    53   49   51 ar 
    54   52   53 1  
    55   52   54 1  
    56   54   55 2  
    57   54   56 1  
    58   56   57 2  
    59   56   58 am 
    60   58   59 1  
    61   59   60 1  
    62   59   62 1  
    63   60   61 2  
    64   60   63 am 
    65   63   64 1  
    66   63   65 1  
    67   65   66 1  
    68   65   67 1  
    69   67   68 2  
    70    3   69 1  
    71    3   70 1  
    72    3   71 1  
    73    5   72 1  
    74    7   73 1  
    75    8   74 1  
    76    9   75 1  
    77   10   76 1  
    78   11   77 1  
    79   11   78 1  
    80   11   79 1  
    81   12   80 1  
    82   12   81 1  
    83   12   82 1  
    84   14   83 1  
    85   16   84 1  
    86   17   85 1  
    87   18   86 1  
    88   20   87 1  
    89   20   88 1  
    90   20   89 1  
    91   21   90 1  
    92   21   91 1  
    93   21   92 1  
    94   24   93 1  
    95   27   94 1  
    96   28   95 1  
    97   28   96 1  
    98   28   97 1  
    99   29   98 1  
   100   29   99 1  
   101   29  100 1  
   102   30  101 1  
   103   30  102 1  
   104   30  103 1  
   105   31  104 1  
   106   34  105 1  
   107   34  106 1  
   108   34  107 1  
   109   35  108 1  
   110   36  109 1  
   111   38  110 1  
   112   38  111 1  
   113   38  112 1  
   114   43  113 1  
   115   45  114 1  
   116   45  115 1  
   117   47  116 1  
   118   48  117 1  
   119   49  118 1  
   120   50  119 1  
   121   51  120 1  
   122   53  121 1  
   123   53  122 1  
   124   53  123 1  
   125   55  124 1  
   126   55  125 1  
   127   58  126 1  
   128   59  127 1  
   129   62  128 1  
   130   62  129 1  
   131   62  130 1  
   132   64  131 1  
   133   64  132 1  
   134   64  133 1  
   135   65  134 1  
   136   66  135 1  
   137   66  136 1  
   138   66  137 1  
@<TRIPOS>SUBSTRUCTURE
     1 ACE         1

