### 
### Created by X-TOOL on Mon Sep 10 21:13:06 2018
### 

@<TRIPOS>MOLECULE
3ai8_ligand
   20    21     1     0     0
SMALL
GAST_HUCK


@<TRIPOS>ATOM
      1 C1        -35.2770  -12.1250  -47.1160 C.ar      1 HNQ         0.2301
      2 N1        -35.9260  -13.1970  -47.4940 N.2       1 HNQ        -0.1124
      3 O1        -35.7410  -14.2060  -46.9770 O.2       1 HNQ        -0.4373
      4 C2        -34.5660  -11.5700  -47.9520 C.ar      1 HNQ         0.1176
      5 N2        -34.6930  -10.2250  -44.2450 N.ar      1 HNQ        -0.1791
      6 O2        -36.5930  -13.0610  -48.2110 O.2       1 HNQ        -0.4373
      7 C3        -33.8090  -10.5030  -47.6160 C.ar      1 HNQ         0.1395
      8 O3        -33.1100   -8.9350  -45.9840 O.3       1 HNQ        -0.2073
      9 C4        -33.8550  -10.0430  -46.3770 C.ar      1 HNQ         0.2966
     10 C5        -34.6490  -10.6740  -45.5070 C.ar      1 HNQ         0.2483
     11 C6        -35.4620  -10.8200  -43.4390 C.ar      1 HNQ         0.0973
     12 C7        -36.2170  -11.8780  -43.7940 C.ar      1 HNQ         0.0462
     13 C8        -36.1640  -12.3110  -44.9660 C.ar      1 HNQ         0.0529
     14 C9        -35.3530  -11.7010  -45.8820 C.ar      1 HNQ         0.1784
     15 H1        -34.5466  -11.9414  -48.9702 H         1 HNQ         0.1281
     16 H2        -33.1712  -10.0292  -48.3534 H         1 HNQ         0.1427
     17 H3        -33.3653   -8.1824  -46.5044 H         1 HNQ         0.3316
     18 H4        -35.5170  -10.4639  -42.4167 H         1 HNQ         0.1194
     19 H5        -36.8672  -12.3515  -43.0673 H         1 HNQ         0.1101
     20 H6        -36.7603  -13.1688  -45.2552 H         1 HNQ         0.1345
@<TRIPOS>BOND
     1    1    2 1  
     2    4    1 ar 
     3    1   14 ar 
     4    2    3 2  
     5    2    6 2  
     6    7    4 ar 
     7   10    5 ar 
     8    5   11 ar 
     9    9    7 ar 
    10    9    8 1  
    11    9   10 ar 
    12   10   14 ar 
    13   11   12 ar 
    14   12   13 ar 
    15   13   14 ar 
    16    4   15 1  
    17    7   16 1  
    18    8   17 1  
    19   11   18 1  
    20   12   19 1  
    21   13   20 1  
@<TRIPOS>SUBSTRUCTURE
     1 HNQ         1

