### 
### Created by X-TOOL on Mon Sep 10 21:12:45 2018
### 

@<TRIPOS>MOLECULE
3aid_ligand
   75    77     1     0     0
SMALL
GAST_HUCK


@<TRIPOS>ATOM
      1 C1          1.4740    1.3210   11.3540 C.3       1 ARQ         0.0905
      2 C2          0.5620    0.2520   12.0360 C.3       1 ARQ        -0.0320
      3 C3          0.6750    2.6330   11.4100 C.3       1 ARQ        -0.0320
      4 C4          1.8520    1.0060    9.8910 C.3       1 ARQ        -0.0320
      5 O4          2.6640    1.5540   12.1080 O.3       1 ARQ        -0.2581
      6 C30         3.5110    0.5710   12.4000 C.2       1 ARQ         0.3205
      7 O3          3.3990   -0.5330   11.9700 O.2       1 ARQ        -0.3775
      8 N1          4.4970    0.9940   13.1930 N.am      1 ARQ        -0.2548
      9 C5          5.7160    0.2690   13.5580 C.3       1 ARQ         0.0842
     10 C6          6.9530    1.1630   13.3460 C.3       1 ARQ         0.0065
     11 C7          6.9750    1.8240   11.9980 C.ar      1 ARQ        -0.0408
     12 C8          6.8150    1.0510   10.8260 C.ar      1 ARQ        -0.0603
     13 C9          6.7910    1.7010    9.5740 C.ar      1 ARQ        -0.0686
     14 C10         6.9270    3.1100    9.5190 C.ar      1 ARQ        -0.0687
     15 C11         7.1140    3.2320   11.9410 C.ar      1 ARQ        -0.0603
     16 C12         7.0850    3.8880   10.6920 C.ar      1 ARQ        -0.0686
     17 C13         5.6420   -0.3190   14.9980 C.3       1 ARQ         0.1202
     18 O1          5.2480    0.6510   15.9800 O.3       1 ARQ        -0.3841
     19 C14         4.6690   -1.5250   15.0080 C.3       1 ARQ         0.0251
     20 N2          4.9980   -2.6690   15.9100 N.4       1 ARQ         0.3853
     21 C22         5.4410   -2.2190   17.2490 C.3       1 ARQ        -0.0146
     22 C15         3.7180   -3.4410   16.0240 C.3       1 ARQ         0.0287
     23 C16         3.7240   -4.6950   16.8830 C.ar      1 ARQ         0.0023
     24 C17         4.0550   -5.9400   16.3080 C.ar      1 ARQ        -0.0553
     25 C18         4.1620   -7.1060   17.1090 C.ar      1 ARQ        -0.0684
     26 C19         3.9570   -7.0060   18.5050 C.ar      1 ARQ        -0.0687
     27 C20         3.3860   -4.6320   18.2480 C.ar      1 ARQ        -0.0553
     28 C21         3.5020   -5.7910   19.0630 C.ar      1 ARQ        -0.0684
     29 N3          6.1210   -3.3330   15.2910 N.am      1 ARQ        -0.2480
     30 C23         6.0670   -4.0330   14.1400 C.2       1 ARQ         0.2419
     31 O2          5.0150   -4.2240   13.5230 O.2       1 ARQ        -0.3799
     32 C27         7.3600   -4.5790   13.6740 C.ar      1 ARQ         0.0543
     33 C26         7.3430   -5.4900   12.5820 C.ar      1 ARQ        -0.0418
     34 C25         8.5210   -6.1010   12.1230 C.ar      1 ARQ        -0.0562
     35 C24         9.7140   -5.7960   12.7960 C.ar      1 ARQ        -0.0575
     36 C28         8.5930   -4.2220   14.2790 C.ar      1 ARQ        -0.0418
     37 C29         9.7810   -4.8390   13.8380 C.ar      1 ARQ        -0.0562
     38 H1         -0.3421    0.0998   11.4281 H         1 ARQ         0.0260
     39 H2          0.2750    0.6009   13.0389 H         1 ARQ         0.0260
     40 H3          1.1107   -0.6976   12.1212 H         1 ARQ         0.0260
     41 H4         -0.2605    2.5171   10.8430 H         1 ARQ         0.0260
     42 H5          1.2722    3.4451   10.9698 H         1 ARQ         0.0260
     43 H6          0.4414    2.8757   12.4571 H         1 ARQ         0.0260
     44 H7          0.9376    0.8258    9.3067 H         1 ARQ         0.0260
     45 H8          2.4885    0.1093    9.8616 H         1 ARQ         0.0260
     46 H9          2.3992    1.8583    9.4620 H         1 ARQ         0.0260
     47 H10         4.3918    1.9092   13.5820 H         1 ARQ         0.1873
     48 H11         5.8084   -0.5838   12.8694 H         1 ARQ         0.0606
     49 H12         7.8555    0.5423   13.4468 H         1 ARQ         0.0449
     50 H13         6.9573    1.9448   14.1198 H         1 ARQ         0.0449
     51 H14         6.7121   -0.0263   10.8880 H         1 ARQ         0.0557
     52 H15         6.6696    1.1273    8.6623 H         1 ARQ         0.0599
     53 H16         6.9097    3.6052    8.5549 H         1 ARQ         0.0559
     54 H17         7.2422    3.8036   12.8531 H         1 ARQ         0.0557
     55 H18         7.1817    4.9660   10.6314 H         1 ARQ         0.0599
     56 H19         6.6455   -0.6795   15.2683 H         1 ARQ         0.0672
     57 H20         4.3708    0.9592   15.7849 H         1 ARQ         0.2101
     58 H21         4.6208   -1.9180   13.9817 H         1 ARQ         0.0850
     59 H22         3.6789   -1.1471   15.3029 H         1 ARQ         0.0850
     60 H23         5.6704   -3.0954   17.8730 H         1 ARQ         0.0786
     61 H24         4.6402   -1.6317   17.7220 H         1 ARQ         0.0786
     62 H25         6.3416   -1.5957   17.1470 H         1 ARQ         0.0786
     63 H26         3.4231   -3.7405   15.0075 H         1 ARQ         0.0989
     64 H27         2.9601   -2.7611   16.4404 H         1 ARQ         0.0989
     65 H28         4.2298   -6.0066   15.2403 H         1 ARQ         0.0558
     66 H29         4.3981   -8.0624   16.6565 H         1 ARQ         0.0599
     67 H30         4.1486   -7.8597   19.1449 H         1 ARQ         0.0559
     68 H31         3.0373   -3.6999   18.6777 H         1 ARQ         0.0558
     69 H32         3.2409   -5.7421   20.1140 H         1 ARQ         0.0599
     70 H33         7.0065   -3.2687   15.7512 H         1 ARQ         0.2378
     71 H34         6.4019   -5.7172   12.0943 H         1 ARQ         0.0669
     72 H35         8.5093   -6.7828   11.2803 H         1 ARQ         0.0629
     73 H36        10.6212   -6.3139   12.5066 H         1 ARQ         0.0653
     74 H37         8.6209   -3.4830   15.0715 H         1 ARQ         0.0669
     75 H38        10.7328   -4.5846   14.2901 H         1 ARQ         0.0629
@<TRIPOS>BOND
     1    1    5 1  
     2    1    4 1  
     3    1    3 1  
     4    1    2 1  
     5    5    6 1  
     6    6    8 am 
     7    6    7 2  
     8    8    9 1  
     9    9   17 1  
    10    9   10 1  
    11   10   11 1  
    12   11   15 ar 
    13   11   12 ar 
    14   12   13 ar 
    15   13   14 ar 
    16   14   16 ar 
    17   16   15 ar 
    18   17   19 1  
    19   17   18 1  
    20   19   20 1  
    21   20   29 1  
    22   20   22 1  
    23   20   21 1  
    24   22   23 1  
    25   23   27 ar 
    26   23   24 ar 
    27   24   25 ar 
    28   25   26 ar 
    29   26   28 ar 
    30   28   27 ar 
    31   29   30 am 
    32   30   32 1  
    33   30   31 2  
    34   32   36 ar 
    35   32   33 ar 
    36   33   34 ar 
    37   34   35 ar 
    38   35   37 ar 
    39   37   36 ar 
    40    2   38 1  
    41    2   39 1  
    42    2   40 1  
    43    3   41 1  
    44    3   42 1  
    45    3   43 1  
    46    4   44 1  
    47    4   45 1  
    48    4   46 1  
    49    8   47 1  
    50    9   48 1  
    51   10   49 1  
    52   10   50 1  
    53   12   51 1  
    54   13   52 1  
    55   14   53 1  
    56   15   54 1  
    57   16   55 1  
    58   17   56 1  
    59   18   57 1  
    60   19   58 1  
    61   19   59 1  
    62   21   60 1  
    63   21   61 1  
    64   21   62 1  
    65   22   63 1  
    66   22   64 1  
    67   24   65 1  
    68   25   66 1  
    69   26   67 1  
    70   27   68 1  
    71   28   69 1  
    72   29   70 1  
    73   33   71 1  
    74   34   72 1  
    75   35   73 1  
    76   36   74 1  
    77   37   75 1  
@<TRIPOS>SUBSTRUCTURE
     1 ARQ         1

