### 
### Created by X-TOOL on Mon Sep 10 21:13:06 2018
### 

@<TRIPOS>MOLECULE
3aje_ligand
   17    16     1     0     0
SMALL
GAST_HUCK


@<TRIPOS>ATOM
      1 N          40.9470   40.3450   16.7810 N.4       1 THR         0.2345
      2 CA         40.3120   39.2210   16.0420 C.3       1 THR         0.0545
      3 C          41.2960   38.6410   15.0150 C.2       1 THR         0.0870
      4 O          42.4050   39.1850   14.8630 O.co2     1 THR        -0.5642
      5 CB         39.0770   39.6860   15.2480 C.3       1 THR         0.1066
      6 OG1        39.5040   40.5960   14.2380 O.3       1 THR        -0.3847
      7 CG2        38.0530   40.3980   16.1710 C.3       1 THR        -0.0320
      8 OXT        40.9280   37.6340   14.4070 O.co2     1 THR        -0.5642
      9 H          41.7584   39.9985   17.2927 H         1 THR         0.2011
     10 H          41.2422   41.0622   16.1185 H         1 THR         0.2011
     11 H          40.2743   40.7423   17.4367 H         1 THR         0.2011
     12 H          40.0233   38.4818   16.7892 H         1 THR         0.1050
     13 H          38.5931   38.8141   14.8078 H         1 THR         0.0667
     14 H          39.9327   41.3503   14.6490 H         1 THR         0.2102
     15 H          38.5241   41.2656   16.6330 H         1 THR         0.0258
     16 H          37.1957   40.7202   15.5800 H         1 THR         0.0258
     17 H          37.7224   39.7067   16.9461 H         1 THR         0.0258
@<TRIPOS>BOND
     1    1    2 1  
     2    2    3 1  
     3    2    5 1  
     4    3    4 ar 
     5    3    8 ar 
     6    5    6 1  
     7    5    7 1  
     8    1    9 1  
     9    1   10 1  
    10    1   11 1  
    11    2   12 1  
    12    5   13 1  
    13    6   14 1  
    14    7   15 1  
    15    7   16 1  
    16    7   17 1  
@<TRIPOS>SUBSTRUCTURE
     1 THR         1

