### 
### Created by X-TOOL on Mon Sep 10 21:13:07 2018
### 

@<TRIPOS>MOLECULE
3alt_ligand
   45    46     1     0     0
SMALL
GAST_HUCK


@<TRIPOS>ATOM
      1 C1         18.2520  -38.2240   32.3440 C.3       1 MLB         0.1880
      2 O1         18.5330  -38.2650   33.7780 O.3       1 MLB        -0.3460
      3 C2         19.3930  -37.8210   31.4490 C.3       1 MLB         0.1341
      4 O2         20.4610  -38.6760   31.8150 O.3       1 MLB        -0.3841
      5 C3         19.6680  -36.3320   31.6280 C.3       1 MLB         0.1141
      6 O3         20.5320  -35.9570   30.5540 O.3       1 MLB        -0.3864
      7 C4         18.3620  -35.5240   31.5500 C.3       1 MLB         0.1119
      8 O4         17.8300  -35.6280   30.2250 O.3       1 MLB        -0.3865
      9 C5         17.3150  -36.0530   32.5310 C.3       1 MLB         0.1130
     10 O5         17.0980  -37.3860   32.1620 O.3       1 MLB        -0.3405
     11 C6         15.9670  -35.3300   32.5510 C.3       1 MLB         0.0730
     12 O6         15.3290  -35.2650   31.2730 O.3       1 MLB        -0.3924
     13 C1'        18.4560  -40.4230   37.0610 C.3       1 MLB         0.1854
     14 O1'        17.2700  -41.2480   37.0950 O.3       1 MLB        -0.3649
     15 C2'        19.0090  -40.0180   38.4190 C.3       1 MLB         0.1339
     16 O2'        18.0340  -40.2000   39.4400 O.3       1 MLB        -0.3841
     17 C3'        19.4890  -38.5680   38.4030 C.3       1 MLB         0.1141
     18 O3'        20.3040  -38.3510   39.5370 O.3       1 MLB        -0.3864
     19 C4'        20.3000  -38.2490   37.1410 C.3       1 MLB         0.1119
     20 O4'        20.8210  -36.9130   37.1900 O.3       1 MLB        -0.3865
     21 C5'        19.2890  -38.3310   36.0180 C.3       1 MLB         0.1134
     22 O5'        18.1800  -39.1970   36.4070 O.3       1 MLB        -0.3407
     23 C6'        19.7510  -38.5510   34.5400 C.3       1 MLB         0.0796
     24 H1         17.9767  -39.2453   32.0422 H         1 MLB         0.0937
     25 H2         19.1335  -37.9997   30.3951 H         1 MLB         0.0671
     26 H3         20.6699  -38.5450   32.7325 H         1 MLB         0.2101
     27 H4         20.1565  -36.1487   32.5964 H         1 MLB         0.0648
     28 H5         20.7347  -35.0312   30.6206 H         1 MLB         0.2100
     29 H6         18.5763  -34.4705   31.7827 H         1 MLB         0.0647
     30 H7         17.0224  -35.1308   30.1693 H         1 MLB         0.2100
     31 H8         17.7363  -36.0066   33.5460 H         1 MLB         0.0647
     32 H9         16.1293  -34.3031   32.9104 H         1 MLB         0.0584
     33 H10        15.2990  -35.8604   33.2456 H         1 MLB         0.0584
     34 H11        14.5015  -34.8059   31.3564 H         1 MLB         0.2095
     35 H12        19.2330  -40.9744   36.5112 H         1 MLB         0.0935
     36 H13        16.5818  -40.7921   37.5651 H         1 MLB         0.2126
     37 H14        19.8701  -40.6642   38.6446 H         1 MLB         0.0671
     38 H15        17.7796  -41.1147   39.4739 H         1 MLB         0.2101
     39 H16        18.6151  -37.9011   38.4437 H         1 MLB         0.0648
     40 H17        21.0492  -38.9395   39.5073 H         1 MLB         0.2100
     41 H18        21.1178  -38.9715   37.0028 H         1 MLB         0.0647
     42 H19        21.3867  -36.8225   37.9478 H         1 MLB         0.2100
     43 H20        18.8593  -37.3188   35.9895 H         1 MLB         0.0647
     44 H21        20.5605  -37.8571   34.2697 H         1 MLB         0.0587
     45 H22        20.0863  -39.5862   34.3788 H         1 MLB         0.0587
@<TRIPOS>BOND
     1    2    1 1  
     2    1    3 1  
     3    1   10 1  
     4   23    2 1  
     5    3    4 1  
     6    3    5 1  
     7    5    6 1  
     8    5    7 1  
     9    7    8 1  
    10    9    7 1  
    11   10    9 1  
    12    9   11 1  
    13   11   12 1  
    14   13   14 1  
    15   13   15 1  
    16   22   13 1  
    17   15   16 1  
    18   17   15 1  
    19   17   18 1  
    20   19   17 1  
    21   19   20 1  
    22   21   19 1  
    23   21   22 1  
    24   21   23 1  
    25    1   24 1  
    26    3   25 1  
    27    4   26 1  
    28    5   27 1  
    29    6   28 1  
    30    7   29 1  
    31    8   30 1  
    32    9   31 1  
    33   11   32 1  
    34   11   33 1  
    35   12   34 1  
    36   13   35 1  
    37   14   36 1  
    38   15   37 1  
    39   16   38 1  
    40   17   39 1  
    41   18   40 1  
    42   19   41 1  
    43   20   42 1  
    44   21   43 1  
    45   23   44 1  
    46   23   45 1  
@<TRIPOS>SUBSTRUCTURE
     1 MLB         1

