### 
### Created by X-TOOL on Fri Sep 26 17:34:51 2014
### 

@<TRIPOS>MOLECULE
3ama_ligand
   39    41     1     0     0
SMALL
GAST_HUCK


@<TRIPOS>ATOM
      1 S         -28.6830   10.0970   11.9220 S.o2      1 SKE         0.0603
      2 C1        -32.1560    9.8830    3.7540 C.2       1 SKE         0.2527
      3 F1        -28.7600   11.7680    5.1630 F         1 SKE        -0.1782
      4 N1        -32.7050    9.9840    2.5270 N.pl3     1 SKE        -0.2893
      5 O1        -29.5200   10.0720   13.1440 O.2       1 SKE        -0.1521
      6 C2        -31.9350    9.7100    5.8650 C.2       1 SKE         0.1508
      7 F2        -28.0770    7.7870    2.6430 F         1 SKE        -0.1782
      8 N2        -32.8470    9.7610    4.8840 N.2       1 SKE        -0.2739
      9 O2        -27.9410   11.4000   11.7950 O.2       1 SKE        -0.1521
     10 C3        -31.4040    9.6890    8.2320 C.ar      1 SKE         0.0575
     11 N3        -32.2440    9.5780    7.1800 N.pl3     1 SKE        -0.2669
     12 O3        -29.9410   10.0090    1.9880 O.2       1 SKE        -0.3518
     13 C4        -30.0060    9.7340    8.1000 C.ar      1 SKE        -0.0385
     14 N4        -27.6010    8.8890   11.9620 N.am      1 SKE        -0.2623
     15 C5        -29.1850    9.8560    9.2300 C.ar      1 SKE        -0.0460
     16 N5        -30.7180    9.7660    5.3140 N.2       1 SKE        -0.1813
     17 C6        -29.7490    9.9280   10.5000 C.ar      1 SKE         0.0952
     18 N6        -30.8520    9.9000    4.0690 N.am      1 SKE        -0.0829
     19 C7        -31.1380    9.8940   10.6410 C.ar      1 SKE        -0.0460
     20 C8        -31.9640    9.7690    9.5190 C.ar      1 SKE        -0.0385
     21 C9        -29.8050    9.9720    3.2190 C.2       1 SKE         0.2888
     22 C10       -28.4260    9.7910    3.8830 C.ar      1 SKE         0.1350
     23 C11       -27.9940   10.7000    4.8540 C.ar      1 SKE         0.1536
     24 C12       -26.7610   10.5130    5.4890 C.ar      1 SKE        -0.0261
     25 C13       -25.9770    9.4020    5.1640 C.ar      1 SKE        -0.0610
     26 C14       -26.4190    8.4880    4.2010 C.ar      1 SKE        -0.0261
     27 C15       -27.6450    8.6810    3.5630 C.ar      1 SKE         0.1536
     28 H1        -33.7288    9.9571    2.4171 H         1 SKE         0.1819
     29 H2        -32.1007   10.0881    1.6994 H         1 SKE         0.1819
     30 H3        -33.2285    9.3701    7.4003 H         1 SKE         0.2073
     31 H4        -29.5577    9.6738    7.1149 H         1 SKE         0.0527
     32 H5        -27.9116    7.9420   12.0443 H         1 SKE         0.1633
     33 H6        -26.6234    9.0913   11.9044 H         1 SKE         0.1633
     34 H7        -28.1079    9.8943    9.1140 H         1 SKE         0.0604
     35 H8        -31.5798    9.9651   11.6283 H         1 SKE         0.0604
     36 H9        -33.0404    9.7337    9.6424 H         1 SKE         0.0527
     37 H10       -26.4156   11.2259    6.2290 H         1 SKE         0.0582
     38 H11       -25.0249    9.2483    5.6589 H         1 SKE         0.0633
     39 H12       -25.8079    7.6285    3.9501 H         1 SKE         0.0582
@<TRIPOS>BOND
     1    1    5 2  
     2    1    9 2  
     3    1   14 am 
     4   17    1 1  
     5    2    4 1  
     6    2    8 2  
     7   18    2 1  
     8   23    3 1  
     9    6    8 1  
    10    6   11 1  
    11   16    6 2  
    12   27    7 1  
    13   11   10 1  
    14   10   13 ar 
    15   10   20 ar 
    16   21   12 2  
    17   13   15 ar 
    18   15   17 ar 
    19   18   16 1  
    20   19   17 ar 
    21   21   18 am 
    22   20   19 ar 
    23   22   21 1  
    24   22   23 ar 
    25   22   27 ar 
    26   23   24 ar 
    27   24   25 ar 
    28   25   26 ar 
    29   26   27 ar 
    30    4   28 1  
    31    4   29 1  
    32   11   30 1  
    33   13   31 1  
    34   14   32 1  
    35   14   33 1  
    36   15   34 1  
    37   19   35 1  
    38   20   36 1  
    39   24   37 1  
    40   25   38 1  
    41   26   39 1  
@<TRIPOS>SUBSTRUCTURE
     1 SKE         1

