### 
### Created by X-TOOL on Mon Sep 10 21:12:47 2018
### 

@<TRIPOS>MOLECULE
3amv_ligand
   48    49     1     0     0
SMALL
GAST_HUCK


@<TRIPOS>ATOM
      1 C1         27.9610    2.2690   52.9470 C.ar      1 BIN        -0.0196
      2 C2         27.3160    3.6340   53.3400 C.ar      1 BIN         0.0418
      3 C3         27.4490    4.1200   54.7240 C.ar      1 BIN        -0.0556
      4 C4         28.2340    3.2640   55.6850 C.ar      1 BIN        -0.0692
      5 C5         28.8210    2.0640   55.3710 C.ar      1 BIN        -0.0693
      6 C6         28.6870    1.5600   54.0220 C.ar      1 BIN        -0.0591
      7 C7         27.8800    1.6580   51.4890 C.3       1 BIN         0.0376
      8 C8         26.9280    0.2460   51.4410 C.2       1 BIN         0.0508
      9 C9         29.9290    0.3110   50.6910 C.2       1 BIN         0.1090
     10 C11        27.5580   -1.0210   51.1960 C.2       1 BIN         0.0610
     11 C12        29.2760    1.6510   50.8680 C.2       1 BIN         0.0256
     12 C13        29.9820    3.0590   50.5500 C.2       1 BIN         0.0498
     13 C14        31.2980    0.2270   50.1430 C.2       1 BIN         0.0881
     14 C15        26.9010   -2.3950   51.0280 C.3       1 BIN        -0.0003
     15 C16        30.2480   -2.2590   53.0770 C.3       1 BIN        -0.0406
     16 C17        29.8410   -2.1490   51.6430 C.3       1 BIN         0.0457
     17 C18        25.3210    0.4300   51.6270 C.2       1 BIN         0.2179
     18 C19        23.3130    2.0350   51.3960 C.3       1 BIN         0.0791
     19 C20        23.1480    2.4680   52.8950 C.3       1 BIN        -0.0348
     20 C21        23.0590    3.1160   50.3590 C.3       1 BIN        -0.0348
     21 N10        29.0990   -0.9670   51.1400 N.pl3     1 BIN        -0.2506
     22 O3A        31.2080    3.3100   50.5930 O.co2     1 BIN        -0.5682
     23 O3B        29.2440    4.0710   50.2930 O.co2     1 BIN        -0.5682
     24 O4A        31.4280   -0.1720   48.9410 O.co2     1 BIN        -0.5586
     25 O4B        32.1490    0.6040   50.9940 O.co2     1 BIN        -0.5586
     26 O8A        24.6010   -0.4530   52.0160 O.2       1 BIN        -0.3934
     27 O8         24.8790    1.7030   51.3100 O.3       1 BIN        -0.2854
     28 CL2        26.4980    4.5920   52.2890 Cl        1 BIN        -0.0778
     29 H1         27.0006    5.0553   55.0388 H         1 BIN         0.0602
     30 H2         28.3431    3.6238   56.7017 H         1 BIN         0.0551
     31 H3         29.3734    1.5057   56.1182 H         1 BIN         0.0598
     32 H4         29.1457    0.6067   53.7854 H         1 BIN         0.0551
     33 H5         27.3131    2.3825   50.8860 H         1 BIN         0.0592
     34 H6         25.8078   -2.2885   51.0883 H         1 BIN         0.0467
     35 H7         27.2484   -3.0676   51.8260 H         1 BIN         0.0467
     36 H8         27.1750   -2.8152   50.0491 H         1 BIN         0.0467
     37 H9         30.7832   -3.2070   53.2345 H         1 BIN         0.0253
     38 H10        29.3526   -2.2331   53.7154 H         1 BIN         0.0253
     39 H11        30.9078   -1.4180   53.3365 H         1 BIN         0.0253
     40 H12        29.2111   -3.0253   51.4303 H         1 BIN         0.0570
     41 H13        30.7663   -2.2102   51.0514 H         1 BIN         0.0570
     42 H14        22.6844    1.1588   51.1791 H         1 BIN         0.0640
     43 H15        22.0965    2.7271   53.0882 H         1 BIN         0.0258
     44 H16        23.7840    3.3426   53.0962 H         1 BIN         0.0258
     45 H17        23.4476    1.6379   53.5516 H         1 BIN         0.0258
     46 H18        23.2035    2.6988   49.3515 H         1 BIN         0.0258
     47 H19        23.7622    3.9472   50.5160 H         1 BIN         0.0258
     48 H20        22.0274    3.4846   50.4586 H         1 BIN         0.0258
@<TRIPOS>BOND
     1    1    2 ar 
     2    1    6 ar 
     3    7    1 1  
     4    2    3 ar 
     5    2   28 1  
     6    3    4 ar 
     7    5    4 ar 
     8    6    5 ar 
     9    8    7 1  
    10    7   11 1  
    11    8   10 2  
    12   17    8 1  
    13   11    9 2  
    14    9   13 1  
    15   21    9 1  
    16   10   14 1  
    17   10   21 1  
    18   11   12 1  
    19   12   22 ar 
    20   12   23 ar 
    21   13   24 ar 
    22   13   25 ar 
    23   16   15 1  
    24   21   16 1  
    25   17   26 2  
    26   27   17 1  
    27   18   19 1  
    28   18   20 1  
    29   18   27 1  
    30    3   29 1  
    31    4   30 1  
    32    5   31 1  
    33    6   32 1  
    34    7   33 1  
    35   14   34 1  
    36   14   35 1  
    37   14   36 1  
    38   15   37 1  
    39   15   38 1  
    40   15   39 1  
    41   16   40 1  
    42   16   41 1  
    43   18   42 1  
    44   19   43 1  
    45   19   44 1  
    46   19   45 1  
    47   20   46 1  
    48   20   47 1  
    49   20   48 1  
@<TRIPOS>SUBSTRUCTURE
     1 BIN         1

