### 
### Created by X-TOOL on Mon Sep 10 21:13:04 2018
### 

@<TRIPOS>MOLECULE
3anq_ligand
   30    31     1     0     0
SMALL
GAST_HUCK


@<TRIPOS>ATOM
      1 N           5.7470   27.3360   12.0130 N.2       1 EHB        -0.2898
      2 O           6.5620   24.1970   14.7460 O.2       1 EHB        -0.3822
      3 S           7.5380   25.9660   12.9180 S.3       1 EHB         0.0896
      4 C1          8.2280   29.0220   10.0220 C.ar      1 EHB         0.1514
      5 C2          6.9930   28.7220   10.5240 C.ar      1 EHB         0.0305
      6 C3          6.8310   27.7120   11.4640 C.ar      1 EHB         0.1004
      7 C4          7.9220   26.9940   11.9120 C.ar      1 EHB         0.1343
      8 C5          9.1670   27.2980   11.4060 C.ar      1 EHB         0.0244
      9 C6          9.3210   28.3070   10.4630 C.ar      1 EHB         0.0369
     10 C7          6.0070   26.3110   12.8820 C.2       1 EHB         0.1743
     11 C8          5.0920   25.6410   13.6630 C.3       1 EHB         0.1232
     12 C9          5.3890   24.6200   14.5550 C.2       1 EHB         0.1353
     13 C10         4.2330   24.0200   15.3310 C.3       1 EHB         0.0148
     14 C11         4.4640   28.0720   11.6100 C.3       1 EHB         0.0150
     15 C12         3.1830   27.7330   12.2810 C.3       1 EHB        -0.0526
     16 O13         8.3630   30.0350    9.0840 O.3       1 EHB        -0.3002
     17 H           6.1231   29.2828   10.1822 H         1 EHB         0.0605
     18 H          10.0395   26.7417   11.7487 H         1 EHB         0.0749
     19 H          10.3118   28.5344   10.0697 H         1 EHB         0.1119
     20 H           4.4889   25.1243   12.9164 H         1 EHB         0.0923
     21 H           4.7376   26.4292   14.3273 H         1 EHB         0.0923
     22 H           4.1681   22.9532   15.1168 H         1 EHB         0.0462
     23 H           4.3976   24.1683   16.3982 H         1 EHB         0.0462
     24 H           3.3051   24.5086   15.0339 H         1 EHB         0.0462
     25 H           4.3080   27.8031   10.5653 H         1 EHB         0.0416
     26 H           4.6478   29.1130   11.8758 H         1 EHB         0.0416
     27 H           2.9532   26.6809   12.1123 H         1 EHB         0.0240
     28 H           3.2745   27.9192   13.3511 H         1 EHB         0.0240
     29 H           2.3845   28.3510   11.8703 H         1 EHB         0.0240
     30 H           7.5014   30.4165    8.9005 H         1 EHB         0.2689
@<TRIPOS>BOND
     1    1    6 1  
     2   10    1 2  
     3    1   14 1  
     4   12    2 2  
     5    3    7 1  
     6   10    3 1  
     7    5    4 ar 
     8    9    4 ar 
     9    4   16 1  
    10    6    5 ar 
    11    7    6 ar 
    12    7    8 ar 
    13    8    9 ar 
    14   11   10 1  
    15   11   12 1  
    16   12   13 1  
    17   14   15 1  
    18    5   17 1  
    19    8   18 1  
    20    9   19 1  
    21   11   20 1  
    22   11   21 1  
    23   13   22 1  
    24   13   23 1  
    25   13   24 1  
    26   14   25 1  
    27   14   26 1  
    28   15   27 1  
    29   15   28 1  
    30   15   29 1  
    31   16   30 1  
@<TRIPOS>SUBSTRUCTURE
     1 EHB         1

