### 
### Created by X-TOOL on Mon Sep 10 21:13:04 2018
### 

@<TRIPOS>MOLECULE
3anr_ligand
   28    30     1     0     0
SMALL
GAST_HUCK


@<TRIPOS>ATOM
      1 CAB         4.5020   25.2040   14.2410 C.3       1 HRM        -0.0178
      2 CAL         5.9850   25.2420   13.8740 C.ar      1 HRM         0.0447
      3 NAH         6.8340   24.3240   14.4600 N.ar      1 HRM        -0.3156
      4 CAC         8.1810   24.2600   14.1990 C.ar      1 HRM        -0.0159
      5 CAE         8.7420   25.1680   13.2880 C.ar      1 HRM        -0.0525
      6 CAO         7.8810   26.1270   12.6760 C.ar      1 HRM         0.0025
      7 CAP         6.5010   26.1610   12.9720 C.ar      1 HRM         0.0930
      8 NAI         5.9660   27.1510   12.2530 N.pl3     1 HRM        -0.2729
      9 CAM         6.9000   27.7250   11.5450 C.ar      1 HRM         0.0601
     10 CAG         6.7930   28.7750   10.6760 C.ar      1 HRM        -0.0108
     11 CAN         8.1250   27.1250   11.7640 C.ar      1 HRM        -0.0060
     12 CAF         9.3420   27.5510   11.1010 C.ar      1 HRM        -0.0710
     13 CAD         9.2400   28.6480   10.1800 C.ar      1 HRM        -0.0420
     14 CAK         7.9480   29.2400    9.9930 C.ar      1 HRM         0.0824
     15 OAJ         7.8320   30.3070    9.1000 O.3       1 HRM        -0.3238
     16 CAA         6.5460   31.0510    8.9910 C.3       1 HRM         0.0592
     17 H           4.2125   26.1598   14.6777 H         1 HRM         0.0403
     18 H           3.9116   25.0194   13.3436 H         1 HRM         0.0403
     19 H           4.3279   24.4058   14.9626 H         1 HRM         0.0403
     20 H           8.8050   23.5148   14.6923 H         1 HRM         0.0673
     21 H           9.8063   25.1414   13.0543 H         1 HRM         0.0591
     22 H           4.9813   27.4170   12.2566 H         1 HRM         0.2163
     23 H           5.8274   29.2522   10.5085 H         1 HRM         0.0454
     24 H          10.2952   27.0588   11.2937 H         1 HRM         0.0573
     25 H          10.1135   29.0172    9.6425 H         1 HRM         0.0468
     26 H           5.7555   30.3650    8.6868 H         1 HRM         0.0578
     27 H           6.2974   31.4879    9.9582 H         1 HRM         0.0578
     28 H           6.6475   31.8426    8.2486 H         1 HRM         0.0578
@<TRIPOS>BOND
     1    1    2 1  
     2    2    3 ar 
     3    2    7 ar 
     4    3    4 ar 
     5    4    5 ar 
     6    5    6 ar 
     7    6    7 ar 
     8    6   11 1  
     9    7    8 1  
    10    8    9 1  
    11    9   10 ar 
    12    9   11 ar 
    13   10   14 ar 
    14   11   12 ar 
    15   12   13 ar 
    16   13   14 ar 
    17   14   15 1  
    18   15   16 1  
    19    1   17 1  
    20    1   18 1  
    21    1   19 1  
    22    4   20 1  
    23    5   21 1  
    24    8   22 1  
    25   10   23 1  
    26   12   24 1  
    27   13   25 1  
    28   16   26 1  
    29   16   27 1  
    30   16   28 1  
@<TRIPOS>SUBSTRUCTURE
     1 HRM         1

