### 
### Created by X-TOOL on Mon Sep 10 21:13:07 2018
### 

@<TRIPOS>MOLECULE
3ans_ligand
   34    36     1     0     0
SMALL
GAST_HUCK


@<TRIPOS>ATOM
      1 C1         22.1520   26.6200  116.2450 C.ar      1 S38        -0.0221
      2 C2         22.1920   27.4510  115.1530 C.ar      1 S38         0.0992
      3 C3         23.2420   27.4270  114.2600 C.ar      1 S38        -0.0221
      4 C4         24.2840   26.5500  114.4630 C.ar      1 S38        -0.0315
      5 C5         24.2310   25.7190  115.5590 C.ar      1 S38         0.0580
      6 C6         23.1850   25.7410  116.4530 C.ar      1 S38        -0.0315
      7 C7         25.2970   24.7720  115.8550 C.2       1 S38         0.2109
      8 N8         25.8460   24.0730  114.8150 N.am      1 S38        -0.2796
      9 C9         26.5270   22.8670  115.1370 C.3       1 S38         0.0561
     10 C10        28.0240   22.8490  115.1950 C.3       1 S38         0.0180
     11 C11        27.3030   22.0600  114.1480 C.3       1 S38        -0.0131
     12 C12        28.7900   22.1510  116.2450 C.ar      1 S38        -0.0377
     13 C13        28.1980   21.6590  117.3890 C.ar      1 S38        -0.0600
     14 C14        28.9310   21.0150  118.3610 C.ar      1 S38        -0.0686
     15 C15        30.2860   20.8470  118.2050 C.ar      1 S38        -0.0687
     16 C16        30.8930   21.3350  117.0710 C.ar      1 S38        -0.0686
     17 C17        30.1490   21.9770  116.1070 C.ar      1 S38        -0.0600
     18 O18        25.6200   24.6670  117.0250 O.2       1 S38        -0.3812
     19 C19        21.1120   28.3460  114.9670 C.1       1 S38         0.1035
     20 N20        20.2440   29.1030  114.8260 N.1       1 S38        -0.3262
     21 H1         21.3157   26.6577  116.9336 H         1 S38         0.0727
     22 H2         23.2473   28.0932  113.4049 H         1 S38         0.0727
     23 H3         25.1235   26.5150  113.7781 H         1 S38         0.0690
     24 H4         23.1772   25.0746  117.3079 H         1 S38         0.0690
     25 H5         25.7718   24.3955  113.8713 H         1 S38         0.1852
     26 H6         25.9455   22.3360  115.9051 H         1 S38         0.0583
     27 H7         28.5731   23.7588  114.9109 H         1 S38         0.0485
     28 H8         27.3468   22.3752  113.0950 H         1 S38         0.0314
     29 H9         27.2869   20.9614  114.2016 H         1 S38         0.0314
     30 H10        27.1298   21.7821  117.5267 H         1 S38         0.0557
     31 H11        28.4382   20.6400  119.2507 H         1 S38         0.0599
     32 H12        30.8680   20.3374  118.9644 H         1 S38         0.0559
     33 H13        31.9617   21.2135  116.9360 H         1 S38         0.0599
     34 H14        30.6440   22.3540  115.2194 H         1 S38         0.0557
@<TRIPOS>BOND
     1    1    2 ar 
     2    1    6 ar 
     3    2    3 ar 
     4    2   19 1  
     5    3    4 ar 
     6    4    5 ar 
     7    5    6 ar 
     8    5    7 1  
     9    7    8 am 
    10    7   18 2  
    11    8    9 1  
    12    9   10 1  
    13    9   11 1  
    14   10   11 1  
    15   10   12 1  
    16   12   13 ar 
    17   12   17 ar 
    18   13   14 ar 
    19   14   15 ar 
    20   15   16 ar 
    21   16   17 ar 
    22   19   20 3  
    23    1   21 1  
    24    3   22 1  
    25    4   23 1  
    26    6   24 1  
    27    8   25 1  
    28    9   26 1  
    29   10   27 1  
    30   11   28 1  
    31   11   29 1  
    32   13   30 1  
    33   14   31 1  
    34   15   32 1  
    35   16   33 1  
    36   17   34 1  
@<TRIPOS>SUBSTRUCTURE
     1 S38         1

