### 
### Created by X-TOOL on Mon Sep 10 21:13:07 2018
### 

@<TRIPOS>MOLECULE
3ant_ligand
   52    55     1     0     0
SMALL
GAST_HUCK


@<TRIPOS>ATOM
      1 N1         24.2230   25.1070  116.2560 N.am      1 S82        -0.2591
      2 C2         25.4360   24.5360  116.5590 C.2       1 S82         0.2603
      3 N3         26.0590   23.8900  115.5220 N.am      1 S82        -0.2676
      4 C4         26.8300   22.7310  115.8000 C.3       1 S82         0.0568
      5 C5         28.3280   22.7740  115.8050 C.3       1 S82         0.0178
      6 C6         27.6020   22.0100  114.7430 C.3       1 S82        -0.0133
      7 C7         29.1500   22.0800  116.8130 C.ar      1 S82        -0.0377
      8 C8         28.6150   21.4890  117.9390 C.ar      1 S82        -0.0600
      9 C9         29.4000   20.8490  118.8740 C.ar      1 S82        -0.0686
     10 C10        30.7630   20.7910  118.6970 C.ar      1 S82        -0.0687
     11 C11        31.3180   21.3790  117.5820 C.ar      1 S82        -0.0686
     12 C12        30.5160   22.0100  116.6570 C.ar      1 S82        -0.0600
     13 O13        25.9190   24.5870  117.6800 O.2       1 S82        -0.4006
     14 C14        23.4080   25.5590  117.3480 C.3       1 S82         0.0371
     15 C15        23.5170   27.0600  117.4660 C.3       1 S82        -0.0111
     16 C16        23.0590   27.6900  116.1690 C.3       1 S82         0.0582
     17 C17        23.8150   27.1600  114.9660 C.3       1 S82        -0.0111
     18 C18        23.9220   25.6490  114.9540 C.3       1 S82         0.0371
     19 C19        21.5950   27.6060  116.0080 C.2       1 S82         0.2142
     20 N20        20.6590   27.6240  116.9280 N.2       1 S82        -0.2770
     21 C21        19.5230   27.5190  116.1700 C.2       1 S82         0.0798
     22 N22        19.7290   27.4420  114.8490 N.2       1 S82        -0.1447
     23 O23        21.1150   27.5020  114.7400 O.3       1 S82        -0.1476
     24 C24        18.1790   27.4960  116.7840 C.3       1 S82         0.0038
     25 C25        17.7000   26.0870  117.0460 C.3       1 S82        -0.0516
     26 C26        17.1570   28.2870  115.9980 C.3       1 S82        -0.0516
     27 H1         25.9716   24.2298  114.5856 H         1 S82         0.1850
     28 H2         26.3070   22.1442  116.5695 H         1 S82         0.0580
     29 H3         28.8298   23.7170  115.5424 H         1 S82         0.0484
     30 H4         27.5942   22.3807  113.7074 H         1 S82         0.0314
     31 H5         27.6329   20.9105  114.7386 H         1 S82         0.0314
     32 H6         27.5428   21.5292  118.0934 H         1 S82         0.0557
     33 H7         28.9449   20.3930  119.7458 H         1 S82         0.0599
     34 H8         31.3911   20.2898  119.4245 H         1 S82         0.0559
     35 H9         32.3910   21.3450  117.4318 H         1 S82         0.0599
     36 H10        30.9719   22.4630  115.7841 H         1 S82         0.0557
     37 H11        23.7531   25.0913  118.2819 H         1 S82         0.0521
     38 H12        22.3599   25.2804  117.1638 H         1 S82         0.0521
     39 H13        24.5625   27.3396  117.6629 H         1 S82         0.0318
     40 H14        22.8814   27.4123  118.2918 H         1 S82         0.0318
     41 H15        23.3030   28.7603  116.2389 H         1 S82         0.0577
     42 H16        24.8302   27.5834  114.9754 H         1 S82         0.0318
     43 H17        23.2919   27.4817  114.0534 H         1 S82         0.0318
     44 H18        22.9648   25.2302  114.6101 H         1 S82         0.0521
     45 H19        24.7214   25.3574  114.2569 H         1 S82         0.0521
     46 H20        18.2737   27.9881  117.7632 H         1 S82         0.0467
     47 H21        16.6993   26.1187  117.5017 H         1 S82         0.0254
     48 H22        18.3987   25.5835  117.7303 H         1 S82         0.0254
     49 H23        17.6532   25.5331  116.0968 H         1 S82         0.0254
     50 H24        17.5356   29.3052  115.8248 H         1 S82         0.0254
     51 H25        16.2164   28.3373  116.5660 H         1 S82         0.0254
     52 H26        16.9758   27.7938  115.0316 H         1 S82         0.0254
@<TRIPOS>BOND
     1    1    2 am 
     2    1   14 1  
     3    1   18 1  
     4    2    3 am 
     5    2   13 2  
     6    3    4 1  
     7    4    5 1  
     8    4    6 1  
     9    5    6 1  
    10    5    7 1  
    11    7    8 ar 
    12    7   12 ar 
    13    8    9 ar 
    14    9   10 ar 
    15   10   11 ar 
    16   11   12 ar 
    17   14   15 1  
    18   15   16 1  
    19   16   17 1  
    20   16   19 1  
    21   17   18 1  
    22   19   20 2  
    23   19   23 1  
    24   20   21 1  
    25   21   22 2  
    26   21   24 1  
    27   22   23 1  
    28   24   25 1  
    29   24   26 1  
    30    3   27 1  
    31    4   28 1  
    32    5   29 1  
    33    6   30 1  
    34    6   31 1  
    35    8   32 1  
    36    9   33 1  
    37   10   34 1  
    38   11   35 1  
    39   12   36 1  
    40   14   37 1  
    41   14   38 1  
    42   15   39 1  
    43   15   40 1  
    44   16   41 1  
    45   17   42 1  
    46   17   43 1  
    47   18   44 1  
    48   18   45 1  
    49   24   46 1  
    50   25   47 1  
    51   25   48 1  
    52   25   49 1  
    53   26   50 1  
    54   26   51 1  
    55   26   52 1  
@<TRIPOS>SUBSTRUCTURE
     1 S82         1

