### 
### Created by X-TOOL on Fri Sep 26 17:34:52 2014
### 

@<TRIPOS>MOLECULE
3ao1_ligand
   16    17     1     0     0
SMALL
GAST_HUCK


@<TRIPOS>ATOM
      1 C1         19.6760    8.1270   10.5730 C.ar      1 BZX        -0.0130
      2 C2         20.8500    7.7520   11.2100 C.ar      1 BZX         0.0676
      3 C3         22.1250    8.1560   10.7810 C.ar      1 BZX        -0.0532
      4 C4         22.2940    8.9750    9.6620 C.ar      1 BZX        -0.0497
      5 C5         21.1340    9.3620    9.0160 C.ar      1 BZX         0.1117
      6 C6         19.8210    8.9430    9.4710 C.ar      1 BZX         0.1152
      7 O7         18.8870    9.4690    8.6220 O.3       1 BZX        -0.2937
      8 C8         19.5820    9.9360    7.4590 C.3       1 BZX         0.1845
      9 O9         20.9380   10.1230    7.9060 O.3       1 BZX        -0.2984
     10 O10        20.7400    6.9580   12.2930 O.3       1 BZX        -0.3430
     11 H1         18.7033    7.7983   10.9207 H         1 BZX         0.0436
     12 H2         22.9983    7.8245   11.3311 H         1 BZX         0.0422
     13 H3         23.2742    9.2880    9.3210 H         1 BZX         0.0483
     14 H4         19.1542   10.8853    7.1044 H         1 BZX         0.0969
     15 H5         19.5371    9.1896    6.6523 H         1 BZX         0.0969
     16 H6         19.8227    6.7727   12.4565 H         1 BZX         0.2443
@<TRIPOS>BOND
     1    1    2 ar 
     2    1    6 ar 
     3    2    3 ar 
     4    2   10 1  
     5    3    4 ar 
     6    4    5 ar 
     7    5    6 ar 
     8    5    9 1  
     9    6    7 1  
    10    7    8 1  
    11    8    9 1  
    12    1   11 1  
    13    3   12 1  
    14    4   13 1  
    15    8   14 1  
    16    8   15 1  
    17   10   16 1  
@<TRIPOS>SUBSTRUCTURE
     1 BZX         1

