### 
### Created by X-TOOL on Mon Sep 10 21:13:06 2018
### 

@<TRIPOS>MOLECULE
3ao2_ligand
   27    29     1     0     0
SMALL
GAST_HUCK


@<TRIPOS>ATOM
      1 C1          8.5180  -22.2800   -5.6960 C.ar      1 AVX        -0.0315
      2 C2          9.6330  -22.2010   -6.5780 C.ar      1 AVX        -0.0360
      3 C3         10.6110  -21.2110   -6.4820 C.ar      1 AVX        -0.0642
      4 C4         10.5430  -20.2270   -5.5330 C.ar      1 AVX         0.0342
      5 C5          9.4210  -20.2350   -4.6000 C.ar      1 AVX         0.1348
      6 C6          8.4270  -21.2810   -4.7080 C.ar      1 AVX         0.1268
      7 O7          7.5400  -21.0060   -3.7100 O.3       1 AVX        -0.2899
      8 C8          7.9950  -19.9210   -2.8750 C.3       1 AVX         0.1882
      9 O9          9.1330  -19.3870   -3.5670 O.3       1 AVX        -0.2876
     10 C10         9.9500  -23.1890   -7.6470 C.2       1 AVX         0.0048
     11 N11        11.2490  -23.6360   -7.7740 N.2       1 AVX        -0.2404
     12 N12        11.2570  -24.5530   -8.8270 N.pl3     1 AVX        -0.1966
     13 C13        10.0070  -24.6320   -9.2800 C.2       1 AVX         0.1510
     14 C14         9.1160  -23.8120   -8.5900 C.2       1 AVX        -0.0319
     15 BR15       11.8100  -18.8850   -5.3540 Br        1 AVX        -0.0608
     16 C16        12.5700  -25.1820   -9.1680 C.3       1 AVX         0.0578
     17 N17         9.6610  -25.4450  -10.3170 N.pl3     1 AVX        -0.3098
     18 H1          7.7782  -23.0678   -5.7807 H         1 AVX         0.0529
     19 H2         11.4443  -21.2212   -7.1752 H         1 AVX         0.0530
     20 H3          8.2835  -20.2908   -1.8800 H         1 AVX         0.0976
     21 H4          7.2109  -19.1569   -2.7690 H         1 AVX         0.0976
     22 H5          8.0452  -23.6862   -8.7431 H         1 AVX         0.0169
     23 H6         12.4355  -25.8785  -10.0087 H         1 AVX         0.0589
     24 H7         12.9514  -25.7311   -8.2945 H         1 AVX         0.0589
     25 H8         13.2889  -24.3993   -9.4517 H         1 AVX         0.0589
     26 H9          8.6836  -25.4798  -10.6402 H         1 AVX         0.1782
     27 H10        10.3768  -26.0248  -10.7778 H         1 AVX         0.1782
@<TRIPOS>BOND
     1    1    2 ar 
     2    1    6 ar 
     3    2    3 ar 
     4    2   10 1  
     5    3    4 ar 
     6    4    5 ar 
     7    4   15 1  
     8    5    6 ar 
     9    5    9 1  
    10    6    7 1  
    11    7    8 1  
    12    8    9 1  
    13   10   11 2  
    14   10   14 1  
    15   11   12 1  
    16   12   13 1  
    17   12   16 1  
    18   13   14 2  
    19   13   17 1  
    20    1   18 1  
    21    3   19 1  
    22    8   20 1  
    23    8   21 1  
    24   14   22 1  
    25   16   23 1  
    26   16   24 1  
    27   16   25 1  
    28   17   26 1  
    29   17   27 1  
@<TRIPOS>SUBSTRUCTURE
     1 AVX         1

