### 
### Created by X-TOOL on Mon Sep 10 21:13:07 2018
### 

@<TRIPOS>MOLECULE
3ao4_ligand
   27    29     1     0     0
SMALL
GAST_HUCK


@<TRIPOS>ATOM
      1 C1         -0.6520   11.6500   -6.5400 C.ar      1 833        -0.0342
      2 C2         -0.8490   10.4700   -5.7750 C.ar      1 833        -0.0388
      3 C3         -1.5910   10.5010   -4.5500 C.ar      1 833        -0.0738
      4 C4         -2.1620   11.6710   -4.0350 C.ar      1 833        -0.0397
      5 C5         -1.9850   12.8300   -4.7640 C.ar      1 833         0.1245
      6 C6         -1.2370   12.8160   -6.0400 C.ar      1 833         0.1240
      7 O7         -1.2350   14.1090   -6.5130 O.3       1 833        -0.2908
      8 C8         -2.0680   14.9240   -5.6440 C.3       1 833         0.1873
      9 O9         -2.3960   14.1190   -4.5040 O.3       1 833        -0.2900
     10 C10        -0.2840    9.1620   -6.2260 C.2       1 833         0.0041
     11 C11        -0.0680    8.0430   -5.4000 C.2       1 833        -0.0320
     12 C12         0.4600    7.0540   -6.2300 C.2       1 833         0.1510
     13 N13         0.5620    7.4950   -7.4820 N.pl3     1 833        -0.1966
     14 N14         0.1080    8.8360   -7.5070 N.2       1 833        -0.2405
     15 N15         0.8210    5.7850   -5.8370 N.pl3     1 833        -0.3098
     16 C16         1.0560    6.9050   -8.7640 C.3       1 833         0.0578
     17 H1         -0.0796   11.6463   -7.4606 H         1 833         0.0507
     18 H2         -1.7160    9.5771   -3.9970 H         1 833         0.0503
     19 H3         -2.7186   11.6670   -3.1048 H         1 833         0.0514
     20 H4         -2.9855   15.2233   -6.1719 H         1 833         0.0974
     21 H5         -1.5179   15.8222   -5.3267 H         1 833         0.0974
     22 H6         -0.2712    7.9653   -4.3329 H         1 833         0.0169
     23 H7          0.7184    5.5022   -4.8519 H         1 833         0.1782
     24 H8          1.1937    5.1183   -6.5281 H         1 833         0.1782
     25 H9          0.9518    7.6442   -9.5719 H         1 833         0.0589
     26 H10         0.4649    6.0099   -9.0075 H         1 833         0.0589
     27 H11         2.1148    6.6270   -8.6558 H         1 833         0.0589
@<TRIPOS>BOND
     1    1    2 ar 
     2    1    6 ar 
     3    2    3 ar 
     4    2   10 1  
     5    3    4 ar 
     6    4    5 ar 
     7    5    6 ar 
     8    5    9 1  
     9    6    7 1  
    10    7    8 1  
    11    8    9 1  
    12   10   11 1  
    13   10   14 2  
    14   11   12 2  
    15   12   13 1  
    16   12   15 1  
    17   13   14 1  
    18   13   16 1  
    19    1   17 1  
    20    3   18 1  
    21    4   19 1  
    22    8   20 1  
    23    8   21 1  
    24   11   22 1  
    25   15   23 1  
    26   15   24 1  
    27   16   25 1  
    28   16   26 1  
    29   16   27 1  
@<TRIPOS>SUBSTRUCTURE
     1 833         1

