### 
### Created by X-TOOL on Mon Sep 10 21:13:08 2018
### 

@<TRIPOS>MOLECULE
3ao5_ligand
   27    29     1     0     0
SMALL
GAST_HUCK


@<TRIPOS>ATOM
      1 C1         14.9450  -10.0780   -5.7960 C.ar      1 BBY        -0.0277
      2 C2         14.3810   -9.2090   -6.7500 C.ar      1 BBY        -0.0081
      3 C3         13.0470   -8.7730   -6.6830 C.ar      1 BBY        -0.0600
      4 C4         12.1860   -9.1890   -5.6720 C.ar      1 BBY         0.0357
      5 C5         12.7530  -10.0970   -4.6580 C.ar      1 BBY         0.1362
      6 C6         14.1370  -10.5180   -4.7580 C.ar      1 BBY         0.1279
      7 O7         14.3840  -11.3570   -3.7090 O.3       1 BBY        -0.2896
      8 C8         13.1300  -11.6490   -3.0480 C.3       1 BBY         0.1885
      9 O9         12.1950  -10.6810   -3.5620 O.3       1 BBY        -0.2866
     10 C10        15.2360   -8.7130   -7.8650 C.2       1 BBY         0.0738
     11 N11        15.1040   -7.5430   -8.5250 N.pl3     1 BBY        -0.2233
     12 N12        16.0820   -7.3810   -9.5150 N.2       1 BBY        -0.2225
     13 C13        16.7910   -8.5140   -9.3860 C.2       1 BBY         0.0807
     14 C14        16.3390   -9.3730   -8.4020 C.2       1 BBY        -0.0241
     15 BR15       10.3970   -8.6090   -5.5840 Br        1 BBY        -0.0603
     16 C16        14.1460   -6.4130   -8.4300 C.3       1 BBY         0.0525
     17 N17        17.8660   -8.7930  -10.1640 N.pl3     1 BBY        -0.3375
     18 H1         15.9794  -10.3935   -5.8707 H         1 BBY         0.0536
     19 H2         12.6775   -8.0923   -7.4414 H         1 BBY         0.0542
     20 H3         13.2349  -11.5424   -1.9582 H         1 BBY         0.0977
     21 H4         12.7975  -12.6701   -3.2863 H         1 BBY         0.0977
     22 H5         16.7492  -10.3398   -8.1139 H         1 BBY         0.0307
     23 H6         14.4099   -5.6452   -9.1722 H         1 BBY         0.0584
     24 H7         14.1910   -5.9780   -7.4207 H         1 BBY         0.0584
     25 H8         13.1273   -6.7784   -8.6268 H         1 BBY         0.0584
     26 H9         18.3824   -9.6744  -10.0320 H         1 BBY         0.1678
     27 H10        18.1662   -8.1235  -10.8869 H         1 BBY         0.1678
@<TRIPOS>BOND
     1    1    2 ar 
     2    1    6 ar 
     3    2    3 ar 
     4    2   10 1  
     5    3    4 ar 
     6    4    5 ar 
     7    4   15 1  
     8    5    6 ar 
     9    5    9 1  
    10    6    7 1  
    11    7    8 1  
    12    8    9 1  
    13   10   11 1  
    14   10   14 2  
    15   11   12 1  
    16   11   16 1  
    17   12   13 2  
    18   13   14 1  
    19   13   17 1  
    20    1   18 1  
    21    3   19 1  
    22    8   20 1  
    23    8   21 1  
    24   14   22 1  
    25   16   23 1  
    26   16   24 1  
    27   16   25 1  
    28   17   26 1  
    29   17   27 1  
@<TRIPOS>SUBSTRUCTURE
     1 BBY         1

