### 
### Created by X-TOOL on Mon Sep 10 21:13:06 2018
### 

@<TRIPOS>MOLECULE
3ap4_ligand
   45    46     1     0     0
SMALL
GAST_HUCK


@<TRIPOS>ATOM
      1 C1         23.4030   29.6820   23.4140 C.3       1 LBT         0.1884
      2 C2         22.9480   30.9370   24.2170 C.3       1 LBT         0.1341
      3 C3         21.4280   31.1640   23.9640 C.3       1 LBT         0.1141
      4 C4         21.1200   31.1730   22.4370 C.3       1 LBT         0.1119
      5 C5         21.7310   29.9110   21.7820 C.3       1 LBT         0.1130
      6 C6         21.4970   29.9190   20.2540 C.3       1 LBT         0.0730
      7 O1         24.8190   29.6450   23.4570 O.3       1 LBT        -0.3401
      8 O2         23.0960   30.7080   25.5930 O.3       1 LBT        -0.3841
      9 O3         20.9460   32.3990   24.4760 O.3       1 LBT        -0.3864
     10 O4         21.6250   32.3030   21.7680 O.3       1 LBT        -0.3865
     11 O5         23.1340   29.8220   22.0300 O.3       1 LBT        -0.3405
     12 O6         21.9810   28.7820   19.6070 O.3       1 LBT        -0.3924
     13 C1'        27.6800   26.6120   22.5180 C.3       1 LBT         0.1854
     14 C2'        27.4070   27.7630   21.4890 C.3       1 LBT         0.1339
     15 C3'        26.7350   28.9820   22.1720 C.3       1 LBT         0.1144
     16 C4'        25.4830   28.4860   22.9170 C.3       1 LBT         0.1184
     17 C5'        25.9790   27.5430   24.0490 C.3       1 LBT         0.1134
     18 C6'        24.8020   26.9260   24.8490 C.3       1 LBT         0.0730
     19 O1'        28.9030   26.6730   23.1700 O.3       1 LBT        -0.3649
     20 O2'        28.5880   28.2400   20.8750 O.3       1 LBT        -0.3841
     21 O3'        26.3040   29.8730   21.1780 O.3       1 LBT        -0.3864
     22 O5'        26.6920   26.4210   23.5190 O.3       1 LBT        -0.3407
     23 O6'        23.8770   26.2660   24.0270 O.3       1 LBT        -0.3924
     24 H1         22.9453   28.7701   23.8250 H         1 LBT         0.0938
     25 H2         23.5316   31.8166   23.9076 H         1 LBT         0.0671
     26 H3         20.8771   30.3415   24.4435 H         1 LBT         0.0648
     27 H4         20.0277   31.1541   22.3084 H         1 LBT         0.0647
     28 H5         21.2397   29.0259   22.2122 H         1 LBT         0.0647
     29 H6         22.0003   30.8005   19.8301 H         1 LBT         0.0584
     30 H7         20.4151   29.9900   20.0686 H         1 LBT         0.0584
     31 H8         24.0137   30.5639   25.7920 H         1 LBT         0.2101
     32 H9         20.0117   32.4635   24.3167 H         1 LBT         0.2100
     33 H10        21.3829   32.2608   20.8504 H         1 LBT         0.2100
     34 H11        22.9176   28.7122   19.7500 H         1 LBT         0.2095
     35 H12        27.6922   25.6929   21.9138 H         1 LBT         0.0935
     36 H13        26.7359   27.3701   20.7110 H         1 LBT         0.0671
     37 H14        27.4347   29.4748   22.8631 H         1 LBT         0.0648
     38 H15        24.8078   27.9441   22.2384 H         1 LBT         0.0651
     39 H16        26.6299   28.1175   24.7244 H         1 LBT         0.0647
     40 H17        24.2820   27.7317   25.3879 H         1 LBT         0.0584
     41 H18        25.2083   26.2037   25.5723 H         1 LBT         0.0584
     42 H19        29.5949   26.8009   22.5317 H         1 LBT         0.2126
     43 H20        28.3643   28.9054   20.2349 H         1 LBT         0.2101
     44 H21        25.7180   29.4215   20.5820 H         1 LBT         0.2100
     45 H22        23.5137   26.8827   23.4023 H         1 LBT         0.2095
@<TRIPOS>BOND
     1    1    2 1  
     2    7    1 1  
     3    1   11 1  
     4    2    3 1  
     5    2    8 1  
     6    3    4 1  
     7    3    9 1  
     8    5    4 1  
     9    4   10 1  
    10    5    6 1  
    11   11    5 1  
    12    6   12 1  
    13   16    7 1  
    14   14   13 1  
    15   13   19 1  
    16   13   22 1  
    17   15   14 1  
    18   14   20 1  
    19   15   16 1  
    20   15   21 1  
    21   16   17 1  
    22   17   18 1  
    23   17   22 1  
    24   18   23 1  
    25    1   24 1  
    26    2   25 1  
    27    3   26 1  
    28    4   27 1  
    29    5   28 1  
    30    6   29 1  
    31    6   30 1  
    32    8   31 1  
    33    9   32 1  
    34   10   33 1  
    35   12   34 1  
    36   13   35 1  
    37   14   36 1  
    38   15   37 1  
    39   16   38 1  
    40   17   39 1  
    41   18   40 1  
    42   18   41 1  
    43   19   42 1  
    44   20   43 1  
    45   21   44 1  
    46   23   45 1  
@<TRIPOS>SUBSTRUCTURE
     1 LBT         1

