### 
### Created by X-TOOL on Mon Sep 10 21:13:05 2018
### 

@<TRIPOS>MOLECULE
3ap7_ligand
   81    83     1     0     0
SMALL
GAST_HUCK


@<TRIPOS>ATOM
      1 C1         18.4710   25.1360   42.7310 C.3       1 LAT         0.1884
      2 C2         18.7550   23.7830   42.1130 C.3       1 LAT         0.1344
      3 C3         20.0340   23.8210   41.2860 C.3       1 LAT         0.1197
      4 C4         20.0280   25.0080   40.3260 C.3       1 LAT         0.1121
      5 C5         19.6720   26.2950   41.0700 C.3       1 LAT         0.1130
      6 C6         19.6180   27.5110   40.1590 C.3       1 LAT         0.0730
      7 O1         17.1940   25.0610   43.3670 O.3       1 LAT        -0.3401
      8 O2         18.8530   22.7980   43.1500 O.3       1 LAT        -0.3841
      9 O3         20.1500   22.6110   40.5180 O.3       1 LAT        -0.3380
     10 O4         19.0890   24.7530   39.2690 O.3       1 LAT        -0.3865
     11 O5         18.4170   26.1260   41.7010 O.3       1 LAT        -0.3405
     12 O6         19.3350   28.6600   40.9670 O.3       1 LAT        -0.3924
     13 C1'        15.1270   27.4550   46.0830 C.3       1 LAT         0.1854
     14 C2'        14.8590   27.7210   44.6000 C.3       1 LAT         0.1339
     15 C3'        15.3710   26.5670   43.7390 C.3       1 LAT         0.1144
     16 C4'        16.8130   26.2280   44.0980 C.3       1 LAT         0.1184
     17 C5'        16.9500   25.9990   45.6030 C.3       1 LAT         0.1134
     18 C6'        18.3820   25.7180   46.0460 C.3       1 LAT         0.0730
     19 O1'        14.7860   28.6040   46.8750 O.3       1 LAT        -0.3649
     20 O2'        13.4570   27.8560   44.3810 O.3       1 LAT        -0.3841
     21 O3'        15.2760   26.9020   42.3450 O.3       1 LAT        -0.3864
     22 O5'        16.5100   27.1790   46.2790 O.3       1 LAT        -0.3407
     23 O6'        19.2210   26.8340   45.7170 O.3       1 LAT        -0.3924
     24 C1         22.5450   22.3780   40.6550 C.2       1 SIA         0.1041
     25 C2         21.1970   21.7190   40.8830 C.3       1 SIA         0.2208
     26 C3         21.0170   20.4690   40.0160 C.3       1 SIA         0.0353
     27 C4         21.8330   19.2770   40.5140 C.3       1 SIA         0.0850
     28 C5         21.6140   19.0260   42.0040 C.3       1 SIA         0.0964
     29 C6         21.8800   20.3370   42.7490 C.3       1 SIA         0.1143
     30 C7         21.6860   20.2490   44.2580 C.3       1 SIA         0.1114
     31 C8         21.8470   21.6100   44.9320 C.3       1 SIA         0.1065
     32 C9         22.0650   21.4410   46.4310 C.3       1 SIA         0.0727
     33 C10        22.0140   16.8390   43.0040 C.2       1 SIA         0.1733
     34 C11        22.9410   15.7350   43.4200 C.3       1 SIA         0.0257
     35 N5         22.5100   17.9570   42.4550 N.am      1 SIA        -0.2790
     36 O1A        23.0420   22.3960   39.4990 O.co2     1 SIA        -0.5426
     37 O1B        23.1400   22.8890   41.6400 O.co2     1 SIA        -0.5426
     38 O4         21.4600   18.1110   39.7570 O.3       1 SIA        -0.3893
     39 O6         21.0070   21.3690   42.2620 O.3       1 SIA        -0.3384
     40 O7         20.3690   19.7660   44.5390 O.3       1 SIA        -0.3865
     41 O8         22.9490   22.3350   44.3630 O.3       1 SIA        -0.3869
     42 O9         21.8340   22.6920   47.0970 O.3       1 SIA        -0.3924
     43 O10        20.8110   16.7140   43.1660 O.2       1 SIA        -0.3974
     44 H1         19.2507   25.3938   43.4629 H         1 LAT         0.0938
     45 H2         17.9193   23.5159   41.4495 H         1 LAT         0.0671
     46 H3         20.8959   23.9085   41.9639 H         1 LAT         0.0650
     47 H4         21.0319   25.1204   39.8907 H         1 LAT         0.0647
     48 H5         20.4389   26.4741   41.8380 H         1 LAT         0.0647
     49 H6         18.8255   27.3792   39.4077 H         1 LAT         0.0584
     50 H7         20.5857   27.6407   39.6524 H         1 LAT         0.0584
     51 H8         18.9937   21.9429   42.7607 H         1 LAT         0.2101
     52 H9         19.1023   25.4766   38.6537 H         1 LAT         0.2100
     53 H10        18.5001   28.5405   41.4042 H         1 LAT         0.2095
     54 H11        14.5270   26.5928   46.4095 H         1 LAT         0.0935
     55 H12        15.3687   28.6498   44.3041 H         1 LAT         0.0671
     56 H13        14.7449   25.6832   43.9313 H         1 LAT         0.0648
     57 H14        17.4653   27.0648   43.8076 H         1 LAT         0.0651
     58 H15        16.3164   25.1465   45.8890 H         1 LAT         0.0647
     59 H16        18.7531   24.8186   45.5328 H         1 LAT         0.0584
     60 H17        18.4022   25.5543   47.1335 H         1 LAT         0.0584
     61 H18        14.9571   28.4181   47.7908 H         1 LAT         0.2126
     62 H19        13.2972   28.0386   43.4625 H         1 LAT         0.2101
     63 H20        15.8285   27.6531   42.1626 H         1 LAT         0.2100
     64 H21        20.1110   26.6526   45.9954 H         1 LAT         0.2095
     65 H22        21.3325   20.7057   38.9891 H         1 LAT         0.0336
     66 H23        19.9527   20.1909   40.0178 H         1 LAT         0.0336
     67 H24        22.9003   19.4860   40.3489 H         1 LAT         0.0618
     68 H25        20.5730   18.7159   42.1778 H         1 LAT         0.0608
     69 H26        22.9227   20.6272   42.5529 H         1 LAT         0.0646
     70 H27        22.4301   19.5526   44.6718 H         1 LAT         0.0647
     71 H28        20.9254   22.1890   44.7725 H         1 LAT         0.0643
     72 H29        23.0988   21.1138   46.6157 H         1 LAT         0.0584
     73 H30        21.3663   20.6854   46.8194 H         1 LAT         0.0584
     74 H31        22.3564   14.9064   43.8462 H         1 LAT         0.0467
     75 H32        23.6457   16.1130   44.1753 H         1 LAT         0.0467
     76 H33        23.5005   15.3761   42.5435 H         1 LAT         0.0467
     77 H34        23.4991   18.0625   42.3523 H         1 LAT         0.1856
     78 H35        21.5998   18.2772   38.8322 H         1 LAT         0.2099
     79 H36        20.2492   18.9182   44.1272 H         1 LAT         0.2100
     80 H37        22.8100   22.4385   43.4290 H         1 LAT         0.2100
     81 H38        21.9708   22.5824   48.0306 H         1 LAT         0.2095
@<TRIPOS>BOND
     1    2    1 1  
     2    1    7 1  
     3    1   11 1  
     4    3    2 1  
     5    2    8 1  
     6    3    4 1  
     7    9    3 1  
     8    4    5 1  
     9    4   10 1  
    10    5    6 1  
    11    5   11 1  
    12    6   12 1  
    13    7   16 1  
    14   25    9 1  
    15   14   13 1  
    16   13   19 1  
    17   22   13 1  
    18   15   14 1  
    19   14   20 1  
    20   16   15 1  
    21   15   21 1  
    22   16   17 1  
    23   17   18 1  
    24   17   22 1  
    25   18   23 1  
    26   25   24 1  
    27   24   36 ar 
    28   24   37 ar 
    29   26   25 1  
    30   39   25 1  
    31   27   26 1  
    32   28   27 1  
    33   27   38 1  
    34   28   29 1  
    35   35   28 1  
    36   29   30 1  
    37   29   39 1  
    38   30   31 1  
    39   30   40 1  
    40   31   32 1  
    41   31   41 1  
    42   32   42 1  
    43   33   34 1  
    44   33   35 am 
    45   33   43 2  
    46    1   44 1  
    47    2   45 1  
    48    3   46 1  
    49    4   47 1  
    50    5   48 1  
    51    6   49 1  
    52    6   50 1  
    53    8   51 1  
    54   10   52 1  
    55   12   53 1  
    56   13   54 1  
    57   14   55 1  
    58   15   56 1  
    59   16   57 1  
    60   17   58 1  
    61   18   59 1  
    62   18   60 1  
    63   19   61 1  
    64   20   62 1  
    65   21   63 1  
    66   23   64 1  
    67   26   65 1  
    68   26   66 1  
    69   27   67 1  
    70   28   68 1  
    71   29   69 1  
    72   30   70 1  
    73   31   71 1  
    74   32   72 1  
    75   32   73 1  
    76   34   74 1  
    77   34   75 1  
    78   34   76 1  
    79   35   77 1  
    80   38   78 1  
    81   40   79 1  
    82   41   80 1  
    83   42   81 1  
@<TRIPOS>SUBSTRUCTURE
     1 LAT         1

