### 
### Created by X-TOOL on Mon Sep 10 21:13:08 2018
### 

@<TRIPOS>MOLECULE
3apc_ligand
   43    46     1     0     0
SMALL
GAST_HUCK


@<TRIPOS>ATOM
      1 C1        118.7450   14.2410   29.9690 C.3       1 MMD         0.0554
      2 C2        119.2220   13.8600   28.5660 C.3       1 MMD         0.0681
      3 O3        118.8620   12.4860   28.3400 O.3       1 MMD        -0.3757
      4 C4        117.4280   12.4140   28.1630 C.3       1 MMD         0.0681
      5 C5        116.7130   12.7510   29.4710 C.3       1 MMD         0.0554
      6 N6        117.3130   13.9240   30.1370 N.pl3     1 MMD        -0.2789
      7 C7        116.5080   14.7410   30.9220 C.ar      1 MMD         0.1660
      8 N8        115.2500   14.3600   31.1880 N.ar      1 MMD        -0.2721
      9 N9        116.9970   15.8940   31.4000 N.ar      1 MMD        -0.2540
     10 C10       116.2330   16.6910   32.1630 C.ar      1 MMD         0.1641
     11 N11       116.4970   17.8730   32.7180 N.am      1 MMD        -0.1121
     12 S12       117.8480   18.7400   32.3850 S.o2      1 MMD         0.0884
     13 C13       117.6400   19.3780   30.7430 C.3       1 MMD         0.0879
     14 O14       119.0920   17.9130   32.4470 O.2       1 MMD        -0.1409
     15 O15       117.9630   19.8670   33.3580 O.2       1 MMD        -0.1409
     16 C16       115.3720   18.4030   33.4980 C.2       1 MMD         0.0606
     17 C17       114.2620   17.3730   33.3040 C.2       1 MMD        -0.0622
     18 C18       114.9210   16.3130   32.4390 C.ar      1 MMD         0.0120
     19 C19       114.4220   15.1070   31.9450 C.ar      1 MMD         0.0440
     20 C20       113.1200   14.6260   32.1800 C.ar      1 MMD         0.0384
     21 C21       112.6060   13.5970   31.3850 C.ar      1 MMD         0.0281
     22 N22       111.3880   13.1180   31.5870 N.ar      1 MMD        -0.2476
     23 C23       110.6180   13.6190   32.5690 C.ar      1 MMD         0.1950
     24 N24       109.3910   13.1390   32.7630 N.pl3     1 MMD        -0.3005
     25 N27       111.0850   14.6080   33.3550 N.ar      1 MMD        -0.2476
     26 C28       112.3020   15.1170   33.1930 C.ar      1 MMD         0.0281
     27 H         118.8879   15.3122   30.1111 H         1 MMD         0.0546
     28 H         119.3196   13.6753   30.7024 H         1 MMD         0.0546
     29 H         120.3014   13.9877   28.4846 H         1 MMD         0.0580
     30 H         118.7552   14.5022   27.8192 H         1 MMD         0.0580
     31 H         117.1577   11.4022   27.8607 H         1 MMD         0.0580
     32 H         117.1278   13.1312   27.3990 H         1 MMD         0.0580
     33 H         116.8008   11.8949   30.1400 H         1 MMD         0.0546
     34 H         115.6723   12.9814   29.2432 H         1 MMD         0.0546
     35 H         118.4998   19.9954   30.4828 H         1 MMD         0.0497
     36 H         117.5603   18.5490   30.0398 H         1 MMD         0.0497
     37 H         116.7325   19.9803   30.7009 H         1 MMD         0.0497
     38 H         115.3371   19.3224   34.0825 H         1 MMD         0.0939
     39 H         113.2437   17.3935   33.6921 H         1 MMD         0.0236
     40 H         113.2187   13.1817   30.5848 H         1 MMD         0.0938
     41 H         109.0356   12.3916   32.1668 H         1 MMD         0.1844
     42 H         108.8066   13.5188   33.5078 H         1 MMD         0.1844
     43 H         112.6565   15.9126   33.8483 H         1 MMD         0.0938
@<TRIPOS>BOND
     1    1    2 1  
     2    1    6 1  
     3    2    3 1  
     4    3    4 1  
     5    4    5 1  
     6    5    6 1  
     7    6    7 1  
     8    7    8 ar 
     9    7    9 ar 
    10    8   19 ar 
    11    9   10 ar 
    12   10   11 1  
    13   10   18 ar 
    14   11   12 am 
    15   11   16 1  
    16   12   13 1  
    17   12   14 2  
    18   12   15 2  
    19   16   17 2  
    20   17   18 1  
    21   18   19 ar 
    22   19   20 1  
    23   20   21 ar 
    24   20   26 ar 
    25   21   22 ar 
    26   22   23 ar 
    27   23   24 1  
    28   23   25 ar 
    29   25   26 ar 
    30    1   27 1  
    31    1   28 1  
    32    2   29 1  
    33    2   30 1  
    34    4   31 1  
    35    4   32 1  
    36    5   33 1  
    37    5   34 1  
    38   13   35 1  
    39   13   36 1  
    40   13   37 1  
    41   16   38 1  
    42   17   39 1  
    43   21   40 1  
    44   24   41 1  
    45   24   42 1  
    46   26   43 1  
@<TRIPOS>SUBSTRUCTURE
     1 MMD         1

