### 
### Created by X-TOOL on Mon Sep 10 21:13:06 2018
### 

@<TRIPOS>MOLECULE
3aqa_ligand
   40    43     1     0     0
SMALL
GAST_HUCK


@<TRIPOS>ATOM
      1 CAA        11.2490   -8.4980   36.0140 C.3       1 BYH         0.0176
      2 SAB         9.5090   -6.4700   34.3110 S.3       1 BYH         0.0047
      3 CAC        15.5250   -4.0930   32.8810 C.ar      1 BYH        -0.0766
      4 CAD        14.7150   -4.3790   34.0270 C.ar      1 BYH        -0.0786
      5 CAE        12.3160  -12.0270   33.2810 C.ar      1 BYH        -0.0147
      6 CAF        11.7890  -11.8860   31.9640 C.ar      1 BYH        -0.0139
      7 CAG        15.0270   -4.2890   31.5520 C.ar      1 BYH        -0.0422
      8 CAH        13.3980   -4.8760   33.8680 C.ar      1 BYH        -0.0655
      9 CAI        12.0890  -11.0350   34.2630 C.ar      1 BYH         0.0081
     10 CAJ        11.0190  -10.7450   31.6060 C.ar      1 BYH         0.0209
     11 CAK         9.1770   -6.6050   30.9020 C.3       1 BYH         0.0447
     12 CAL         9.3830   -8.1120   31.2330 C.3       1 BYH         0.0822
     13 NAM        12.9560   -5.0730   30.3290 N.pl3     1 BYH        -0.2372
     14 NAN        11.7390   -5.5300   32.1180 N.2       1 BYH        -0.3081
     15 SAO        10.4850   -6.0480   29.7380 S.3       1 BYH        -0.0335
     16 CAP        11.7820   -5.5240   30.7860 C.2       1 BYH         0.1852
     17 CAQ        10.1860   -7.9870   33.7540 C.2       1 BYH         0.2657
     18 CAR        13.6990   -4.7850   31.4040 C.ar      1 BYH         0.0791
     19 CAS        12.8960   -5.0820   32.5530 C.ar      1 BYH         0.0215
     20 CAT        11.3030   -9.8670   33.8990 C.ar      1 BYH         0.1237
     21 CAU        10.7680   -9.7250   32.5650 C.ar      1 BYH         0.1552
     22 NAV        10.9200   -8.7890   34.5660 N.2       1 BYH        -0.2637
     23 NAW        10.0870   -8.5660   32.5100 N.pl3     1 BYH        -0.1713
     24 H1         10.8031   -7.5354   36.3050 H         1 BYH         0.0422
     25 H2         12.3407   -8.4492   36.1393 H         1 BYH         0.0422
     26 H3         10.8422   -9.2977   36.6503 H         1 BYH         0.0422
     27 H4          9.0029   -6.0324   33.5571 H         1 BYH         0.1547
     28 H5         16.5335   -3.7214   33.0218 H         1 BYH         0.0528
     29 H6         15.1121   -4.2142   35.0221 H         1 BYH         0.0516
     30 H7         12.8983  -12.9059   33.5330 H         1 BYH         0.0678
     31 H8         11.9774  -12.6577   31.2264 H         1 BYH         0.1033
     32 H9         15.6407   -4.0671   30.6865 H         1 BYH         0.0541
     33 H10        12.7833   -5.0956   34.7335 H         1 BYH         0.0535
     34 H11        12.4915  -11.1428   35.2637 H         1 BYH         0.1019
     35 H12        10.6230  -10.6527   30.6012 H         1 BYH         0.0835
     36 H13         9.2355   -6.0149   31.8285 H         1 BYH         0.0439
     37 H14         8.1895   -6.4632   30.4386 H         1 BYH         0.0439
     38 H15         9.9570   -8.5365   30.3962 H         1 BYH         0.0631
     39 H16         8.3801   -8.5632   31.2560 H         1 BYH         0.0631
     40 H17        13.2335   -4.9680   29.3427 H         1 BYH         0.2330
@<TRIPOS>BOND
     1   22    1 1  
     2   17    2 1  
     3    4    3 ar 
     4    7    3 ar 
     5    8    4 ar 
     6    5    6 ar 
     7    9    5 ar 
     8   10    6 ar 
     9   18    7 ar 
    10   19    8 ar 
    11   20    9 ar 
    12   21   10 ar 
    13   12   11 1  
    14   11   15 1  
    15   23   12 1  
    16   16   13 1  
    17   13   18 1  
    18   16   14 2  
    19   14   19 1  
    20   15   16 1  
    21   22   17 2  
    22   17   23 1  
    23   19   18 ar 
    24   20   21 ar 
    25   20   22 1  
    26   21   23 1  
    27    1   24 1  
    28    1   25 1  
    29    1   26 1  
    30    2   27 1  
    31    3   28 1  
    32    4   29 1  
    33    5   30 1  
    34    6   31 1  
    35    7   32 1  
    36    8   33 1  
    37    9   34 1  
    38   10   35 1  
    39   11   36 1  
    40   11   37 1  
    41   12   38 1  
    42   12   39 1  
    43   13   40 1  
@<TRIPOS>SUBSTRUCTURE
     1 BYH         1

