### 
### Created by X-TOOL on Mon Sep 10 21:13:07 2018
### 

@<TRIPOS>MOLECULE
3aqt_ligand
   14    14     1     0     0
SMALL
GAST_HUCK


@<TRIPOS>ATOM
      1 C1         54.5300   28.4260   21.8790 C.ar      1 RCO         0.0789
      2 C2         54.4670   29.5730   21.0380 C.ar      1 RCO        -0.0060
      3 C3         55.6090   29.9850   20.2960 C.ar      1 RCO         0.0789
      4 C4         56.8030   29.2450   20.4050 C.ar      1 RCO        -0.0445
      5 C5         56.8710   28.1110   21.2360 C.ar      1 RCO        -0.0791
      6 C6         55.7310   27.7000   21.9780 C.ar      1 RCO        -0.0445
      7 O1         53.3930   28.0380   22.5950 O.3       1 RCO        -0.3359
      8 O3         55.5630   31.1130   19.4660 O.3       1 RCO        -0.3359
      9 H1         53.5436   30.1357   20.9625 H         1 RCO         0.0461
     10 H2         57.6778   29.5520   19.8434 H         1 RCO         0.0451
     11 H3         57.7954   27.5498   21.3101 H         1 RCO         0.0562
     12 H4         55.7866   26.8280   22.6196 H         1 RCO         0.0451
     13 H5         52.6817   28.6391   22.4075 H         1 RCO         0.2478
     14 H6         54.6947   31.4966   19.5028 H         1 RCO         0.2478
@<TRIPOS>BOND
     1    1    2 ar 
     2    1    6 ar 
     3    1    7 1  
     4    2    3 ar 
     5    3    4 ar 
     6    3    8 1  
     7    4    5 ar 
     8    5    6 ar 
     9    2    9 1  
    10    4   10 1  
    11    5   11 1  
    12    6   12 1  
    13    7   13 1  
    14    8   14 1  
@<TRIPOS>SUBSTRUCTURE
     1 RCO         1

