### 
### Created by X-TOOL on Mon Sep 10 21:13:04 2018
### 

@<TRIPOS>MOLECULE
3ara_ligand
   62    65     1     0     0
SMALL
GAST_HUCK


@<TRIPOS>ATOM
      1 O1          3.5850   10.0530  -11.9210 O.2       1 MKH        -0.3868
      2 C2          4.5700    9.6280  -12.4070 C.2       1 MKH         0.2063
      3 N3          5.6140   10.4920  -12.3970 N.am      1 MKH        -0.1851
      4 C4          6.7760   10.1440  -12.9840 C.2       1 MKH         0.2902
      5 N5          6.9200    8.8780  -13.5430 N.am      1 MKH        -0.2525
      6 C6          5.8950    7.9620  -13.5430 C.3       1 MKH         0.0519
      7 C7          4.6430    8.3310  -12.8710 C.3       1 MKH         0.0624
      8 O8          7.7100   10.9680  -13.0730 O.2       1 MKH        -0.3914
      9 C9          8.2410    8.4370  -14.1440 C.3       1 MKH         0.0365
     10 C10         8.1860    8.2480  -15.6470 C.3       1 MKH        -0.0115
     11 C11         8.0030    9.6690  -16.2840 C.3       1 MKH         0.0864
     12 S12         8.0830    9.5260  -17.9830 S.o2      1 MKH         0.0407
     13 N13         8.2100   10.8940  -18.6920 N.am      1 MKH        -0.2450
     14 C14         9.4930   11.6190  -18.7470 C.3       1 MKH         0.0283
     15 C15         9.5440   11.8740  -20.2780 C.3       1 MKH        -0.0352
     16 C16         8.0940   12.0190  -20.7640 C.3       1 MKH        -0.0405
     17 C17         7.2070   11.5030  -19.6070 C.3       1 MKH         0.0350
     18 O18         9.2430    8.7140  -18.4110 O.2       1 MKH        -0.1553
     19 O19         6.8740    8.7950  -18.3500 O.2       1 MKH        -0.1553
     20 C20         6.3100   12.6010  -19.0140 C.3       1 MKH         0.0776
     21 O21         7.0580   13.7250  -18.5030 O.3       1 MKH        -0.4399
     22 C22         5.3270   13.1030  -20.0480 C.ar      1 MKH        -0.0424
     23 C23         4.9140   14.4300  -19.9590 C.ar      1 MKH        -0.0475
     24 C24         3.9560   14.9200  -20.8830 C.ar      1 MKH        -0.0390
     25 C25         3.4530   14.0880  -21.8970 C.ar      1 MKH        -0.0398
     26 C26         3.9060   12.7740  -21.9820 C.ar      1 MKH        -0.0390
     27 C27         4.8190   12.2460  -21.0520 C.ar      1 MKH        -0.0475
     28 C28         5.5180   12.0880  -17.8300 C.ar      1 MKH        -0.0424
     29 C29         5.8230   12.6250  -16.5940 C.ar      1 MKH        -0.0475
     30 C30         5.1240   12.2340  -15.4850 C.ar      1 MKH        -0.0390
     31 C31         4.1250   11.2760  -15.5600 C.ar      1 MKH        -0.0398
     32 C32         3.7780   10.7140  -16.8200 C.ar      1 MKH        -0.0390
     33 C33         4.4680   11.1680  -17.9390 C.ar      1 MKH        -0.0475
     34 H1          5.5224   11.3846  -11.9556 H         1 MKH         0.2254
     35 H2          6.2710    7.0498  -13.0567 H         1 MKH         0.0545
     36 H3          5.6509    7.7437  -14.5931 H         1 MKH         0.0545
     37 H4          3.8199    8.1813  -13.5852 H         1 MKH         0.0527
     38 H5          4.5100    7.6572  -12.0117 H         1 MKH         0.0527
     39 H6          8.5320    7.4816  -13.6830 H         1 MKH         0.0520
     40 H7          8.9997    9.2002  -13.9162 H         1 MKH         0.0520
     41 H8          7.3370    7.6021  -15.9153 H         1 MKH         0.0301
     42 H9          9.1210    7.7919  -16.0044 H         1 MKH         0.0301
     43 H10         8.8021   10.3377  -15.9315 H         1 MKH         0.0519
     44 H11         7.0253   10.0810  -15.9936 H         1 MKH         0.0519
     45 H12        10.3343   11.0005  -18.4011 H         1 MKH         0.0477
     46 H13         9.4654   12.5557  -18.1710 H         1 MKH         0.0477
     47 H14        10.0282   11.0265  -20.7851 H         1 MKH         0.0281
     48 H15        10.1055   12.7963  -20.4878 H         1 MKH         0.0281
     49 H16         7.9315   11.4157  -21.6693 H         1 MKH         0.0273
     50 H17         7.8662   13.0732  -20.9801 H         1 MKH         0.0273
     51 H18         6.5386   10.7119  -19.9777 H         1 MKH         0.0394
     52 H19         7.6441   13.4283  -17.8167 H         1 MKH         0.1888
     53 H20         5.3198   15.0806  -19.1928 H         1 MKH         0.0796
     54 H21         3.6094   15.9442  -20.8062 H         1 MKH         0.0681
     55 H22         2.7221   14.4638  -22.6038 H         1 MKH         0.0805
     56 H23         3.5456   12.1420  -22.7856 H         1 MKH         0.0681
     57 H24         5.1260   11.2076  -21.1033 H         1 MKH         0.0796
     58 H25         6.6172   13.3571  -16.5030 H         1 MKH         0.0796
     59 H26         5.3565   12.6833  -14.5263 H         1 MKH         0.0681
     60 H27         3.6098   10.9561  -14.6615 H         1 MKH         0.0805
     61 H28         3.0042    9.9596  -16.9048 H         1 MKH         0.0681
     62 H29         4.1861   10.8008  -18.9192 H         1 MKH         0.0796
@<TRIPOS>BOND
     1    1    2 2  
     2    2    3 am 
     3    2    7 1  
     4    3    4 am 
     5    4    5 am 
     6    4    8 2  
     7    5    6 1  
     8    5    9 1  
     9    6    7 1  
    10    9   10 1  
    11   10   11 1  
    12   11   12 1  
    13   12   13 am 
    14   12   18 2  
    15   12   19 2  
    16   13   14 1  
    17   13   17 1  
    18   14   15 1  
    19   15   16 1  
    20   16   17 1  
    21   17   20 1  
    22   20   21 1  
    23   20   22 1  
    24   20   28 1  
    25   22   23 ar 
    26   22   27 ar 
    27   23   24 ar 
    28   24   25 ar 
    29   25   26 ar 
    30   26   27 ar 
    31   28   29 ar 
    32   28   33 ar 
    33   29   30 ar 
    34   30   31 ar 
    35   31   32 ar 
    36   32   33 ar 
    37    3   34 1  
    38    6   35 1  
    39    6   36 1  
    40    7   37 1  
    41    7   38 1  
    42    9   39 1  
    43    9   40 1  
    44   10   41 1  
    45   10   42 1  
    46   11   43 1  
    47   11   44 1  
    48   14   45 1  
    49   14   46 1  
    50   15   47 1  
    51   15   48 1  
    52   16   49 1  
    53   16   50 1  
    54   17   51 1  
    55   21   52 1  
    56   23   53 1  
    57   24   54 1  
    58   25   55 1  
    59   26   56 1  
    60   27   57 1  
    61   29   58 1  
    62   30   59 1  
    63   31   60 1  
    64   32   61 1  
    65   33   62 1  
@<TRIPOS>SUBSTRUCTURE
     1 MKH         1

