### 
### Created by X-TOOL on Mon Sep 10 21:13:02 2018
### 

@<TRIPOS>MOLECULE
3arn_ligand
   49    50     1     0     0
SMALL
GAST_HUCK


@<TRIPOS>ATOM
      1 O1         -3.5960   31.7470   32.6610 O.2       1 MSJ        -0.4124
      2 C2         -4.6950   32.1620   32.1900 C.2       1 MSJ         0.1822
      3 N3         -5.7710   31.3220   32.1430 N.am      1 MSJ        -0.1865
      4 C4         -6.9330   31.6750   31.5900 C.2       1 MSJ         0.3325
      5 N5         -7.0690   32.9470   31.0670 N.am      1 MSJ        -0.1646
      6 C6         -5.9960   33.7610   31.1140 C.2       1 MSJ         0.0587
      7 C7         -4.7660   33.4630   31.6820 C.2       1 MSJ         0.0062
      8 O8         -7.9030   30.8900   31.5670 O.2       1 MSJ        -0.3815
      9 C9         -8.3610   33.3590   30.4630 C.3       1 MSJ         0.1663
     10 C10        -6.4710   33.0180   24.8770 C.3       1 MSJ         0.0434
     11 O10        -8.1460   33.4560   29.0180 O.3       1 MSJ        -0.3499
     12 C11        -8.0110   32.1370   28.3850 C.3       1 MSJ         0.0509
     13 C12        -8.0160   32.3500   26.8720 C.3       1 MSJ        -0.0274
     14 S12        -5.0550   30.6790   24.8250 S.o2      1 MSJ         0.0687
     15 C13        -6.7630   33.1990   26.4010 C.3       1 MSJ        -0.0288
     16 O13        -5.0780   29.4730   24.1320 O.2       1 MSJ        -0.1503
     17 C14        -4.8230   30.4180   26.4010 C.ar      1 MSJ         0.1082
     18 C15        -5.7570   29.5600   27.0010 C.ar      1 MSJ        -0.0351
     19 C16        -5.7300   29.2090   28.3720 C.ar      1 MSJ        -0.0599
     20 C17        -4.7740   29.7850   29.1870 C.ar      1 MSJ        -0.0616
     21 N17        -6.1930   31.6530   24.4080 N.am      1 MSJ        -0.2419
     22 C18        -3.8520   30.6800   28.5810 C.ar      1 MSJ        -0.0599
     23 O19        -3.9180   31.3580   24.4530 O.2       1 MSJ        -0.1503
     24 C20        -3.8530   30.9910   27.2150 C.ar      1 MSJ        -0.0351
     25 C25        -5.3010   33.9730   24.5600 C.3       1 MSJ        -0.0428
     26 C26        -7.7030   33.5400   24.0860 C.3       1 MSJ        -0.0428
     27 H1         -5.6847   30.4074   32.5381 H         1 MSJ         0.2259
     28 H2         -6.1049   34.7463   30.6633 H         1 MSJ         0.1178
     29 H3         -3.9394   34.1705   31.7277 H         1 MSJ         0.0258
     30 H4         -8.6720   34.3345   30.8650 H         1 MSJ         0.0931
     31 H5         -9.1358   32.6090   30.6801 H         1 MSJ         0.0931
     32 H6         -8.8538   31.4928   28.6762 H         1 MSJ         0.0561
     33 H7         -7.0660   31.6669   28.6948 H         1 MSJ         0.0561
     34 H8         -8.9357   32.8830   26.5890 H         1 MSJ         0.0288
     35 H9         -7.9918   31.3700   26.3729 H         1 MSJ         0.0288
     36 H10        -6.9597   34.2627   26.6008 H         1 MSJ         0.0287
     37 H11        -5.8803   32.8757   26.9723 H         1 MSJ         0.0287
     38 H12        -6.5422   29.1431   26.3807 H         1 MSJ         0.0637
     39 H13        -6.4457   28.5017   28.7751 H         1 MSJ         0.0618
     40 H14        -4.7294   29.5626   30.2470 H         1 MSJ         0.0618
     41 H15        -6.8279   31.2994   23.7210 H         1 MSJ         0.1679
     42 H16        -3.1052   31.1490   29.2115 H         1 MSJ         0.0618
     43 H17        -3.1119   31.6652   26.8011 H         1 MSJ         0.0637
     44 H18        -5.0425   33.8948   23.4937 H         1 MSJ         0.0251
     45 H19        -4.4278   33.6983   25.1700 H         1 MSJ         0.0251
     46 H20        -5.5986   35.0066   24.7903 H         1 MSJ         0.0251
     47 H21        -7.5223   33.4235   23.0072 H         1 MSJ         0.0251
     48 H22        -7.8642   34.6031   24.3180 H         1 MSJ         0.0251
     49 H23        -8.5944   32.9628   24.3729 H         1 MSJ         0.0251
@<TRIPOS>BOND
     1    2    1 2  
     2    3    2 am 
     3    7    2 1  
     4    4    3 am 
     5    5    4 am 
     6    4    8 2  
     7    5    6 1  
     8    9    5 1  
     9    6    7 2  
    10   11    9 1  
    11   10   15 1  
    12   21   10 1  
    13   10   25 1  
    14   10   26 1  
    15   12   11 1  
    16   13   12 1  
    17   15   13 1  
    18   14   16 2  
    19   14   17 1  
    20   14   21 am 
    21   14   23 2  
    22   17   18 ar 
    23   17   24 ar 
    24   18   19 ar 
    25   19   20 ar 
    26   20   22 ar 
    27   22   24 ar 
    28    3   27 1  
    29    6   28 1  
    30    7   29 1  
    31    9   30 1  
    32    9   31 1  
    33   12   32 1  
    34   12   33 1  
    35   13   34 1  
    36   13   35 1  
    37   15   36 1  
    38   15   37 1  
    39   18   38 1  
    40   19   39 1  
    41   20   40 1  
    42   21   41 1  
    43   22   42 1  
    44   24   43 1  
    45   25   44 1  
    46   25   45 1  
    47   25   46 1  
    48   26   47 1  
    49   26   48 1  
    50   26   49 1  
@<TRIPOS>SUBSTRUCTURE
     1 MSJ         1

