### 
### Created by X-TOOL on Mon Sep 10 21:13:05 2018
### 

@<TRIPOS>MOLECULE
3arp_ligand
   72    75     1     0     0
SMALL
GAST_HUCK


@<TRIPOS>ATOM
      1 C1          9.0850   -8.0530   30.0430 C.ar      1 DEQ        -0.0412
      2 C2          8.4490   -9.0840   30.6940 C.ar      1 DEQ        -0.0752
      3 C3          7.7220   -8.7950   31.8640 C.ar      1 DEQ        -0.0767
      4 C4          7.6750   -7.4440   32.4090 C.ar      1 DEQ        -0.0663
      5 C5          9.0630   -6.7670   30.5360 C.ar      1 DEQ         0.0684
      6 C6          8.4020   -6.4350   31.7420 C.ar      1 DEQ         0.0139
      7 C7          8.3690   -5.1060   32.1870 C.ar      1 DEQ         0.0209
      8 C8          9.0400   -4.1070   31.5050 C.ar      1 DEQ        -0.0551
      9 C9          9.7420   -4.4320   30.3440 C.ar      1 DEQ         0.0625
     10 N1          9.7700   -5.7550   29.8520 N.ar      1 DEQ        -0.2684
     11 C10        20.2190  -10.0840   21.7800 C.ar      1 DEQ         0.0292
     12 C11        18.9390   -9.6710   22.2570 C.ar      1 DEQ         0.1003
     13 N2         17.7780   -9.9610   21.5400 N.ar      1 DEQ        -0.2256
     14 C12        17.8440  -10.5580   20.2500 C.ar      1 DEQ         0.0813
     15 C13        19.1010  -10.9110   19.8030 C.ar      1 DEQ        -0.0200
     16 C14        20.2700  -10.6490   20.5210 C.ar      1 DEQ        -0.0207
     17 C15        21.3490   -9.8090   22.4880 C.ar      1 DEQ        -0.0513
     18 C16        21.2610   -9.1750   23.7020 C.ar      1 DEQ        -0.0642
     19 C17        20.0370   -8.7800   24.1710 C.ar      1 DEQ        -0.0631
     20 C18        18.8710   -9.0140   23.5180 C.ar      1 DEQ        -0.0250
     21 C19        16.3950   -9.6810   21.9960 C.3       1 DEQ         0.0611
     22 C20        15.9590   -8.2140   21.8590 C.3       1 DEQ        -0.0256
     23 C21        15.1700   -7.9340   23.1560 C.3       1 DEQ        -0.0506
     24 C22        13.8110   -8.5140   22.9920 C.3       1 DEQ        -0.0530
     25 C23        12.9850   -8.0970   24.2650 C.3       1 DEQ        -0.0529
     26 C24        11.8670   -7.0420   23.8940 C.3       1 DEQ        -0.0518
     27 C25        10.7280   -6.8330   24.9630 C.3       1 DEQ        -0.0488
     28 C26        11.2760   -6.7360   26.4720 C.3       1 DEQ        -0.0428
     29 C27        10.0350   -6.4500   27.4320 C.2       1 DEQ        -0.0860
     30 C28        10.6970   -6.0380   28.6690 C.2       1 DEQ         0.0072
     31 C30        10.4820   -3.3100   29.5890 C.3       1 DEQ        -0.0336
     32 C29        16.5700  -10.9650   19.4130 C.3       1 DEQ         0.0131
     33 N4          7.6460   -4.7930   33.3160 N.pl3     1 DEQ        -0.3493
     34 N3         21.3930  -11.0450   19.9050 N.pl3     1 DEQ        -0.4434
     35 H1          9.6161   -8.2572   29.1203 H         1 DEQ         0.0517
     36 H2          8.5064  -10.0976   30.3141 H         1 DEQ         0.0562
     37 H3          7.1874   -9.5915   32.3689 H         1 DEQ         0.0506
     38 H4          7.0990   -7.2210   33.2998 H         1 DEQ         0.0562
     39 H5          9.0206   -3.0809   31.8693 H         1 DEQ         0.0341
     40 H6          7.1444   -5.5328   33.8279 H         1 DEQ         0.0000
     41 H7         19.1856  -11.4188   18.8433 H         1 DEQ         0.0323
     42 H8         22.3182  -10.0908   22.0928 H         1 DEQ         0.0648
     43 H9         22.1550   -8.9882   24.2858 H         1 DEQ         0.0556
     44 H10        19.9972   -8.2510   25.1163 H         1 DEQ         0.0640
     45 H11        17.9204   -8.7111   23.9419 H         1 DEQ         0.0572
     46 H12        16.3200   -9.9632   23.0565 H         1 DEQ         0.0609
     47 H13        15.7064  -10.3000   21.4022 H         1 DEQ         0.0609
     48 H14        15.3186   -8.0777   20.9751 H         1 DEQ         0.0291
     49 H15        16.8341   -7.5518   21.7835 H         1 DEQ         0.0291
     50 H16        15.0967   -6.8493   23.3233 H         1 DEQ         0.0266
     51 H17        15.6770   -8.4036   24.0118 H         1 DEQ         0.0266
     52 H18        13.8724   -9.6101   22.9222 H         1 DEQ         0.0265
     53 H19        13.3354   -8.1148   22.0840 H         1 DEQ         0.0265
     54 H20        13.6660   -7.6538   25.0065 H         1 DEQ         0.0265
     55 H21        12.5081   -8.9910   24.6932 H         1 DEQ         0.0265
     56 H22        11.3926   -7.3705   22.9575 H         1 DEQ         0.0267
     57 H23        12.3602   -6.0718   23.7346 H         1 DEQ         0.0267
     58 H24        10.0307   -7.6813   24.8995 H         1 DEQ         0.0281
     59 H25        10.1942   -5.9010   24.7257 H         1 DEQ         0.0281
     60 H26        12.0057   -5.9168   26.5518 H         1 DEQ         0.0354
     61 H27        11.7564   -7.6839   26.7560 H         1 DEQ         0.0354
     62 H28         8.9703   -6.5386   27.2209 H         1 DEQ         0.0312
     63 H29        11.7790   -5.9392   28.7430 H         1 DEQ         0.0783
     64 H30        10.3454   -2.3575   30.1220 H         1 DEQ         0.0273
     65 H31        10.0744   -3.2223   28.5711 H         1 DEQ         0.0273
     66 H32        11.5542   -3.5495   29.5353 H         1 DEQ         0.0273
     67 H33        16.8856  -11.4043   18.4552 H         1 DEQ         0.0515
     68 H34        15.9560  -10.0725   19.2224 H         1 DEQ         0.0515
     69 H35        15.9803  -11.7020   19.9778 H         1 DEQ         0.0515
     70 H36         7.6067   -3.8190   33.6488 H         1 DEQ         0.0000
     71 H37        22.3074  -10.8955   20.3550 H         1 DEQ         0.0000
     72 H38        21.3414  -11.4988   18.9818 H         1 DEQ         0.0000
@<TRIPOS>BOND
     1    1    2 ar 
     2    5    1 ar 
     3    2    3 ar 
     4    4    3 ar 
     5    6    4 ar 
     6    5    6 ar 
     7   10    5 ar 
     8    6    7 ar 
     9    8    7 ar 
    10    7   33 1  
    11    9    8 ar 
    12   10    9 ar 
    13    9   31 1  
    14   30   10 1  
    15   12   11 ar 
    16   11   16 ar 
    17   11   17 ar 
    18   13   12 ar 
    19   12   20 ar 
    20   13   14 ar 
    21   21   13 1  
    22   14   15 ar 
    23   14   32 1  
    24   15   16 ar 
    25   16   34 1  
    26   17   18 ar 
    27   19   18 ar 
    28   20   19 ar 
    29   22   21 1  
    30   23   22 1  
    31   24   23 1  
    32   25   24 1  
    33   26   25 1  
    34   27   26 1  
    35   28   27 1  
    36   29   28 1  
    37   29   30 2  
    38    1   35 1  
    39    2   36 1  
    40    3   37 1  
    41    4   38 1  
    42    8   39 1  
    43   33   40 1  
    44   15   41 1  
    45   17   42 1  
    46   18   43 1  
    47   19   44 1  
    48   20   45 1  
    49   21   46 1  
    50   21   47 1  
    51   22   48 1  
    52   22   49 1  
    53   23   50 1  
    54   23   51 1  
    55   24   52 1  
    56   24   53 1  
    57   25   54 1  
    58   25   55 1  
    59   26   56 1  
    60   26   57 1  
    61   27   58 1  
    62   27   59 1  
    63   28   60 1  
    64   28   61 1  
    65   29   62 1  
    66   30   63 1  
    67   31   64 1  
    68   31   65 1  
    69   31   66 1  
    70   32   67 1  
    71   32   68 1  
    72   32   69 1  
    73   33   70 1  
    74   34   71 1  
    75   34   72 1  
@<TRIPOS>SUBSTRUCTURE
     1 DEQ         1

