### 
### Created by X-TOOL on Mon Sep 10 21:13:05 2018
### 

@<TRIPOS>MOLECULE
3arq_ligand
   64    68     1     0     0
SMALL
GAST_HUCK


@<TRIPOS>ATOM
      1 C1         13.6650   -8.1280   23.8360 C.ar      1 DM5        -0.0384
      2 C2         13.5570   -7.4830   25.0980 C.ar      1 DM5        -0.0522
      3 C3         14.6690   -7.1790   25.8780 C.ar      1 DM5        -0.0522
      4 C4         15.9360   -7.5620   25.4180 C.ar      1 DM5        -0.0391
      5 C5         16.0720   -8.2170   24.1610 C.ar      1 DM5         0.0488
      6 C6         17.3320   -8.5790   23.6900 C.2       1 DM5         0.1638
      7 O6         18.3600   -8.3490   24.3480 O.2       1 DM5        -0.3701
      8 C7         17.4560   -9.2270   22.4290 C.ar      1 DM5         0.0971
      9 C8         18.7540   -9.6240   22.0200 C.ar      1 DM5         0.1190
     10 O8         19.6710   -9.3510   22.8170 O.3       1 DM5        -0.4199
     11 C9         18.8630  -10.2990   20.7810 C.ar      1 DM5         0.0250
     12 C10        20.2630  -10.7800   20.3350 C.3       1 DM5         0.0876
     13 O10        20.4530  -11.9750   21.2510 O.3       1 DM5        -0.3415
     14 C11        20.3860  -11.4810   18.9610 C.3       1 DM5         0.0147
     15 C12        19.1070  -12.2530   18.5360 C.3       1 DM5         0.1432
     16 O12        19.0600  -13.4020   19.5050 O.3       1 DM5        -0.3834
     17 C13        19.1400  -12.7500   17.0730 C.2       1 DM5         0.1578
     18 O13        19.1010  -13.9690   16.8580 O.2       1 DM5        -0.3297
     19 C14        19.2810  -11.7650   15.8590 C.3       1 DM5         0.0137
     20 C15        17.8910  -11.3320   18.6420 C.3       1 DM5         0.0248
     21 C16        17.7660  -10.5720   20.0090 C.ar      1 DM5         0.0058
     22 C17        16.5080  -10.1970   20.4120 C.ar      1 DM5         0.1499
     23 O17        15.4520  -10.5560   19.6330 O.3       1 DM5        -0.3554
     24 C18        16.3650   -9.5290   21.6630 C.ar      1 DM5         0.1012
     25 C19        15.1030   -9.1460   22.1430 C.2       1 DM5         0.1931
     26 O19        14.0650   -9.4200   21.5120 O.2       1 DM5        -0.3465
     27 C20        14.9530   -8.4870   23.3780 C.ar      1 DM5         0.0563
     28 C1'        21.7050  -11.8310   22.0250 C.3       1 DM5         0.1664
     29 C2'        21.6640  -12.8690   23.2270 C.3       1 DM5         0.0440
     30 C3'        21.7720  -14.2990   22.6310 C.3       1 DM5         0.0093
     31 N3'        21.7530  -15.3340   23.7150 N.4       1 DM5         0.2228
     32 C4'        23.0380  -14.4680   21.7430 C.3       1 DM5         0.1234
     33 O4'        24.2240  -14.3440   22.5750 O.3       1 DM5        -0.3836
     34 C5'        23.0240  -13.4230   20.5890 C.3       1 DM5         0.0900
     35 O5'        22.7920  -12.0470   21.0520 O.3       1 DM5        -0.3453
     36 C6'        24.3110  -13.4290   19.7090 C.3       1 DM5        -0.0359
     37 H1         12.7837   -8.3388   23.2411 H         1 DM5         0.0682
     38 H2         12.5726   -7.2182   25.4665 H         1 DM5         0.0662
     39 H3         14.5573   -6.6570   26.8214 H         1 DM5         0.0663
     40 H4         16.8142   -7.3593   26.0202 H         1 DM5         0.0681
     41 H5         21.0121   -9.9822   20.4464 H         1 DM5         0.0683
     42 H6         21.2220  -12.1942   19.0088 H         1 DM5         0.0319
     43 H7         20.5992  -10.7167   18.1992 H         1 DM5         0.0319
     44 H8         19.8479  -13.9248   19.4130 H         1 DM5         0.2079
     45 H9         19.2815  -12.3380   14.9201 H         1 DM5         0.0452
     46 H10        20.2242  -11.2061   15.9479 H         1 DM5         0.0452
     47 H11        18.4361  -11.0607   15.8582 H         1 DM5         0.0452
     48 H12        16.9857  -11.9414   18.5040 H         1 DM5         0.0478
     49 H13        17.9557  -10.5840   17.8381 H         1 DM5         0.0478
     50 H14        19.7054   -8.4108   22.9484 H         1 DM5         0.0000
     51 H15        14.6479  -10.2356   20.0244 H         1 DM5         0.0000
     52 H16        21.7885  -10.8158   22.4401 H         1 DM5         0.0913
     53 H17        20.7176  -12.7649   23.7779 H         1 DM5         0.0370
     54 H18        22.5073  -12.6842   23.9086 H         1 DM5         0.0370
     55 H19        20.8911  -14.4608   21.9924 H         1 DM5         0.0878
     56 H20        21.8241  -16.2518   23.3044 H         1 DM5         0.1998
     57 H21        20.8907  -15.2632   24.2321 H         1 DM5         0.1998
     58 H22        22.5314  -15.1831   24.3374 H         1 DM5         0.1998
     59 H23        23.0283  -15.4738   21.2979 H         1 DM5         0.0676
     60 H24        24.2112  -15.0173   23.2451 H         1 DM5         0.2102
     61 H25        22.1818  -13.6967   19.9365 H         1 DM5         0.0622
     62 H26        24.2204  -12.6660   18.9218 H         1 DM5         0.0255
     63 H27        24.4347  -14.4196   19.2470 H         1 DM5         0.0255
     64 H28        25.1858  -13.2055   20.3372 H         1 DM5         0.0255
@<TRIPOS>BOND
     1    1    2 ar 
     2    1   27 ar 
     3    2    3 ar 
     4    3    4 ar 
     5    4    5 ar 
     6    5    6 1  
     7    5   27 ar 
     8    6    7 2  
     9    6    8 1  
    10    8    9 ar 
    11    8   24 ar 
    12    9   10 1  
    13    9   11 ar 
    14   11   12 1  
    15   11   21 ar 
    16   12   13 1  
    17   12   14 1  
    18   13   28 1  
    19   14   15 1  
    20   15   16 1  
    21   15   17 1  
    22   15   20 1  
    23   17   18 2  
    24   17   19 1  
    25   20   21 1  
    26   21   22 ar 
    27   22   23 1  
    28   22   24 ar 
    29   24   25 1  
    30   25   26 2  
    31   25   27 1  
    32   28   29 1  
    33   28   35 1  
    34   29   30 1  
    35   30   31 1  
    36   30   32 1  
    37   32   33 1  
    38   32   34 1  
    39   34   35 1  
    40   34   36 1  
    41    1   37 1  
    42    2   38 1  
    43    3   39 1  
    44    4   40 1  
    45   12   41 1  
    46   14   42 1  
    47   14   43 1  
    48   16   44 1  
    49   19   45 1  
    50   19   46 1  
    51   19   47 1  
    52   20   48 1  
    53   20   49 1  
    54   10   50 1  
    55   23   51 1  
    56   28   52 1  
    57   29   53 1  
    58   29   54 1  
    59   30   55 1  
    60   31   56 1  
    61   31   57 1  
    62   31   58 1  
    63   32   59 1  
    64   33   60 1  
    65   34   61 1  
    66   36   62 1  
    67   36   63 1  
    68   36   64 1  
@<TRIPOS>SUBSTRUCTURE
     1 DM5         1

