### 
### Created by X-TOOL on Fri Sep 26 17:34:49 2014
### 

@<TRIPOS>MOLECULE
3arr_ligand
   38    39     1     0     0
SMALL
GAST_HUCK


@<TRIPOS>ATOM
      1 CAA        -3.8740   -4.6480    1.4710 C.3       1 PNX         0.0094
      2 CAM        -4.5260   -5.4420    2.5370 C.2       1 PNX         0.1019
      3 OAD        -4.9330   -4.9340    3.5680 O.2       1 PNX        -0.3919
      4 CAJ        -4.6190   -6.9250    2.2560 C.3       1 PNX         0.0209
      5 CAH        -5.5250   -7.7640    3.0860 C.3       1 PNX        -0.0350
      6 CAI        -5.0270   -9.2130    2.8430 C.3       1 PNX        -0.0260
      7 CAK        -5.1150   -9.6490    1.3820 C.3       1 PNX         0.0589
      8 N1         -5.3180  -11.1670    1.2920 N.am      1 PNX        -0.1709
      9 C6         -4.2390  -12.0330    1.3250 C.2       1 PNX         0.2299
     10 O6         -3.0700  -11.6690    1.4390 O.2       1 PNX        -0.4007
     11 C5         -4.5030  -13.3880    1.2140 C.2       1 PNX         0.1624
     12 N7         -3.7000  -14.3700    1.2480 N.pl3     1 PNX        -0.2541
     13 CAB        -2.2430  -14.1340    1.4030 C.3       1 PNX         0.0424
     14 C8         -4.4170  -15.5300    1.0830 C.2       1 PNX         0.0975
     15 N9         -5.7420  -15.2370    0.9740 N.2       1 PNX        -0.2859
     16 C4         -5.7720  -13.9160    1.0980 C.2       1 PNX         0.1377
     17 N3         -6.8230  -13.1190    1.0470 N.am      1 PNX        -0.2025
     18 CAC        -8.1490  -13.7810    0.9090 C.3       1 PNX         0.0446
     19 C2         -6.6310  -11.7590    1.2050 C.2       1 PNX         0.3179
     20 O2         -7.6060  -11.0530    1.1080 O.2       1 PNX        -0.3873
     21 H1         -3.5908   -5.3116    0.6407 H         1 PNX         0.0458
     22 H2         -2.9739   -4.1614    1.8747 H         1 PNX         0.0458
     23 H3         -4.5728   -3.8812    1.1055 H         1 PNX         0.0458
     24 H4         -3.6056   -7.3379    2.3682 H         1 PNX         0.0494
     25 H5         -4.9461   -7.0347    1.2115 H         1 PNX         0.0494
     26 H6         -6.5696   -7.6504    2.7606 H         1 PNX         0.0291
     27 H7         -5.4409   -7.4954    4.1494 H         1 PNX         0.0291
     28 H8         -5.6389   -9.8979    3.4484 H         1 PNX         0.0290
     29 H9         -3.9768   -9.2789    3.1636 H         1 PNX         0.0290
     30 H10        -4.1833   -9.3760    0.8648 H         1 PNX         0.0576
     31 H11        -5.9637   -9.1401    0.9017 H         1 PNX         0.0576
     32 H12        -1.7141  -15.0985    1.4107 H         1 PNX         0.0575
     33 H13        -2.0557  -13.6056    2.3494 H         1 PNX         0.0575
     34 H14        -1.8792  -13.5231    0.5637 H         1 PNX         0.0575
     35 H15        -3.9905  -16.5313    1.0452 H         1 PNX         0.1263
     36 H16        -8.0072  -14.8661    0.7976 H         1 PNX         0.0548
     37 H17        -8.6656  -13.3858    0.0220 H         1 PNX         0.0548
     38 H18        -8.7540  -13.5805    1.8055 H         1 PNX         0.0548
@<TRIPOS>BOND
     1    1    2 1  
     2    2    3 2  
     3    2    4 1  
     4    4    5 1  
     5    5    6 1  
     6    6    7 1  
     7    7    8 1  
     8    8    9 am 
     9    8   19 am 
    10    9   10 2  
    11    9   11 1  
    12   11   12 1  
    13   11   16 2  
    14   12   13 1  
    15   12   14 1  
    16   14   15 2  
    17   15   16 1  
    18   16   17 1  
    19   17   18 1  
    20   17   19 am 
    21   19   20 2  
    22    1   21 1  
    23    1   22 1  
    24    1   23 1  
    25    4   24 1  
    26    4   25 1  
    27    5   26 1  
    28    5   27 1  
    29    6   28 1  
    30    6   29 1  
    31    7   30 1  
    32    7   31 1  
    33   13   32 1  
    34   13   33 1  
    35   13   34 1  
    36   14   35 1  
    37   18   36 1  
    38   18   37 1  
    39   18   38 1  
@<TRIPOS>SUBSTRUCTURE
     1 PNX         1

