### 
### Created by X-TOOL on Fri Sep 26 17:34:49 2014
### 

@<TRIPOS>MOLECULE
3aru_ligand
   38    39     1     0     0
SMALL
GAST_HUCK


@<TRIPOS>ATOM
      1 CAA         0.0080   11.3070   12.5930 C.3       1 PNX         0.0094
      2 CAM        -0.2810   11.6970   14.0210 C.2       1 PNX         0.1019
      3 OAD        -0.4630   12.8800   14.2940 O.2       1 PNX        -0.3919
      4 CAJ        -0.3970   10.5890   15.1230 C.3       1 PNX         0.0209
      5 CAH        -0.8910   11.1750   16.4570 C.3       1 PNX        -0.0350
      6 CAI        -0.8110   10.0260   17.5150 C.3       1 PNX        -0.0260
      7 CAK        -1.4910    8.6740   17.0680 C.3       1 PNX         0.0589
      8 N1         -1.6900    7.7910   18.2980 N.am      1 PNX        -0.1709
      9 C6         -2.8830    7.8860   19.0530 C.2       1 PNX         0.2299
     10 O6         -3.7630    8.6670   18.6890 O.2       1 PNX        -0.4007
     11 C5         -3.0170    7.0790   20.2120 C.2       1 PNX         0.1624
     12 N7         -4.0130    6.9290   21.1020 N.pl3     1 PNX        -0.2541
     13 CAB        -5.3040    7.6760   21.0500 C.3       1 PNX         0.0424
     14 C8         -3.6560    6.0100   22.0180 C.2       1 PNX         0.0975
     15 N9         -2.4160    5.5500   21.7210 N.2       1 PNX        -0.2859
     16 C4         -1.9960    6.1840   20.6110 C.2       1 PNX         0.1377
     17 N3         -0.7920    6.1000   19.8810 N.am      1 PNX        -0.2025
     18 CAC         0.3360    5.1650   20.2710 C.3       1 PNX         0.0446
     19 C2         -0.6440    6.9130   18.7670 C.2       1 PNX         0.3179
     20 O2          0.4020    6.8180   18.1430 O.2       1 PNX        -0.3873
     21 H1          0.1433   10.2171   12.5308 H         1 PNX         0.0458
     22 H2          0.9255   11.8103   12.2539 H         1 PNX         0.0458
     23 H3         -0.8340   11.6091   11.9528 H         1 PNX         0.0458
     24 H4          0.5917   10.1321   15.2769 H         1 PNX         0.0494
     25 H5         -1.1075    9.8204   14.7846 H         1 PNX         0.0494
     26 H6         -1.9292   11.5241   16.3555 H         1 PNX         0.0291
     27 H7         -0.2497   12.0151   16.7618 H         1 PNX         0.0291
     28 H8         -1.3057   10.3713   18.4348 H         1 PNX         0.0290
     29 H9          0.2501    9.8241   17.7229 H         1 PNX         0.0290
     30 H10        -0.8447    8.1574   16.3432 H         1 PNX         0.0576
     31 H11        -2.4656    8.8863   16.6042 H         1 PNX         0.0576
     32 H12        -5.9407    7.3668   21.8921 H         1 PNX         0.0575
     33 H13        -5.8171    7.4558   20.1023 H         1 PNX         0.0575
     34 H14        -5.1058    8.7559   21.1174 H         1 PNX         0.0575
     35 H15        -4.2649    5.6880   22.8615 H         1 PNX         0.1263
     36 H16         0.0498    4.6004   21.1706 H         1 PNX         0.0548
     37 H17         1.2430    5.7515   20.4794 H         1 PNX         0.0548
     38 H18         0.5336    4.4647   19.4461 H         1 PNX         0.0548
@<TRIPOS>BOND
     1    1    2 1  
     2    2    3 2  
     3    2    4 1  
     4    4    5 1  
     5    5    6 1  
     6    6    7 1  
     7    7    8 1  
     8    8    9 am 
     9    8   19 am 
    10    9   10 2  
    11    9   11 1  
    12   11   12 1  
    13   11   16 2  
    14   12   13 1  
    15   12   14 1  
    16   14   15 2  
    17   15   16 1  
    18   16   17 1  
    19   17   18 1  
    20   17   19 am 
    21   19   20 2  
    22    1   21 1  
    23    1   22 1  
    24    1   23 1  
    25    4   24 1  
    26    4   25 1  
    27    5   26 1  
    28    5   27 1  
    29    6   28 1  
    30    6   29 1  
    31    7   30 1  
    32    7   31 1  
    33   13   32 1  
    34   13   33 1  
    35   13   34 1  
    36   14   35 1  
    37   18   36 1  
    38   18   37 1  
    39   18   38 1  
@<TRIPOS>SUBSTRUCTURE
     1 PNX         1

