### 
### Created by X-TOOL on Fri Sep 26 17:34:49 2014
### 

@<TRIPOS>MOLECULE
3arv_ligand
   40    45     1     0     0
SMALL
GAST_HUCK


@<TRIPOS>ATOM
      1 N          18.3200   -8.9040   23.7780 N.pl3     1 SAU        -0.3002
      2 C1         23.2950  -11.5750   21.0070 C.3       1 SAU         0.1887
      3 O1         22.6980  -10.6800   22.0770 O.3       1 SAU        -0.2890
      4 C2         21.1900  -10.9900   20.3930 C.ar      1 SAU         0.1261
      5 O2         22.3770  -11.4870   19.8460 O.3       1 SAU        -0.2871
      6 C3         21.3810  -10.5200   21.7070 C.ar      1 SAU         0.1261
      7 O3         12.8560   -7.2870   25.2300 O.3       1 SAU        -0.2940
      8 C4         19.9360  -10.9210   19.7950 C.ar      1 SAU        -0.0365
      9 O4         14.9520   -7.4060   26.0280 O.3       1 SAU        -0.2960
     10 C5         18.8590  -10.3980   20.5130 C.ar      1 SAU        -0.0470
     11 C6         19.0680   -9.9360   21.7860 C.ar      1 SAU        -0.0099
     12 C7         20.3330   -9.9850   22.3840 C.ar      1 SAU        -0.0317
     13 C8         17.5680  -10.3260   19.9630 C.ar      1 SAU        -0.0814
     14 C9         16.4630   -9.8330   20.6850 C.ar      1 SAU        -0.0793
     15 C10        18.0210   -9.3880   22.4760 C.ar      1 SAU         0.0523
     16 C12        17.2390   -8.4460   24.5270 C.3       1 SAU         0.0571
     17 C13        15.9690   -8.4050   23.9660 C.ar      1 SAU         0.0041
     18 C14        15.7050   -8.8310   22.6700 C.ar      1 SAU        -0.0437
     19 C15        16.7330   -9.3420   21.9510 C.ar      1 SAU        -0.0182
     20 C18        14.4240   -8.8470   22.1500 C.ar      1 SAU        -0.0839
     21 C19        13.3760   -8.2970   22.9220 C.ar      1 SAU        -0.0493
     22 C20        13.6390   -7.8390   24.2300 C.ar      1 SAU         0.1153
     23 C21        14.9290   -7.9000   24.7410 C.ar      1 SAU         0.1245
     24 C23        13.5550   -7.4700   26.4510 C.3       1 SAU         0.1847
     25 C25        19.6930   -9.0400   24.3500 C.3       1 SAU         0.0190
     26 H1         23.3581  -12.6124   21.3672 H         1 SAU         0.0977
     27 H2         24.2989  -11.2217   20.7288 H         1 SAU         0.0977
     28 H3         19.7960  -11.2709   18.7786 H         1 SAU         0.0462
     29 H4         20.4753   -9.5964   23.3859 H         1 SAU         0.0493
     30 H5         17.4163  -10.6627   18.9439 H         1 SAU         0.0437
     31 H6         15.4602   -9.8379   20.2733 H         1 SAU         0.0526
     32 H7         17.4813   -7.4190   24.8379 H         1 SAU         0.0655
     33 H8         17.1724   -9.0919   25.4149 H         1 SAU         0.0655
     34 H9         14.2280   -9.2719   21.1722 H         1 SAU         0.0460
     35 H10        12.3753   -8.2274   22.5112 H         1 SAU         0.0456
     36 H11        13.3203   -8.4459   26.9011 H         1 SAU         0.0969
     37 H12        13.3196   -6.6694   27.1677 H         1 SAU         0.0969
     38 H13        20.3770   -9.4177   23.5757 H         1 SAU         0.0485
     39 H14        19.6703   -9.7445   25.1945 H         1 SAU         0.0485
     40 H15        20.0429   -8.0580   24.7010 H         1 SAU         0.0485
@<TRIPOS>BOND
     1    1   15 1  
     2   16    1 1  
     3    1   25 1  
     4    3    2 1  
     5    5    2 1  
     6    6    3 1  
     7    4    5 1  
     8    6    4 ar 
     9    8    4 ar 
    10   12    6 ar 
    11    7   22 1  
    12   24    7 1  
    13   10    8 ar 
    14   23    9 1  
    15    9   24 1  
    16   11   10 ar 
    17   10   13 ar 
    18   11   12 ar 
    19   15   11 ar 
    20   14   13 ar 
    21   19   14 ar 
    22   15   19 ar 
    23   17   16 1  
    24   17   18 ar 
    25   17   23 ar 
    26   18   19 1  
    27   18   20 ar 
    28   20   21 ar 
    29   21   22 ar 
    30   22   23 ar 
    31    2   26 1  
    32    2   27 1  
    33    8   28 1  
    34   12   29 1  
    35   13   30 1  
    36   14   31 1  
    37   16   32 1  
    38   16   33 1  
    39   20   34 1  
    40   21   35 1  
    41   24   36 1  
    42   24   37 1  
    43   25   38 1  
    44   25   39 1  
    45   25   40 1  
@<TRIPOS>SUBSTRUCTURE
     1 SAU         1

