### 
### Created by X-TOOL on Mon Sep 10 21:13:05 2018
### 

@<TRIPOS>MOLECULE
3arw_ligand
   45    49     1     0     0
SMALL
GAST_HUCK


@<TRIPOS>ATOM
      1 C1         20.1890   -9.9140   22.4820 C.ar      1 CTI        -0.0317
      2 C2         18.9240   -9.8270   21.8590 C.ar      1 CTI        -0.0099
      3 C3         18.7580  -10.3610   20.6010 C.ar      1 CTI        -0.0470
      4 C4         19.8780  -10.9420   19.9770 C.ar      1 CTI        -0.0365
      5 C5         17.8610   -9.2610   22.5420 C.ar      1 CTI         0.0523
      6 C6         16.5700   -9.2070   22.0010 C.ar      1 CTI        -0.0182
      7 C7         16.4010   -9.7470   20.7270 C.ar      1 CTI        -0.0793
      8 C8         17.4960  -10.3030   20.0150 C.ar      1 CTI        -0.0814
      9 N9         18.1220   -8.7860   23.8460 N.pl3     1 CTI        -0.3002
     10 C10        15.5240   -8.6440   22.7540 C.ar      1 CTI        -0.0437
     11 C11        15.8040   -8.1510   24.0490 C.ar      1 CTI         0.0040
     12 C12        17.0780   -8.2330   24.5790 C.3       1 CTI         0.0571
     13 C13        19.4750   -8.8530   24.4730 C.3       1 CTI         0.0190
     14 C14        13.5190   -7.4680   24.3400 C.ar      1 CTI         0.1115
     15 C15        13.1960   -7.9430   23.0540 C.ar      1 CTI        -0.0494
     16 C16        14.2080   -8.5360   22.2820 C.ar      1 CTI        -0.0839
     17 C17        14.8100   -7.5700   24.8560 C.ar      1 CTI         0.1207
     18 O18        15.0880   -7.0260   26.1210 O.3       1 CTI        -0.3298
     19 C19        15.3140   -7.7360   27.3920 C.3       1 CTI         0.0550
     20 O20        12.5720   -6.8750   25.1250 O.3       1 CTI        -0.3277
     21 C21        12.3480   -7.5730   26.3720 C.3       1 CTI         0.0564
     22 C22        21.2950  -10.4960   21.8670 C.ar      1 CTI         0.1261
     23 C23        21.1370  -11.0040   20.5780 C.ar      1 CTI         0.1261
     24 O24        22.6220  -10.6540   22.2710 O.3       1 CTI        -0.2890
     25 C25        23.2140  -11.6110   21.3230 C.3       1 CTI         0.1887
     26 O26        22.3630  -11.4930   20.1450 O.3       1 CTI        -0.2871
     27 H1         20.3038   -9.5105   23.4815 H         1 CTI         0.0493
     28 H2         19.7577  -11.3605   18.9843 H         1 CTI         0.0462
     29 H3         15.4169   -9.7423   20.2724 H         1 CTI         0.0526
     30 H4         17.3492  -10.6841   19.0109 H         1 CTI         0.0437
     31 H5         17.3803   -7.2051   24.8282 H         1 CTI         0.0655
     32 H6         16.9955   -8.8251   25.5024 H         1 CTI         0.0655
     33 H7         20.1832   -9.3135   23.7685 H         1 CTI         0.0485
     34 H8         19.4245   -9.4581   25.3902 H         1 CTI         0.0485
     35 H9         19.8144   -7.8368   24.7223 H         1 CTI         0.0485
     36 H10        12.1870   -7.8527   22.6682 H         1 CTI         0.0456
     37 H11        13.9661   -8.9195   21.2974 H         1 CTI         0.0460
     38 H12        15.5061   -7.0050   28.1912 H         1 CTI         0.0569
     39 H13        16.1820   -8.4038   27.2896 H         1 CTI         0.0569
     40 H14        14.4227   -8.3292   27.6442 H         1 CTI         0.0569
     41 H15        11.5776   -7.0459   26.9540 H         1 CTI         0.0572
     42 H16        13.2847   -7.6048   26.9478 H         1 CTI         0.0572
     43 H17        12.0112   -8.5990   26.1626 H         1 CTI         0.0572
     44 H18        23.1861  -12.6336   21.7274 H         1 CTI         0.0977
     45 H19        24.2531  -11.3385   21.0863 H         1 CTI         0.0977
@<TRIPOS>BOND
     1    2    1 ar 
     2    1   22 ar 
     3    2    3 ar 
     4    5    2 ar 
     5    3    4 ar 
     6    8    3 ar 
     7    4   23 ar 
     8    6    5 ar 
     9    9    5 1  
    10    6    7 ar 
    11   10    6 1  
    12    7    8 ar 
    13   12    9 1  
    14    9   13 1  
    15   11   10 ar 
    16   10   16 ar 
    17   11   12 1  
    18   17   11 ar 
    19   14   15 ar 
    20   14   17 ar 
    21   14   20 1  
    22   15   16 ar 
    23   17   18 1  
    24   18   19 1  
    25   20   21 1  
    26   22   23 ar 
    27   22   24 1  
    28   23   26 1  
    29   24   25 1  
    30   25   26 1  
    31    1   27 1  
    32    4   28 1  
    33    7   29 1  
    34    8   30 1  
    35   12   31 1  
    36   12   32 1  
    37   13   33 1  
    38   13   34 1  
    39   13   35 1  
    40   15   36 1  
    41   16   37 1  
    42   19   38 1  
    43   19   39 1  
    44   19   40 1  
    45   21   41 1  
    46   21   42 1  
    47   21   43 1  
    48   25   44 1  
    49   25   45 1  
@<TRIPOS>SUBSTRUCTURE
     1 CTI         1

