### 
### Created by X-TOOL on Mon Sep 10 21:13:05 2018
### 

@<TRIPOS>MOLECULE
3arx_ligand
   44    45     1     0     0
SMALL
GAST_HUCK


@<TRIPOS>ATOM
      1 N1         18.6050  -11.0460   19.5070 N.am      1 POY        -0.1709
      2 C2         17.7710  -10.1930   20.1530 C.2       1 POY         0.2299
      3 C3         18.2430   -9.6350   21.3400 C.2       1 POY         0.1626
      4 C4         19.4970   -9.8800   21.8250 C.2       1 POY         0.1377
      5 N5         20.3340  -10.7510   21.2020 N.am      1 POY        -0.2025
      6 C6         19.9000  -11.3380   20.0300 C.2       1 POY         0.3179
      7 N7         17.7600   -8.7540   22.2020 N.pl3     1 POY        -0.2513
      8 C8         18.7130   -8.5680   23.2450 C.2       1 POY         0.0978
      9 N9         19.7830   -9.2180   23.0080 N.2       1 POY        -0.2858
     10 C10        18.1300  -11.7040   18.2110 C.3       1 POY         0.0589
     11 C11        17.3990  -13.0380   18.5360 C.3       1 POY        -0.0260
     12 C12        17.4380  -14.1100   17.3390 C.3       1 POY        -0.0350
     13 C13        16.8140  -13.2980   16.1610 C.3       1 POY         0.0209
     14 C14        16.6410  -14.1580   14.9440 C.2       1 POY         0.1019
     15 C15        16.8370  -15.5300   15.0160 C.3       1 POY         0.0094
     16 O16        16.1210  -13.6430   13.8760 O.2       1 POY        -0.3919
     17 O17        16.6050  -10.0590   19.7440 O.2       1 POY        -0.4007
     18 O18        20.6550  -12.1120   19.4180 O.2       1 POY        -0.3873
     19 C19        21.6680  -10.9920   21.8710 C.3       1 POY         0.0446
     20 C20        16.4580   -8.1840   22.0690 C.3       1 POY         0.0534
     21 C21        15.3960   -8.9200   22.8640 C.3       1 POY        -0.0284
     22 C22        13.9460   -8.3970   22.8470 C.3       1 POY        -0.0628
     23 H1         18.5486   -7.9519   24.1278 H         1 POY         0.1263
     24 H2         18.9973  -11.9103   17.5667 H         1 POY         0.0576
     25 H3         17.4385  -11.0262   17.6892 H         1 POY         0.0576
     26 H4         16.3470  -12.8102   18.7628 H         1 POY         0.0290
     27 H5         17.8755  -13.4878   19.4195 H         1 POY         0.0290
     28 H6         16.8341  -14.9981   17.5771 H         1 POY         0.0291
     29 H7         18.4690  -14.4180   17.1109 H         1 POY         0.0291
     30 H8         17.4771  -12.4557   15.9143 H         1 POY         0.0494
     31 H9         15.8315  -12.9126   16.4711 H         1 POY         0.0494
     32 H10        16.6634  -15.9776   14.0263 H         1 POY         0.0458
     33 H11        16.1340  -15.9632   15.7427 H         1 POY         0.0458
     34 H12        17.8689  -15.7367   15.3360 H         1 POY         0.0458
     35 H13        21.7330  -10.3874   22.7876 H         1 POY         0.0548
     36 H14        22.4791  -10.7064   21.1851 H         1 POY         0.0548
     37 H15        21.7626  -12.0576   22.1272 H         1 POY         0.0548
     38 H16        16.1750   -8.2043   21.0062 H         1 POY         0.0611
     39 H17        16.4959   -7.1417   22.4186 H         1 POY         0.0611
     40 H18        15.7244   -8.9222   23.9138 H         1 POY         0.0289
     41 H19        15.3695   -9.9526   22.4858 H         1 POY         0.0289
     42 H20        13.3149   -9.0458   23.4720 H         1 POY         0.0231
     43 H21        13.5667   -8.4012   21.8145 H         1 POY         0.0231
     44 H22        13.9216   -7.3708   23.2424 H         1 POY         0.0231
@<TRIPOS>BOND
     1    1    2 am 
     2    1    6 am 
     3    1   10 1  
     4    2    3 1  
     5    2   17 2  
     6    3    4 2  
     7    3    7 1  
     8    4    5 1  
     9    4    9 1  
    10    5    6 am 
    11    5   19 1  
    12    6   18 2  
    13    7    8 1  
    14    7   20 1  
    15    8    9 2  
    16   10   11 1  
    17   11   12 1  
    18   12   13 1  
    19   13   14 1  
    20   14   15 1  
    21   14   16 2  
    22   20   21 1  
    23   21   22 1  
    24    8   23 1  
    25   10   24 1  
    26   10   25 1  
    27   11   26 1  
    28   11   27 1  
    29   12   28 1  
    30   12   29 1  
    31   13   30 1  
    32   13   31 1  
    33   15   32 1  
    34   15   33 1  
    35   15   34 1  
    36   19   35 1  
    37   19   36 1  
    38   19   37 1  
    39   20   38 1  
    40   20   39 1  
    41   21   40 1  
    42   21   41 1  
    43   22   42 1  
    44   22   43 1  
    45   22   44 1  
@<TRIPOS>SUBSTRUCTURE
     1 POY         1

