#	Name:			3ary_ligand
#	Creating user name:	suminyi
#	Creation time:		Fri Mar 11 09:09:54 2016

#	Modifying user name:	suminyi
#	Modification time:	Fri Mar 11 09:23:53 2016

@<TRIPOS>MOLECULE
3ary_ligand
   26    28     1     4     1
SMALL
GAST_HUCK


@<TRIPOS>ATOM
      1 C1         14.0610   -7.8490   23.9780 C.ar      1 I5I         0.0409 
      2 C2         15.4410   -7.9020   24.0520 C.ar      1 I5I        -0.0430 
      3 C3         16.1020   -8.6000   23.0670 C.ar      1 I5I         0.0079 
      4 C4         15.4320   -9.2490   22.0120 C.ar      1 I5I         0.1316 
      5 C5         14.0680   -9.2030   21.9740 C.ar      1 I5I        -0.0240 
      6 C6         13.3640   -8.4790   22.9420 C.ar      1 I5I        -0.0479 
      7 C7         17.3950   -8.7960   22.8920 C.2       1 I5I        -0.0160 
      8 C8         17.5340   -9.5030   21.7780 C.2       1 I5I         0.1786 
      9 O9         16.3690   -9.8100   21.1840 O.3       1 I5I        -0.2413 
     10 C10        18.6910   -9.9940   21.2870 C.2       1 I5I         0.1430 
     11 N11        18.7630  -10.6620   20.1330 N.2       1 I5I        -0.3588 
     12 C12        20.1740  -11.1900   20.0320 C.3       1 I5I         0.0032 
     13 C13        20.9100  -10.7770   21.3290 C.3       1 I5I         0.0366 
     14 N14        19.8480  -10.0360   22.0560 N.pl3     1 I5I        -0.2938 
     15 N15        13.3970   -7.2030   24.9130 N.2       1 I5I        -0.2210 
     16 C16        13.7413   -7.4368   26.0133 C.1       1 I5I         0.0867 
     17 S17        14.1801   -7.7192   27.5099 S.2       1 I5I         0.0243 
     18 H1         15.9811   -7.4128   24.8546 H         1 I5I         0.0597 
     19 H2         13.5301   -9.7280   21.1930 H         1 I5I         0.0575 
     20 H3         12.2837   -8.4066   22.8894 H         1 I5I         0.0594 
     21 H4         18.1966   -8.4440   23.5396 H         1 I5I         0.0534 
     22 H5         20.6782  -10.7536   19.1572 H         1 I5I         0.0345 
     23 H6         20.1607  -12.2859   19.9387 H         1 I5I         0.0345 
     24 H7         21.7729  -10.1303   21.1117 H         1 I5I         0.0530 
     25 H8         21.2453  -11.6572   21.8972 H         1 I5I         0.0530 
     26 H9         19.9531   -9.6159   22.9906 H         1 I5I         0.1878 
@<TRIPOS>BOND
     1    1    2 ar   
     2    1    6 ar   
     3    1   15 1    
     4    2    3 ar   
     5    3    4 ar   
     6    3    7 1    
     7    4    5 ar   
     8    4    9 1    
     9    5    6 ar   
    10    7    8 2    
    11    8    9 1    
    12    8   10 1    
    13   10   11 2    
    14   10   14 1    
    15   11   12 1    
    16   12   13 1    
    17   13   14 1    
    18   15   16 2    
    19   16   17 2    
    20    2   18 1    
    21    5   19 1    
    22    6   20 1    
    23    7   21 1    
    24   12   22 1    
    25   12   23 1    
    26   13   24 1    
    27   13   25 1    
    28   14   26 1    
@<TRIPOS>SUBSTRUCTURE
     1 I5I         1 PERM              0 ****  ****    0 ROOT 
@<TRIPOS>SET
P1              STATIC     ATOMS    AGGREGATE SYSTEM|ACTIVE_AGG ""
24 1 2 3 4 5 6 7 8 9 10 11 12 13 14 15 18 19 20 21 \
 22 23 24 25 26
@<TRIPOS>ROTATABLE_BOND
    3     2    18  1 1     0  0
@<TRIPOS>ANCHOR_ATOM
1
@<TRIPOS>NORMAL
@<TRIPOS>ALT_TYPE
MMFF94_ALT_TYPE_SET 
MMFF94 12 CR 13 CR 8 C5A 4 C5A 7 C5B 3 C5B 1 CB 2 CB 5 CB 6 CB 10 C=N \
16 =C= 18 HC 19 HC 20 HC 21 HC 22 HC 23 HC 24 HC 25 HC \
26 HNCN 9 OFUR 11 N=C 15 N=C 14 NC=N 17 S=C 
@<TRIPOS>FF_PBC
FORCE_FIELD_SETUP_FEATURE Force Field Setup information
v1.0  0 0.000000 0.000000 0.000000 0.000000 0.000000 0.000000 NONE 0 0 0 0 1 0 0 0 0 0 0 0 0
