### 
### Created by X-TOOL on Mon Sep 10 21:13:05 2018
### 

@<TRIPOS>MOLECULE
3arz_ligand
   28    30     1     0     0
SMALL
GAST_HUCK


@<TRIPOS>ATOM
      1 C1         -1.0570  -15.2870    1.6010 C.ar      1 I5I         0.0636
      2 C2         -2.3600  -15.7660    1.3450 C.ar      1 I5I        -0.0427
      3 C3         -3.4470  -14.8650    1.2950 C.ar      1 I5I        -0.0069
      4 C4         -3.2160  -13.4990    1.4960 C.ar      1 I5I         0.1197
      5 C5         -1.9430  -13.0270    1.7550 C.ar      1 I5I        -0.0333
      6 C6         -0.8830  -13.9170    1.8090 C.ar      1 I5I        -0.0415
      7 C7         -4.7790  -15.0140    1.0900 C.2       1 I5I        -0.0211
      8 C8         -5.3970  -13.8070    1.1530 C.2       1 I5I         0.1750
      9 O9         -4.4220  -12.8530    1.4090 O.3       1 I5I        -0.2484
     10 C10        -6.7750  -13.4520    1.0420 C.2       1 I5I         0.1422
     11 N11        -7.2430  -12.1870    1.0750 N.2       1 I5I        -0.3590
     12 C12        -8.7270  -12.1260    1.0170 C.3       1 I5I         0.0032
     13 C13        -9.1270  -13.6040    1.0380 C.3       1 I5I         0.0366
     14 N14        -7.8210  -14.3080    1.1040 N.pl3     1 I5I        -0.2938
     15 N15         0.0310  -16.1050    1.6690 N.am      1 I5I        -0.2552
     16 C16         0.9180  -15.9430    2.6640 C.2       1 I5I         0.0668
     17 S17         2.3170  -16.8890    2.9820 S.2       1 I5I        -0.2378
     18 H1         -2.5265  -16.8254    1.1868 H         1 I5I         0.0447
     19 H2         -1.7754  -11.9680    1.9147 H         1 I5I         0.0551
     20 H3          0.1110  -13.5390    2.0189 H         1 I5I         0.0514
     21 H4         -5.2796  -15.9628    0.9023 H         1 I5I         0.0518
     22 H5         -9.0679  -11.6362    0.0929 H         1 I5I         0.0345
     23 H6         -9.1362  -11.5922    1.8874 H         1 I5I         0.0345
     24 H7         -9.6765  -13.8770    0.1250 H         1 I5I         0.0530
     25 H8         -9.7437  -13.8333    1.9195 H         1 I5I         0.0530
     26 H9         -7.7228  -15.3299    1.1874 H         1 I5I         0.1878
     27 H10         0.1676  -16.8201    0.9834 H         1 I5I         0.2360
     28 H11         0.7291  -15.1171    3.3482 H         1 I5I         0.1310
@<TRIPOS>BOND
     1    1    2 ar 
     2    1    6 ar 
     3    1   15 1  
     4    2    3 ar 
     5    3    4 ar 
     6    3    7 1  
     7    4    5 ar 
     8    4    9 1  
     9    5    6 ar 
    10    7    8 2  
    11    8    9 1  
    12    8   10 1  
    13   10   11 2  
    14   10   14 1  
    15   11   12 1  
    16   12   13 1  
    17   13   14 1  
    18   15   16 am 
    19   16   17 2  
    20    2   18 1  
    21    5   19 1  
    22    6   20 1  
    23    7   21 1  
    24   12   22 1  
    25   12   23 1  
    26   13   24 1  
    27   13   25 1  
    28   14   26 1  
    29   15   27 1  
    30   16   28 1  
@<TRIPOS>SUBSTRUCTURE
     1 I5I         1

