### 
### Created by X-TOOL on Mon Sep 10 21:13:05 2018
### 

@<TRIPOS>MOLECULE
3as0_ligand
   40    45     1     0     0
SMALL
GAST_HUCK


@<TRIPOS>ATOM
      1 N          -4.5200    7.9810   20.4770 N.pl3     1 SAU        -0.3002
      2 C1          1.5410    6.0380   19.0800 C.3       1 SAU         0.1887
      3 O1          0.2520    6.5670   18.6160 O.3       1 SAU        -0.2890
      4 C2         -0.0500    5.3230   20.4650 C.ar      1 SAU         0.1261
      5 O2          1.1930    4.9510   19.9980 O.3       1 SAU        -0.2871
      6 C3         -0.6050    6.3020   19.6290 C.ar      1 SAU         0.1261
      7 O3         -9.6260    8.7200   23.5900 O.3       1 SAU        -0.2940
      8 C4         -0.7880    4.8980   21.5850 C.ar      1 SAU        -0.0365
      9 O4         -8.5680    9.4980   21.7370 O.3       1 SAU        -0.2960
     10 C5         -2.0550    5.4330   21.8680 C.ar      1 SAU        -0.0470
     11 C6         -2.6140    6.4140   21.0270 C.ar      1 SAU        -0.0099
     12 C7         -1.8620    6.8310   19.9140 C.ar      1 SAU        -0.0317
     13 C8         -2.7360    4.9810   22.9880 C.ar      1 SAU        -0.0814
     14 C9         -3.9930    5.5200   23.2770 C.ar      1 SAU        -0.0793
     15 C10        -3.8930    6.9680   21.3080 C.ar      1 SAU         0.0523
     16 C12        -5.8080    8.4910   20.8390 C.3       1 SAU         0.0571
     17 C13        -6.4750    8.0210   21.9900 C.ar      1 SAU         0.0041
     18 C14        -5.8700    7.0270   22.8060 C.ar      1 SAU        -0.0437
     19 C15        -4.5890    6.5070   22.4590 C.ar      1 SAU        -0.0182
     20 C18        -6.5490    6.5620   23.9550 C.ar      1 SAU        -0.0839
     21 C19        -7.8090    7.0640   24.2980 C.ar      1 SAU        -0.0493
     22 C20        -8.4160    8.0460   23.4890 C.ar      1 SAU         0.1153
     23 C21        -7.7540    8.5330   22.3310 C.ar      1 SAU         0.1245
     24 C23        -9.4160    9.9760   22.8390 C.3       1 SAU         0.1847
     25 C25        -3.8740    8.5450   19.2430 C.3       1 SAU         0.0190
     26 H1          2.1139    6.8179   19.6030 H         1 SAU         0.0977
     27 H2          2.1301    5.6559   18.2333 H         1 SAU         0.0977
     28 H3         -0.3706    4.1433   22.2418 H         1 SAU         0.0462
     29 H4         -2.2737    7.5884   19.2568 H         1 SAU         0.0493
     30 H5         -2.3010    4.2225   23.6287 H         1 SAU         0.0437
     31 H6         -4.5263    5.1710   24.1539 H         1 SAU         0.0526
     32 H7         -6.4748    8.2918   19.9871 H         1 SAU         0.0655
     33 H8         -5.6905    9.5772   20.9665 H         1 SAU         0.0655
     34 H9         -6.0870    5.8058   24.5793 H         1 SAU         0.0460
     35 H10        -8.3170    6.6989   25.1833 H         1 SAU         0.0456
     36 H11        -8.8993   10.7313   23.4493 H         1 SAU         0.0969
     37 H12       -10.3654   10.3903   22.4691 H         1 SAU         0.0969
     38 H13        -2.8967    8.0644   19.0885 H         1 SAU         0.0485
     39 H14        -3.7342    9.6292   19.3652 H         1 SAU         0.0485
     40 H15        -4.5182    8.3542   18.3720 H         1 SAU         0.0485
@<TRIPOS>BOND
     1    1   15 1  
     2   16    1 1  
     3    1   25 1  
     4    3    2 1  
     5    5    2 1  
     6    6    3 1  
     7    4    5 1  
     8    6    4 ar 
     9    8    4 ar 
    10   12    6 ar 
    11    7   22 1  
    12   24    7 1  
    13   10    8 ar 
    14   23    9 1  
    15    9   24 1  
    16   11   10 ar 
    17   10   13 ar 
    18   11   12 ar 
    19   15   11 ar 
    20   14   13 ar 
    21   19   14 ar 
    22   15   19 ar 
    23   17   16 1  
    24   17   18 ar 
    25   17   23 ar 
    26   18   19 1  
    27   18   20 ar 
    28   20   21 ar 
    29   21   22 ar 
    30   22   23 ar 
    31    2   26 1  
    32    2   27 1  
    33    8   28 1  
    34   12   29 1  
    35   13   30 1  
    36   14   31 1  
    37   16   32 1  
    38   16   33 1  
    39   20   34 1  
    40   21   35 1  
    41   24   36 1  
    42   24   37 1  
    43   25   38 1  
    44   25   39 1  
    45   25   40 1  
@<TRIPOS>SUBSTRUCTURE
     1 SAU         1

