### 
### Created by X-TOOL on Mon Sep 10 21:13:05 2018
### 

@<TRIPOS>MOLECULE
3as1_ligand
   45    49     1     0     0
SMALL
GAST_HUCK


@<TRIPOS>ATOM
      1 C1         -1.7840    6.7500   20.1530 C.ar      1 CTI        -0.0317
      2 C2         -2.6150    6.3670   21.2180 C.ar      1 CTI        -0.0099
      3 C3         -2.1480    5.4110   22.1550 C.ar      1 CTI        -0.0470
      4 C4         -0.8710    4.8590   22.0060 C.ar      1 CTI        -0.0365
      5 C5         -3.9020    6.9330   21.3490 C.ar      1 CTI         0.0523
      6 C6         -4.7130    6.5180   22.4440 C.ar      1 CTI        -0.0182
      7 C7         -4.2190    5.5640   23.3670 C.ar      1 CTI        -0.0793
      8 C8         -2.9410    5.0100   23.2250 C.ar      1 CTI        -0.0814
      9 N9         -4.4100    7.9070   20.4140 N.pl3     1 CTI        -0.3002
     10 C10        -6.0140    7.0570   22.6140 C.ar      1 CTI        -0.0437
     11 C11        -6.4990    8.0080   21.6890 C.ar      1 CTI         0.0040
     12 C12        -5.7010    8.4230   20.6100 C.3       1 CTI         0.0571
     13 C13        -3.6640    8.4200   19.2260 C.3       1 CTI         0.0190
     14 C14        -8.6000    8.1620   22.9270 C.ar      1 CTI         0.1115
     15 C15        -8.1150    7.2070   23.8440 C.ar      1 CTI        -0.0494
     16 C16        -6.8330    6.6630   23.6920 C.ar      1 CTI        -0.0839
     17 C17        -7.7900    8.5520   21.8340 C.ar      1 CTI         0.1207
     18 O18        -8.2400    9.4650   20.9060 O.3       1 CTI        -0.3298
     19 C19        -8.7410    8.7690   19.7140 C.3       1 CTI         0.0550
     20 O20        -9.8690    8.6910   23.0880 O.3       1 CTI        -0.3277
     21 C21        -9.9940    9.9810   23.7870 C.3       1 CTI         0.0564
     22 C22        -0.5160    6.2020   20.0100 C.ar      1 CTI         0.1261
     23 C23        -0.0500    5.2590   20.9370 C.ar      1 CTI         0.1261
     24 O24         0.4430    6.4190   19.0750 O.3       1 CTI        -0.2890
     25 C25         1.6630    5.9000   19.6510 C.3       1 CTI         0.1887
     26 O26         1.2210    4.8840   20.5760 O.3       1 CTI        -0.2871
     27 H1         -2.1360    7.4814   19.4346 H         1 CTI         0.0493
     28 H2         -0.5140    4.1217   22.7159 H         1 CTI         0.0462
     29 H3         -4.8422    5.2570   24.1991 H         1 CTI         0.0526
     30 H4         -2.5753    4.2799   23.9379 H         1 CTI         0.0437
     31 H5         -6.2695    8.1934   19.6967 H         1 CTI         0.0655
     32 H6         -5.5886    9.5129   20.7077 H         1 CTI         0.0655
     33 H7         -2.6733    7.9440   19.1816 H         1 CTI         0.0485
     34 H8         -3.5435    9.5100   19.3113 H         1 CTI         0.0485
     35 H9         -4.2257    8.1837   18.3102 H         1 CTI         0.0485
     36 H10        -8.7386    6.8915   24.6726 H         1 CTI         0.0456
     37 H11        -6.4685    5.9348   24.4075 H         1 CTI         0.0460
     38 H12        -9.0972    9.5076   18.9808 H         1 CTI         0.0569
     39 H13        -9.5707    8.1053   19.9986 H         1 CTI         0.0569
     40 H14        -7.9304    8.1729   19.2696 H         1 CTI         0.0569
     41 H15       -11.0543   10.2697   23.8369 H         1 CTI         0.0572
     42 H16        -9.4298   10.7507   23.2399 H         1 CTI         0.0572
     43 H17        -9.5914    9.8863   24.8063 H         1 CTI         0.0572
     44 H18         2.2126    6.6936   20.1784 H         1 CTI         0.0977
     45 H19         2.3060    5.4639   18.8724 H         1 CTI         0.0977
@<TRIPOS>BOND
     1    2    1 ar 
     2    1   22 ar 
     3    2    3 ar 
     4    5    2 ar 
     5    3    4 ar 
     6    8    3 ar 
     7    4   23 ar 
     8    6    5 ar 
     9    9    5 1  
    10    6    7 ar 
    11   10    6 1  
    12    7    8 ar 
    13   12    9 1  
    14    9   13 1  
    15   11   10 ar 
    16   10   16 ar 
    17   11   12 1  
    18   17   11 ar 
    19   14   15 ar 
    20   14   17 ar 
    21   14   20 1  
    22   15   16 ar 
    23   17   18 1  
    24   18   19 1  
    25   20   21 1  
    26   22   23 ar 
    27   22   24 1  
    28   23   26 1  
    29   24   25 1  
    30   25   26 1  
    31    1   27 1  
    32    4   28 1  
    33    7   29 1  
    34    8   30 1  
    35   12   31 1  
    36   12   32 1  
    37   13   33 1  
    38   13   34 1  
    39   13   35 1  
    40   15   36 1  
    41   16   37 1  
    42   19   38 1  
    43   19   39 1  
    44   19   40 1  
    45   21   41 1  
    46   21   42 1  
    47   21   43 1  
    48   25   44 1  
    49   25   45 1  
@<TRIPOS>SUBSTRUCTURE
     1 CTI         1

