### 
### Created by X-TOOL on Mon Sep 10 21:13:05 2018
### 

@<TRIPOS>MOLECULE
3as2_ligand
   44    45     1     0     0
SMALL
GAST_HUCK


@<TRIPOS>ATOM
      1 N1         -1.6390    7.6160   18.5800 N.am      1 POY        -0.1709
      2 C2         -0.5910    6.7430   18.9880 C.2       1 POY         0.2299
      3 C3         -0.6850    6.0480   20.1990 C.2       1 POY         0.1626
      4 C4         -1.8250    6.2130   21.0330 C.2       1 POY         0.1377
      5 N5         -2.9130    7.0960   20.6710 N.am      1 POY        -0.2025
      6 C6         -2.8080    7.8020   19.4080 C.2       1 POY         0.3179
      7 N7          0.1420    5.1870   20.8120 N.pl3     1 POY        -0.2513
      8 C8         -0.4300    4.8140   21.9660 C.2       1 POY         0.0978
      9 N9         -1.6170    5.4310   22.0990 N.2       1 POY        -0.2858
     10 C10        -1.5140    8.3210   17.2810 C.3       1 POY         0.0589
     11 C11        -0.9280    9.7080   17.4940 C.3       1 POY        -0.0260
     12 C12        -1.3590   10.6150   16.3420 C.3       1 POY        -0.0350
     13 C13        -0.1720   10.8480   15.4400 C.3       1 POY         0.0209
     14 C14        -0.5690   11.7580   14.3110 C.2       1 POY         0.1019
     15 C15        -0.6090   11.2250   12.8740 C.3       1 POY         0.0094
     16 O16        -0.7200   12.9350   14.5290 O.2       1 POY        -0.3919
     17 O17         0.4080    6.5840   18.2870 O.2       1 POY        -0.4007
     18 O18        -3.6940    8.5680   19.0120 O.2       1 POY        -0.3873
     19 C19        -4.1030    7.2530   21.5720 C.3       1 POY         0.0446
     20 C20         1.4810    4.6910   20.3370 C.3       1 POY         0.0534
     21 C21         2.6620    5.6310   20.7500 C.3       1 POY        -0.0284
     22 C22         3.5760    5.1730   21.9280 C.3       1 POY        -0.0628
     23 H1          0.0006    4.1184   22.6848 H         1 POY         0.1263
     24 H2         -2.5083    8.4130   16.8197 H         1 POY         0.0576
     25 H3         -0.8533    7.7450   16.6164 H         1 POY         0.0576
     26 H4          0.1698    9.6439   17.5215 H         1 POY         0.0290
     27 H5         -1.2951   10.1210   18.4451 H         1 POY         0.0290
     28 H6         -1.7151   11.5763   16.7409 H         1 POY         0.0291
     29 H7         -2.1671   10.1321   15.7730 H         1 POY         0.0291
     30 H8          0.1721    9.8863   15.0316 H         1 POY         0.0494
     31 H9          0.6408   11.3133   16.0170 H         1 POY         0.0494
     32 H10        -0.9192   12.0309   12.1926 H         1 POY         0.0458
     33 H11        -1.3275   10.3945   12.8108 H         1 POY         0.0458
     34 H12         0.3910   10.8673   12.5876 H         1 POY         0.0458
     35 H13        -3.9694    6.6289   22.4679 H         1 POY         0.0548
     36 H14        -5.0115    6.9379   21.0378 H         1 POY         0.0548
     37 H15        -4.2003    8.3072   21.8707 H         1 POY         0.0548
     38 H16         1.4586    4.6175   19.2397 H         1 POY         0.0611
     39 H17         1.6588    3.6946   20.7677 H         1 POY         0.0611
     40 H18         2.2267    6.6015   21.0303 H         1 POY         0.0289
     41 H19         3.3045    5.7588   19.8664 H         1 POY         0.0289
     42 H20         4.3557    5.9291   22.1025 H         1 POY         0.0231
     43 H21         4.0474    4.2121   21.6742 H         1 POY         0.0231
     44 H22         2.9696    5.0549   22.8381 H         1 POY         0.0231
@<TRIPOS>BOND
     1    1    2 am 
     2    1    6 am 
     3    1   10 1  
     4    2    3 1  
     5    2   17 2  
     6    3    4 2  
     7    3    7 1  
     8    4    5 1  
     9    4    9 1  
    10    5    6 am 
    11    5   19 1  
    12    6   18 2  
    13    7    8 1  
    14    7   20 1  
    15    8    9 2  
    16   10   11 1  
    17   11   12 1  
    18   12   13 1  
    19   13   14 1  
    20   14   15 1  
    21   14   16 2  
    22   20   21 1  
    23   21   22 1  
    24    8   23 1  
    25   10   24 1  
    26   10   25 1  
    27   11   26 1  
    28   11   27 1  
    29   12   28 1  
    30   12   29 1  
    31   13   30 1  
    32   13   31 1  
    33   15   32 1  
    34   15   33 1  
    35   15   34 1  
    36   19   35 1  
    37   19   36 1  
    38   19   37 1  
    39   20   38 1  
    40   20   39 1  
    41   21   40 1  
    42   21   41 1  
    43   22   42 1  
    44   22   43 1  
    45   22   44 1  
@<TRIPOS>SUBSTRUCTURE
     1 POY         1

