### 
### Created by X-TOOL on Mon Sep 10 21:13:05 2018
### 

@<TRIPOS>MOLECULE
3as3_ligand
   28    30     1     0     0
SMALL
GAST_HUCK


@<TRIPOS>ATOM
      1 C1         -0.1800    5.1350   20.2270 C.ar      1 I5I         0.0636
      2 C2         -1.3890    5.1160   20.9710 C.ar      1 I5I        -0.0427
      3 C3         -2.4460    6.0170   20.6850 C.ar      1 I5I        -0.0069
      4 C4         -2.2740    6.9380   19.6440 C.ar      1 I5I         0.1197
      5 C5         -1.0740    6.9660   18.9050 C.ar      1 I5I        -0.0333
      6 C6         -0.0390    6.0750   19.1970 C.ar      1 I5I        -0.0415
      7 C7         -3.6800    6.2230   21.2060 C.2       1 I5I        -0.0211
      8 C8         -4.3010    7.2360   20.5540 C.2       1 I5I         0.1750
      9 O9         -3.4360    7.6830   19.5770 O.3       1 I5I        -0.2484
     10 C10        -5.6070    7.7930   20.7000 C.2       1 I5I         0.1422
     11 N11        -6.2440    8.5020   19.7330 N.pl3     1 I5I        -0.2938
     12 C12        -7.6220    8.8930   20.1030 C.3       1 I5I         0.0366
     13 C13        -7.7650    8.2780   21.4910 C.3       1 I5I         0.0032
     14 N14        -6.4590    7.6020   21.7280 N.2       1 I5I        -0.3590
     15 N15         0.8700    4.2960   20.4640 N.am      1 I5I        -0.2552
     16 C16         0.7810    2.9860   20.7490 C.2       1 I5I         0.0668
     17 S17         2.1620    1.9430   21.0000 S.2       1 I5I        -0.2378
     18 H1         -1.5066    4.3978   21.7744 H         1 I5I         0.0447
     19 H2         -0.9535    7.6854   18.1031 H         1 I5I         0.0551
     20 H3          0.8799    6.1107   18.6230 H         1 I5I         0.0514
     21 H4         -4.1107    5.6561   22.0301 H         1 I5I         0.0518
     22 H5         -5.8104    8.7439   18.8305 H         1 I5I         0.1878
     23 H6         -8.3584    8.4729   19.4021 H         1 I5I         0.0530
     24 H7         -7.7313    9.9870   20.1376 H         1 I5I         0.0530
     25 H8         -8.5901    7.5508   21.5123 H         1 I5I         0.0345
     26 H9         -7.9435    9.0574   22.2465 H         1 I5I         0.0345
     27 H10         1.7875    4.6915   20.4218 H         1 I5I         0.2360
     28 H11        -0.2123    2.5467   20.8286 H         1 I5I         0.1310
@<TRIPOS>BOND
     1    1    2 ar 
     2    1    6 ar 
     3    1   15 1  
     4    2    3 ar 
     5    3    4 ar 
     6    3    7 1  
     7    4    5 ar 
     8    4    9 1  
     9    5    6 ar 
    10    7    8 2  
    11    8    9 1  
    12    8   10 1  
    13   10   11 1  
    14   10   14 2  
    15   11   12 1  
    16   12   13 1  
    17   13   14 1  
    18   15   16 am 
    19   16   17 2  
    20    2   18 1  
    21    5   19 1  
    22    6   20 1  
    23    7   21 1  
    24   11   22 1  
    25   12   23 1  
    26   12   24 1  
    27   13   25 1  
    28   13   26 1  
    29   15   27 1  
    30   16   28 1  
@<TRIPOS>SUBSTRUCTURE
     1 I5I         1

