### 
### Created by X-TOOL on Mon Sep 10 21:13:06 2018
### 

@<TRIPOS>MOLECULE
3asx_ligand
   70    72     1     0     0
SMALL
GAST_HUCK


@<TRIPOS>ATOM
      1 C1         17.1720   -3.6090   55.0720 C.ar      1 D99         0.0767
      2 N1         17.7110   -4.4110   56.1220 N.am      1 D99        -0.2216
      3 O1         18.2250   -0.9550   56.5470 O.3       1 D99        -0.3693
      4 CL1        20.8020   -3.0400   53.5230 Cl        1 D99        -0.0768
      5 C2         16.0590   -4.1290   54.3920 C.ar      1 D99        -0.0460
      6 N2         16.6720   -2.1020   60.8980 N.am      1 D99        -0.2712
      7 O2         17.3800   -5.0240   58.2240 O.2       1 D99        -0.3852
      8 CL2        15.2160   -1.1440   51.7320 Cl        1 D99        -0.0865
      9 C3         15.4900   -3.3920   53.3120 C.ar      1 D99        -0.0683
     10 O3         17.6730   -2.0720   58.8660 O.2       1 D99        -0.3967
     11 C4         15.9900   -2.1250   53.0290 C.ar      1 D99         0.0178
     12 O4         13.3240   -2.0530   63.5300 O.co2     1 D99        -0.5687
     13 C5         17.1170   -1.6100   53.7100 C.ar      1 D99        -0.0551
     14 O5         13.8630   -0.0160   64.1890 O.co2     1 D99        -0.5687
     15 C6         17.6860   -2.3480   54.7330 C.ar      1 D99         0.0194
     16 C7         18.8270   -1.7400   55.4850 C.3       1 D99         0.1194
     17 C8         19.7400   -0.8120   54.7180 C.ar      1 D99         0.0082
     18 C9         20.6910   -1.2910   53.8320 C.ar      1 D99         0.0452
     19 C10        21.5820   -0.4420   53.1940 C.ar      1 D99        -0.0543
     20 C11        21.4820    0.9240   53.4140 C.ar      1 D99        -0.0681
     21 C12        20.5160    1.4400   54.2820 C.ar      1 D99        -0.0681
     22 C13        19.6330    0.5850   54.9270 C.ar      1 D99        -0.0557
     23 C14        17.0270   -4.3600   57.2880 C.2       1 D99         0.2069
     24 C15        15.7980   -3.4450   57.4440 C.3       1 D99         0.0599
     25 C16        15.5750   -3.1990   58.9680 C.3       1 D99         0.0547
     26 C17        16.7170   -2.4000   59.5700 C.2       1 D99         0.1808
     27 C18        15.4230   -2.1920   61.6970 C.3       1 D99         0.0481
     28 C19        15.5800   -1.4330   63.0240 C.3       1 D99         0.0322
     29 C20        16.3650   -0.1270   62.7840 C.3       1 D99        -0.0349
     30 C21        17.7540   -0.3790   62.1790 C.3       1 D99        -0.0307
     31 C22        17.9060   -1.8010   61.6380 C.3       1 D99         0.0341
     32 C23        14.1910   -1.1810   63.5930 C.2       1 D99         0.0398
     33 C24        18.9500   -5.2230   55.9130 C.3       1 D99         0.0593
     34 C25        18.7830   -6.6130   55.3220 C.3       1 D99        -0.0125
     35 C26        17.6280   -7.4140   55.9390 C.3       1 D99        -0.0578
     36 C27        20.0960   -7.2870   55.6750 C.3       1 D99        -0.0578
     37 C28        18.6620   -6.5330   53.7790 C.3       1 D99        -0.0578
     38 H1         17.7072   -1.5234   57.1049 H         1 D99         0.2158
     39 H2         15.6358   -5.0828   54.6856 H         1 D99         0.0482
     40 H3         14.6827   -3.8112   52.7224 H         1 D99         0.0529
     41 H4         17.5310   -0.6471   53.4336 H         1 D99         0.0524
     42 H5         19.4379   -2.5524   55.9054 H         1 D99         0.0891
     43 H6         22.3446   -0.8391   52.5338 H         1 D99         0.0605
     44 H7         22.1614    1.5993   52.9065 H         1 D99         0.0560
     45 H8         20.4562    2.5090   54.4518 H         1 D99         0.0601
     46 H9         18.8685    0.9827   55.5846 H         1 D99         0.0560
     47 H10        14.9120   -3.9317   57.0103 H         1 D99         0.0532
     48 H11        15.9774   -2.4875   56.9331 H         1 D99         0.0532
     49 H12        15.5068   -4.1694   59.4815 H         1 D99         0.0527
     50 H13        14.6361   -2.6433   59.1078 H         1 D99         0.0527
     51 H14        15.2030   -3.2489   61.9079 H         1 D99         0.0543
     52 H15        14.5936   -1.7521   61.1238 H         1 D99         0.0543
     53 H16        16.1457   -2.0541   63.7341 H         1 D99         0.0486
     54 H17        16.4880    0.3926   63.7457 H         1 D99         0.0287
     55 H18        15.7900    0.5087   62.0947 H         1 D99         0.0287
     56 H19        18.5134   -0.2145   62.9576 H         1 D99         0.0286
     57 H20        17.9142    0.3314   61.3546 H         1 D99         0.0286
     58 H21        18.7754   -1.8609   60.9668 H         1 D99         0.0522
     59 H22        18.0338   -2.5114   62.4681 H         1 D99         0.0522
     60 H23        19.4389   -5.3371   56.8917 H         1 D99         0.0589
     61 H24        19.6074   -4.6545   55.2387 H         1 D99         0.0589
     62 H25        17.5719   -8.4034   55.4616 H         1 D99         0.0236
     63 H26        16.6821   -6.8757   55.7794 H         1 D99         0.0236
     64 H27        17.8024   -7.5370   57.0181 H         1 D99         0.0236
     65 H28        20.9294   -6.7187   55.2363 H         1 D99         0.0236
     66 H29        20.1009   -8.3120   55.2759 H         1 D99         0.0236
     67 H30        20.2095   -7.3187   56.7687 H         1 D99         0.0236
     68 H31        17.7131   -6.0457   53.5104 H         1 D99         0.0236
     69 H32        18.6853   -7.5482   53.3562 H         1 D99         0.0236
     70 H33        19.5016   -5.9482   53.3752 H         1 D99         0.0236
@<TRIPOS>BOND
     1    2    1 1  
     2    1    5 ar 
     3    1   15 ar 
     4   23    2 am 
     5    2   33 1  
     6   16    3 1  
     7   18    4 1  
     8    5    9 ar 
     9    6   26 am 
    10   27    6 1  
    11    6   31 1  
    12   23    7 2  
    13   11    8 1  
    14    9   11 ar 
    15   26   10 2  
    16   13   11 ar 
    17   32   12 ar 
    18   15   13 ar 
    19   32   14 ar 
    20   15   16 1  
    21   16   17 1  
    22   17   18 ar 
    23   17   22 ar 
    24   18   19 ar 
    25   19   20 ar 
    26   21   20 ar 
    27   22   21 ar 
    28   24   23 1  
    29   25   24 1  
    30   26   25 1  
    31   28   27 1  
    32   28   29 1  
    33   28   32 1  
    34   29   30 1  
    35   30   31 1  
    36   33   34 1  
    37   34   35 1  
    38   34   36 1  
    39   34   37 1  
    40    3   38 1  
    41    5   39 1  
    42    9   40 1  
    43   13   41 1  
    44   16   42 1  
    45   19   43 1  
    46   20   44 1  
    47   21   45 1  
    48   22   46 1  
    49   24   47 1  
    50   24   48 1  
    51   25   49 1  
    52   25   50 1  
    53   27   51 1  
    54   27   52 1  
    55   28   53 1  
    56   29   54 1  
    57   29   55 1  
    58   30   56 1  
    59   30   57 1  
    60   31   58 1  
    61   31   59 1  
    62   33   60 1  
    63   33   61 1  
    64   35   62 1  
    65   35   63 1  
    66   35   64 1  
    67   36   65 1  
    68   36   66 1  
    69   36   67 1  
    70   37   68 1  
    71   37   69 1  
    72   37   70 1  
@<TRIPOS>SUBSTRUCTURE
     1 D99         1

