### 
### Created by X-TOOL on Mon Sep 10 21:13:08 2018
### 

@<TRIPOS>MOLECULE
3at3_ligand
   51    55     1     0     0
SMALL
GAST_HUCK


@<TRIPOS>ATOM
      1 N1         50.7070    9.0770   10.3080 N.ar      1 ATK        -0.2854
      2 N4         51.1820   10.5950   12.5270 N.ar      1 ATK        -0.2164
      3 C11        50.9090   10.3790   10.1850 C.ar      1 ATK         0.0656
      4 C12        51.1610   11.1710   11.3370 C.ar      1 ATK         0.1983
      5 N13        51.3890   12.5240   11.2580 N.pl3     1 ATK        -0.1391
      6 C14        50.9650    9.2950   12.6540 C.ar      1 ATK         0.1858
      7 C15        50.7220    8.5000   11.4980 C.ar      1 ATK         0.0656
      8 N15        50.9800    8.7840   13.9160 N.pl3     1 ATK        -0.2292
      9 C17        51.4410   13.4500   12.2460 C.ar      1 ATK         0.1008
     10 C18        51.6370   14.7150   11.6760 C.ar      1 ATK         0.0048
     11 N20        51.5590   13.0890   10.1690 N.2       1 ATK        -0.1928
     12 C28        51.7030   14.4100   10.3080 C.2       1 ATK         0.0180
     13 C35        51.4110    9.2640   15.2110 C.2       1 ATK         0.0313
     14 C36        51.5350    8.2860   16.2000 C.2       1 ATK        -0.0519
     15 C37        51.1450    7.0800   15.6130 C.2       1 ATK        -0.0758
     16 C38        50.5860    7.4710   14.4010 C.2       1 ATK         0.0302
     17 C44        51.7280   15.9160   12.3670 C.ar      1 ATK        -0.0693
     18 N44        51.3810   14.5970   15.7500 N.pl3     1 ATK        -0.3213
     19 C45        51.6270   15.8270   13.7670 C.ar      1 ATK        -0.0496
     20 C46        51.4500   14.5700   14.4040 C.ar      1 ATK         0.0321
     21 C47        51.3440   13.3550   13.6510 C.ar      1 ATK        -0.0150
     22 C48        51.6300   13.3940   16.5550 C.3       1 ATK         0.0352
     23 C57        50.3000   12.9860   17.1940 C.3       1 ATK        -0.0306
     24 C58        50.3650   13.6850   18.5530 C.3       1 ATK        -0.0509
     25 C59        51.6650   14.5020   18.6430 C.3       1 ATK        -0.0509
     26 C60        52.5760   13.7260   17.7250 C.3       1 ATK        -0.0306
     27 O61        50.8260    8.6910   19.6960 O.co2     1 ATK        -0.5673
     28 O63        50.1080    7.1470   18.3800 O.co2     1 ATK        -0.5673
     29 C66        51.9820    8.4470   17.6220 C.3       1 ATK         0.0149
     30 C68        50.8880    8.0680   18.6450 C.2       1 ATK         0.0406
     31 H          50.8820   10.8439    9.1995 H         1 ATK         0.0809
     32 H          50.5502    7.4278   11.5927 H         1 ATK         0.0809
     33 H          51.8468   15.1264    9.4992 H         1 ATK         0.0726
     34 H          51.6241   10.3159   15.4014 H         1 ATK         0.0710
     35 H          51.2532    6.0710   16.0108 H         1 ATK         0.0275
     36 H          49.8957    6.8330   13.8491 H         1 ATK         0.0818
     37 H          51.8689   16.8685   11.8562 H         1 ATK         0.0583
     38 H          51.1507   15.4725   16.2200 H         1 ATK         0.1761
     39 H          51.6852   16.7331   14.3700 H         1 ATK         0.0473
     40 H          51.1943   12.3946   14.1443 H         1 ATK         0.0443
     41 H          52.0585   12.6184   15.9202 H         1 ATK         0.0548
     42 H          50.1746   11.9061   17.2722 H         1 ATK         0.0287
     43 H          49.4321   13.2773   16.6024 H         1 ATK         0.0287
     44 H          50.3469   12.9394   19.3479 H         1 ATK         0.0266
     45 H          49.5081   14.3497   18.6627 H         1 ATK         0.0266
     46 H          52.0494   14.5977   19.6585 H         1 ATK         0.0266
     47 H          51.5435   15.5462   18.3547 H         1 ATK         0.0266
     48 H          53.4638   14.2813   17.4222 H         1 ATK         0.0287
     49 H          53.0158   12.8448   18.1920 H         1 ATK         0.0287
     50 H          52.2305    9.4972   17.7752 H         1 ATK         0.0518
     51 H          52.8303    7.7813   17.7809 H         1 ATK         0.0518
@<TRIPOS>BOND
     1    1    3 ar 
     2    7    1 ar 
     3    2    4 ar 
     4    6    2 ar 
     5    4    3 ar 
     6    4    5 1  
     7    5    9 1  
     8    5   11 1  
     9    6    7 ar 
    10    8    6 1  
    11   13    8 1  
    12   16    8 1  
    13    9   10 ar 
    14    9   21 ar 
    15   12   10 1  
    16   10   17 ar 
    17   11   12 2  
    18   14   13 2  
    19   14   15 1  
    20   29   14 1  
    21   15   16 2  
    22   17   19 ar 
    23   20   18 1  
    24   18   22 1  
    25   20   19 ar 
    26   21   20 ar 
    27   22   23 1  
    28   22   26 1  
    29   23   24 1  
    30   25   24 1  
    31   26   25 1  
    32   30   27 ar 
    33   30   28 ar 
    34   29   30 1  
    35    3   31 1  
    36    7   32 1  
    37   12   33 1  
    38   13   34 1  
    39   15   35 1  
    40   16   36 1  
    41   17   37 1  
    42   18   38 1  
    43   19   39 1  
    44   21   40 1  
    45   22   41 1  
    46   23   42 1  
    47   23   43 1  
    48   24   44 1  
    49   24   45 1  
    50   25   46 1  
    51   25   47 1  
    52   26   48 1  
    53   26   49 1  
    54   29   50 1  
    55   29   51 1  
@<TRIPOS>SUBSTRUCTURE
     1 ATK         1

