### 
### Created by X-TOOL on Mon Sep 10 21:13:08 2018
### 

@<TRIPOS>MOLECULE
3at4_ligand
   47    50     1     0     0
SMALL
GAST_HUCK


@<TRIPOS>ATOM
      1 N1        -25.1630   -9.1420  -29.5900 N.ar      1 CCK        -0.2854
      2 C2        -25.3790  -10.4650  -29.7320 C.ar      1 CCK         0.0656
      3 C3        -25.6700  -11.2840  -28.6050 C.ar      1 CCK         0.1983
      4 N4        -25.7230  -10.7100  -27.3800 N.ar      1 CCK        -0.2164
      5 C5        -25.4890   -9.4050  -27.2670 C.ar      1 CCK         0.1858
      6 C6        -25.2030   -8.5860  -28.3890 C.ar      1 CCK         0.0656
      7 N13       -25.9000  -12.6170  -28.7640 N.pl3     1 CCK        -0.1391
      8 N15       -25.5210   -8.8510  -26.0470 N.pl3     1 CCK        -0.2292
      9 C17       -26.0000  -13.6020  -27.8370 C.ar      1 CCK         0.1008
     10 C18       -26.2570  -14.8190  -28.4690 C.ar      1 CCK         0.0048
     11 C19       -26.3040  -14.4370  -29.8220 C.2       1 CCK         0.0180
     12 N20       -26.0490  -13.1210  -29.8910 N.2       1 CCK        -0.1928
     13 C26       -25.8140   -9.4160  -24.7480 C.2       1 CCK         0.0313
     14 C27       -25.8410   -8.5280  -23.7030 C.2       1 CCK        -0.0519
     15 C28       -25.4930   -7.2670  -24.2330 C.2       1 CCK        -0.0758
     16 C29       -25.3040   -7.4750  -25.6030 C.2       1 CCK         0.0302
     17 C35       -26.4110  -16.0510  -27.8340 C.ar      1 CCK        -0.0693
     18 C36       -26.2910  -16.0500  -26.4310 C.ar      1 CCK        -0.0496
     19 C37       -26.0320  -14.8380  -25.7380 C.ar      1 CCK         0.0321
     20 C38       -25.8850  -13.5920  -26.4340 C.ar      1 CCK        -0.0150
     21 N44       -25.9190  -14.8940  -24.3800 N.pl3     1 CCK        -0.3218
     22 C46       -26.0530  -13.7080  -23.5480 C.3       1 CCK         0.0296
     23 C48       -24.7970  -13.4200  -22.7100 C.3       1 CCK        -0.0429
     24 C51       -27.3490  -13.7310  -22.7350 C.3       1 CCK        -0.0429
     25 C57       -26.2210   -8.9040  -22.2910 C.3       1 CCK         0.0149
     26 C59       -25.4200   -8.1890  -21.2120 C.2       1 CCK         0.0406
     27 O61       -24.7790   -7.1440  -21.4800 O.co2     1 CCK        -0.5673
     28 O63       -25.4780   -8.7170  -20.1000 O.co2     1 CCK        -0.5673
     29 H1        -25.3304  -10.9114  -30.7186 H         1 CCK         0.0809
     30 H2        -25.0206   -7.5246  -28.2656 H         1 CCK         0.0809
     31 H3        -26.5110  -15.0938  -30.6656 H         1 CCK         0.0726
     32 H4        -26.0014  -10.4797  -24.6085 H         1 CCK         0.0710
     33 H5        -25.3927   -6.3288  -23.6892 H         1 CCK         0.0275
     34 H6        -25.0179   -6.6756  -26.2849 H         1 CCK         0.0818
     35 H7        -26.6121  -16.9596  -28.3900 H         1 CCK         0.0583
     36 H8        -26.3966  -16.9767  -25.8786 H         1 CCK         0.0473
     37 H9        -25.6913  -12.6711  -25.8960 H         1 CCK         0.0443
     38 H10       -25.7335  -15.8020  -23.9305 H         1 CCK         0.1761
     39 H11       -26.1479  -12.8591  -24.2411 H         1 CCK         0.0543
     40 H12       -24.9592  -12.5156  -22.1052 H         1 CCK         0.0251
     41 H13       -23.9376  -13.2645  -23.3788 H         1 CCK         0.0251
     42 H14       -24.5953  -14.2737  -22.0462 H         1 CCK         0.0251
     43 H15       -27.4129  -12.8205  -22.1211 H         1 CCK         0.0251
     44 H16       -27.3559  -14.6154  -22.0809 H         1 CCK         0.0251
     45 H17       -28.2099  -13.7736  -23.4184 H         1 CCK         0.0251
     46 H18       -26.0697   -9.9869  -22.1709 H         1 CCK         0.0518
     47 H19       -27.2846   -8.6640  -22.1456 H         1 CCK         0.0518
@<TRIPOS>BOND
     1    1    2 ar 
     2    1    6 ar 
     3    2    3 ar 
     4    3    4 ar 
     5    3    7 1  
     6    4    5 ar 
     7    5    6 ar 
     8    5    8 1  
     9    7    9 1  
    10    7   12 1  
    11    8   13 1  
    12    8   16 1  
    13    9   10 ar 
    14    9   20 ar 
    15   10   11 1  
    16   10   17 ar 
    17   11   12 2  
    18   13   14 2  
    19   14   15 1  
    20   14   25 1  
    21   15   16 2  
    22   17   18 ar 
    23   18   19 ar 
    24   19   20 ar 
    25   19   21 1  
    26   21   22 1  
    27   22   23 1  
    28   22   24 1  
    29   25   26 1  
    30   26   27 ar 
    31   26   28 ar 
    32    2   29 1  
    33    6   30 1  
    34   11   31 1  
    35   13   32 1  
    36   15   33 1  
    37   16   34 1  
    38   17   35 1  
    39   18   36 1  
    40   20   37 1  
    41   21   38 1  
    42   22   39 1  
    43   23   40 1  
    44   23   41 1  
    45   23   42 1  
    46   24   43 1  
    47   24   44 1  
    48   24   45 1  
    49   25   46 1  
    50   25   47 1  
@<TRIPOS>SUBSTRUCTURE
     1 CCK         1

