### 
### Created by X-TOOL on Mon Sep 10 21:13:06 2018
### 

@<TRIPOS>MOLECULE
3ati_ligand
   22    22     1     0     0
SMALL
GAST_HUCK


@<TRIPOS>ATOM
      1 N          -2.9810  -13.4170   18.8090 N.4       1 SZ4         0.2307
      2 O          -2.7890  -17.2940   15.5400 O.3       1 SZ4        -0.3230
      3 C1         -1.7810  -13.1740   18.0390 C.3       1 SZ4        -0.0041
      4 C2         -1.7690  -13.9950   16.7700 C.ar      1 SZ4        -0.0076
      5 C3         -1.2180  -13.4530   15.6120 C.ar      1 SZ4        -0.0664
      6 C4         -1.1900  -14.1930   14.4360 C.ar      1 SZ4        -0.0770
      7 C5         -1.7220  -15.4810   14.4160 C.ar      1 SZ4        -0.0401
      8 C6         -2.2700  -16.0270   15.5760 C.ar      1 SZ4         0.0842
      9 C7         -2.6500  -18.1770   16.6530 C.3       1 SZ4         0.0592
     10 C8         -2.2970  -15.2860   16.7530 C.ar      1 SZ4        -0.0272
     11 H1         -2.9614  -12.8575   19.6473 H         1 SZ4         0.2008
     12 H2         -3.0291  -14.3927   19.0573 H         1 SZ4         0.2008
     13 H3         -3.7889  -13.1700   18.2591 H         1 SZ4         0.2008
     14 H4         -0.9043  -13.4412   18.6473 H         1 SZ4         0.0977
     15 H5         -1.7335  -12.1069   17.7762 H         1 SZ4         0.0977
     16 H6         -0.8090  -12.4492   15.6277 H         1 SZ4         0.0466
     17 H7         -0.7559  -13.7699   13.5374 H         1 SZ4         0.0572
     18 H8         -1.7097  -16.0583   13.4986 H         1 SZ4         0.0486
     19 H9         -3.1333  -19.1376   16.4215 H         1 SZ4         0.0577
     20 H10        -3.1274  -17.7301   17.5375 H         1 SZ4         0.0577
     21 H11        -1.5822  -18.3438   16.8576 H         1 SZ4         0.0577
     22 H12        -2.7266  -15.7101   17.6533 H         1 SZ4         0.0480
@<TRIPOS>BOND
     1    3    1 1  
     2    8    2 1  
     3    2    9 1  
     4    4    3 1  
     5    5    4 ar 
     6    4   10 ar 
     7    6    5 ar 
     8    7    6 ar 
     9    7    8 ar 
    10    8   10 ar 
    11    1   11 1  
    12    1   12 1  
    13    1   13 1  
    14    3   14 1  
    15    3   15 1  
    16    5   16 1  
    17    6   17 1  
    18    7   18 1  
    19    9   19 1  
    20    9   20 1  
    21    9   21 1  
    22   10   22 1  
@<TRIPOS>SUBSTRUCTURE
     1 SZ4         1

