### 
### Created by X-TOOL on Mon Sep 10 21:13:05 2018
### 

@<TRIPOS>MOLECULE
3atk_ligand
   24    24     1     0     0
SMALL
GAST_HUCK


@<TRIPOS>ATOM
      1 N          -1.6220  -12.9070   17.7580 N.4       1 SZ1         0.2207
      2 C1         -1.4040  -14.0480   16.8800 C.3       1 SZ1        -0.0244
      3 C2         -1.4840  -13.5930   15.4220 C.3       1 SZ1        -0.0098
      4 C3         -0.5820  -14.4130   14.5030 C.3       1 SZ1        -0.0480
      5 C4         -1.1840  -15.7650   14.1450 C.3       1 SZ1        -0.0529
      6 C5         -1.4590  -16.5980   15.3930 C.3       1 SZ1        -0.0529
      7 C6         -2.7130  -16.1480   16.1270 C.3       1 SZ1        -0.0480
      8 C7         -2.4240  -15.1350   17.2340 C.3       1 SZ1        -0.0098
      9 H1         -0.9576  -12.1817   17.5376 H         1 SZ1         0.1997
     10 H2         -1.5012  -13.1930   18.7170 H         1 SZ1         0.1997
     11 H3         -2.5579  -12.5564   17.6272 H         1 SZ1         0.1997
     12 H4         -0.3957  -14.4502   17.0573 H         1 SZ1         0.0850
     13 H5         -1.1797  -12.5375   15.3647 H         1 SZ1         0.0320
     14 H6         -2.5237  -13.6941   15.0775 H         1 SZ1         0.0320
     15 H7          0.3799  -14.5790   15.0101 H         1 SZ1         0.0267
     16 H8         -0.4146  -13.8454   13.5758 H         1 SZ1         0.0267
     17 H9         -0.4809  -16.3102   13.4982 H         1 SZ1         0.0265
     18 H10        -2.1293  -15.6048   13.6059 H         1 SZ1         0.0265
     19 H11        -0.5999  -16.5080   16.0740 H         1 SZ1         0.0265
     20 H12        -1.5824  -17.6498   15.0954 H         1 SZ1         0.0265
     21 H13        -3.1927  -17.0304   16.5755 H         1 SZ1         0.0267
     22 H14        -3.3986  -15.6875   15.4004 H         1 SZ1         0.0267
     23 H15        -3.3705  -14.6398   17.4963 H         1 SZ1         0.0320
     24 H16        -2.0440  -15.6857   18.1071 H         1 SZ1         0.0320
@<TRIPOS>BOND
     1    1    2 1  
     2    2    3 1  
     3    2    8 1  
     4    3    4 1  
     5    4    5 1  
     6    5    6 1  
     7    6    7 1  
     8    7    8 1  
     9    1    9 1  
    10    1   10 1  
    11    1   11 1  
    12    2   12 1  
    13    3   13 1  
    14    3   14 1  
    15    4   15 1  
    16    4   16 1  
    17    5   17 1  
    18    5   18 1  
    19    6   19 1  
    20    6   20 1  
    21    7   21 1  
    22    7   22 1  
    23    8   23 1  
    24    8   24 1  
@<TRIPOS>SUBSTRUCTURE
     1 SZ1         1

