### 
### Created by X-TOOL on Mon Sep 10 21:13:05 2018
### 

@<TRIPOS>MOLECULE
3atl_ligand
   18    18     1     0     0
SMALL
GAST_HUCK


@<TRIPOS>ATOM
      1 C1         -1.7770  -14.1860   16.8080 C.ar      1 BEN         0.0260
      2 C2         -2.1120  -15.5380   16.6920 C.ar      1 BEN        -0.0565
      3 C3         -1.8270  -16.2400   15.5230 C.ar      1 BEN        -0.0618
      4 C4         -1.2000  -15.6110   14.4540 C.ar      1 BEN        -0.0618
      5 C5         -0.8630  -14.2680   14.5580 C.ar      1 BEN        -0.0618
      6 C6         -1.1500  -13.5650   15.7230 C.ar      1 BEN        -0.0565
      7 C          -2.0850  -13.4110   18.0700 C.cat     1 BEN         0.2356
      8 N1         -1.6000  -12.1960   18.2740 N.pl3     1 BEN        -0.2721
      9 N2         -2.8200  -13.8630   18.9870 N.pl3     1 BEN        -0.2721
     10 H1         -2.5975  -16.0444   17.5184 H         1 BEN         0.0617
     11 H2         -2.0969  -17.2871   15.4464 H         1 BEN         0.0618
     12 H3         -0.9764  -16.1632   13.5484 H         1 BEN         0.0618
     13 H4         -0.3754  -13.7667   13.7297 H         1 BEN         0.0618
     14 H5         -0.8829  -12.5166   15.7914 H         1 BEN         0.0617
     15 H6         -1.8257  -11.6905   19.1426 H         1 BEN         0.3181
     16 H7         -0.9970  -11.7563   17.5641 H         1 BEN         0.3181
     17 H8         -3.2340  -14.8021   18.8994 H         1 BEN         0.3181
     18 H9         -3.0072  -13.2937   19.8247 H         1 BEN         0.3181
@<TRIPOS>BOND
     1    1    2 ar 
     2    1    6 ar 
     3    1    7 1  
     4    2    3 ar 
     5    3    4 ar 
     6    4    5 ar 
     7    5    6 ar 
     8    7    8 ar 
     9    7    9 ar 
    10    2   10 1  
    11    3   11 1  
    12    4   12 1  
    13    5   13 1  
    14    6   14 1  
    15    8   15 1  
    16    8   16 1  
    17    9   17 1  
    18    9   18 1  
@<TRIPOS>SUBSTRUCTURE
     1 BEN         1

