### 
### Created by X-TOOL on Mon Sep 10 21:13:05 2018
### 

@<TRIPOS>MOLECULE
3atm_ligand
   25    26     1     0     0
SMALL
GAST_HUCK


@<TRIPOS>ATOM
      1 N1         -1.8380  -12.6490   18.0740 N.4       1 TSS         0.2194
      2 CA         -2.0560  -13.3430   16.8190 C.3       1 TSS        -0.0312
      3 CB         -0.8540  -14.2220   16.5320 C.3       1 TSS         0.0040
      4 CG         -1.1600  -15.2300   15.4610 C.2       1 TSS        -0.0413
      5 CD1        -0.6320  -15.2810   14.1750 C.2       1 TSS         0.0166
      6 NE1        -1.1360  -16.3510   13.4940 N.pl3     1 TSS        -0.2891
      7 CE2        -1.9910  -17.0560   14.2530 C.ar      1 TSS         0.0603
      8 CD2        -2.0630  -16.3910   15.5620 C.ar      1 TSS        -0.0214
      9 CZ2        -2.7590  -18.1980   14.0540 C.ar      1 TSS        -0.0443
     10 CH2        -3.5630  -18.6740   15.0920 C.ar      1 TSS        -0.0768
     11 CZ3        -3.6180  -18.0290   16.3360 C.ar      1 TSS        -0.0792
     12 CE3        -2.8660  -16.8790   16.5810 C.ar      1 TSS        -0.0747
     13 H1         -2.6317  -12.0610   18.2751 H         1 TSS         0.1995
     14 H2         -1.0082  -12.0810   18.0041 H         1 TSS         0.1995
     15 H3         -1.7227  -13.3227   18.8149 H         1 TSS         0.1995
     16 H4         -2.1803  -12.6103   16.0080 H         1 TSS         0.0828
     17 H5         -2.9600  -13.9654   16.8927 H         1 TSS         0.0828
     18 H6         -0.5695  -14.7523   17.4528 H         1 TSS         0.0401
     19 H7         -0.0179  -13.5890   16.2002 H         1 TSS         0.0401
     20 H8          0.0831  -14.5673   13.7687 H         1 TSS         0.0795
     21 H9         -0.8918  -16.5878   12.5218 H         1 TSS         0.2216
     22 H10        -2.7339  -18.7144   13.1012 H         1 TSS         0.0541
     23 H11        -4.1597  -19.5647   14.9320 H         1 TSS         0.0530
     24 H12        -4.2532  -18.4290   17.1180 H         1 TSS         0.0510
     25 H13        -2.9088  -16.3807   17.5427 H         1 TSS         0.0540
@<TRIPOS>BOND
     1    1    2 1  
     2    2    3 1  
     3    3    4 1  
     4    4    5 2  
     5    4    8 1  
     6    5    6 1  
     7    6    7 1  
     8    7    8 ar 
     9    7    9 ar 
    10    8   12 ar 
    11    9   10 ar 
    12   10   11 ar 
    13   11   12 ar 
    14    1   13 1  
    15    1   14 1  
    16    1   15 1  
    17    2   16 1  
    18    2   17 1  
    19    3   18 1  
    20    3   19 1  
    21    5   20 1  
    22    6   21 1  
    23    9   22 1  
    24   10   23 1  
    25   11   24 1  
    26   12   25 1  
@<TRIPOS>SUBSTRUCTURE
     1 TSS         1

