### 
### Created by X-TOOL on Mon Sep 10 21:13:08 2018
### 

@<TRIPOS>MOLECULE
3atp_ligand
   14    13     1     0     0
SMALL
GAST_HUCK


@<TRIPOS>ATOM
      1 N          46.8240   12.0330    5.8670 N.4       1 SER         0.2343
      2 CA         45.4000   12.3990    6.0920 C.3       1 SER         0.0519
      3 C          45.3420   13.6560    6.9690 C.2       1 SER         0.0867
      4 O          44.2940   14.3370    6.9890 O.co2     1 SER        -0.5642
      5 CB         44.6790   11.2380    6.7830 C.3       1 SER         0.0987
      6 OG         43.2730   11.3880    6.7200 O.3       1 SER        -0.3876
      7 OXT        46.3640   13.9470    7.6260 O.co2     1 SER        -0.5642
      8 H          47.3040   12.8064    5.4068 H         1 SER         0.2011
      9 H          47.2700   11.8399    6.7638 H         1 SER         0.2011
     10 H          46.8712   11.2025    5.2767 H         1 SER         0.2011
     11 H          44.9097   12.6007    5.1396 H         1 SER         0.1047
     12 H          44.9774   11.2217    7.8312 H         1 SER         0.0633
     13 H          44.9502   10.3125    6.2751 H         1 SER         0.0633
     14 H          43.0197   12.2053    7.1552 H         1 SER         0.2098
@<TRIPOS>BOND
     1    1    2 1  
     2    2    3 1  
     3    2    5 1  
     4    3    4 ar 
     5    3    7 ar 
     6    5    6 1  
     7    1    8 1  
     8    1    9 1  
     9    1   10 1  
    10    2   11 1  
    11    5   12 1  
    12    5   13 1  
    13    6   14 1  
@<TRIPOS>SUBSTRUCTURE
     1 SER         1

