### 
### Created by X-TOOL on Mon Sep 10 21:13:07 2018
### 

@<TRIPOS>MOLECULE
3atw_ligand
   80    81     1     0     0
SMALL
GAST_HUCK


@<TRIPOS>ATOM
      1 C           1.3530   11.1600  -17.3980 C.2       1 ACE         0.1752
      2 O           0.3890   10.6860  -16.7880 O.2       1 ACE        -0.3972
      3 CH3         1.2430   11.4550  -18.8950 C.3       1 ACE         0.0258
      4 N           2.5500   11.4260  -16.8530 N.am      1 THR        -0.2635
      5 CA          2.8270   11.2310  -15.4130 C.3       1 THR         0.1564
      6 C           2.3830   12.5170  -14.7190 C.2       1 THR         0.2065
      7 O           2.8630   13.6030  -15.0400 O.2       1 THR        -0.3943
      8 CB          4.2980   10.9480  -15.1460 C.3       1 THR         0.0924
      9 OG1         4.6590    9.7580  -15.8340 O.3       1 THR        -0.3874
     10 CG2         4.5910   10.8060  -13.6500 C.3       1 THR        -0.0346
     11 N           1.4330   12.3540  -13.8100 N.am      1 VAL        -0.2634
     12 CA          0.8610   13.4810  -13.0770 C.3       1 VAL         0.1333
     13 C           1.2580   13.3890  -11.5960 C.2       1 VAL         0.2041
     14 O           1.0530   12.3550  -10.9530 O.2       1 VAL        -0.3944
     15 CB         -0.6850   13.4840  -13.2370 C.3       1 VAL        -0.0063
     16 CG1        -1.3000   14.7570  -12.6490 C.3       1 VAL        -0.0584
     17 CG2        -1.1310   13.3280  -14.7010 C.3       1 VAL        -0.0584
     18 N           1.8070   14.5110  -11.1140 N.am      1 ALC        -0.2637
     19 CA          2.2280   14.6740   -9.7220 C.3       1 ALC         0.1312
     20 C           0.9520   15.0170   -8.9890 C.2       1 ALC         0.2034
     21 O           0.1940   15.8720   -9.4530 O.2       1 ALC        -0.3944
     22 CB          3.2310   15.8360   -9.5350 C.3       1 ALC        -0.0096
     23 CG          4.5880   15.6290  -10.2380 C.3       1 ALC        -0.0368
     24 CD2         5.5550   16.7300   -9.7520 C.3       1 ALC        -0.0500
     25 CE2         6.9970   16.5970  -10.2990 C.3       1 ALC        -0.0528
     26 CZ          7.5580   15.1740  -10.1630 C.3       1 ALC        -0.0530
     27 CE1         6.5690   14.0670  -10.6210 C.3       1 ALC        -0.0528
     28 CD1         5.1840   14.2260   -9.9680 C.3       1 ALC        -0.0500
     29 N           0.7050   14.3290   -7.8840 N.am      1 HSV        -0.2682
     30 CA         -0.5370   14.6110   -7.1330 C.3       1 HSV         0.1004
     31 CB         -1.1760   13.2910   -6.6470 C.3       1 HSV         0.0090
     32 CG         -2.0440   12.6880   -7.7480 C.2       1 HSV        -0.0033
     33 ND1        -2.4800   11.4310   -7.8000 N.2       1 HSV        -0.3253
     34 CD2        -2.5180   13.3210   -8.8180 C.2       1 HSV         0.0291
     35 CE1        -3.2140   11.2910   -8.9040 C.2       1 HSV         0.0907
     36 NE2        -3.2380   12.4640   -9.5380 N.pl3     1 HSV        -0.2752
     37 C          -0.2040   15.6050   -5.9990 C.2       1 HSV         0.0615
     38 O          -0.9250   15.7820   -5.0190 O.co2     1 HSV        -0.5665
     39 O1          0.8631   16.2698   -6.0825 O.co2     1 HSV        -0.5665
     40 H1          2.1950   11.8697  -19.2579 H         1 ACE         0.0467
     41 H2          0.4366   12.1831  -19.0670 H         1 ACE         0.0467
     42 H3          1.0184   10.5243  -19.4366 H         1 ACE         0.0467
     43 H4          3.2818   11.7687  -17.4420 H         1 THR         0.1883
     44 H5          2.2348   10.3836  -15.0373 H         1 THR         0.0826
     45 H6          4.8952   11.7845  -15.5379 H         1 THR         0.0639
     46 H7          5.5764    9.5683  -15.6764 H         1 THR         0.2101
     47 H8          5.6621   10.6028  -13.5039 H         1 THR         0.0257
     48 H9          4.0005    9.9744  -13.2380 H         1 THR         0.0257
     49 H10         4.3210   11.7388  -13.1333 H         1 THR         0.0257
     50 H11         1.0972   11.4315  -13.6198 H         1 VAL         0.1883
     51 H12         1.2607   14.4177  -13.4927 H         1 VAL         0.0802
     52 H13        -1.0763   12.6242  -12.6735 H         1 VAL         0.0343
     53 H14        -2.3922   14.7296  -12.7772 H         1 VAL         0.0234
     54 H15        -0.8917   15.6358  -13.1696 H         1 VAL         0.0234
     55 H16        -1.0580   14.8202  -11.5778 H         1 VAL         0.0234
     56 H17        -0.6892   12.4135  -15.1234 H         1 VAL         0.0234
     57 H18        -0.7947   14.1996  -15.2816 H         1 VAL         0.0234
     58 H19        -2.2280   13.2593  -14.7448 H         1 VAL         0.0234
     59 H20         1.9365   15.2801  -11.7398 H         1 ALC         0.1883
     60 H21         2.6693   13.7409   -9.3417 H         1 ALC         0.0800
     61 H22         3.4174   15.9590   -8.4579 H         1 ALC         0.0315
     62 H23         2.7732   16.7527   -9.9350 H         1 ALC         0.0315
     63 H24         4.4409   15.7355  -11.3229 H         1 ALC         0.0303
     64 H25         5.5981   16.6906   -8.6536 H         1 ALC         0.0268
     65 H26         5.1549   17.7045  -10.0686 H         1 ALC         0.0268
     66 H27         7.6488   17.2861   -9.7420 H         1 ALC         0.0265
     67 H28         6.9956   16.8736  -11.3637 H         1 ALC         0.0265
     68 H29         7.8098   14.9994   -9.1066 H         1 ALC         0.0265
     69 H30         8.4695   15.1000  -10.7743 H         1 ALC         0.0265
     70 H31         6.9815   13.0855  -10.3445 H         1 ALC         0.0265
     71 H32         6.4550   14.1223  -11.7137 H         1 ALC         0.0265
     72 H33         4.5054   13.4641  -10.3790 H         1 ALC         0.0268
     73 H34         5.2822   14.0822   -8.8819 H         1 ALC         0.0268
     74 H35         1.3466   13.6320   -7.5639 H         1 HSV         0.1877
     75 H36        -1.2551   15.0979   -7.8092 H         1 HSV         0.0743
     76 H37        -1.7989   13.4928   -5.7631 H         1 HSV         0.0413
     77 H38        -0.3809   12.5791   -6.3805 H         1 HSV         0.0413
     78 H39        -2.3453   14.3677   -9.0640 H         1 HSV         0.0729
     79 H40        -3.7082   10.3774   -9.2313 H         1 HSV         0.1199
     80 H41        -3.7244   12.6691  -10.4225 H         1 HSV         0.2361
@<TRIPOS>BOND
     1    1    2 2  
     2    1    3 1  
     3    1    4 am 
     4    4    5 1  
     5    5    6 1  
     6    5    8 1  
     7    6    7 2  
     8    6   11 am 
     9    8    9 1  
    10    8   10 1  
    11   11   12 1  
    12   12   13 1  
    13   12   15 1  
    14   13   14 2  
    15   13   18 am 
    16   15   16 1  
    17   15   17 1  
    18   18   19 1  
    19   19   20 1  
    20   19   22 1  
    21   20   21 2  
    22   20   29 am 
    23   22   23 1  
    24   23   24 1  
    25   23   28 1  
    26   24   25 1  
    27   25   26 1  
    28   26   27 1  
    29   27   28 1  
    30   29   30 1  
    31   30   31 1  
    32   30   37 1  
    33   31   32 1  
    34   32   33 1  
    35   32   34 2  
    36   33   35 2  
    37   34   36 1  
    38   35   36 1  
    39   37   38 ar 
    40   37   39 ar 
    41    3   40 1  
    42    3   41 1  
    43    3   42 1  
    44    4   43 1  
    45    5   44 1  
    46    8   45 1  
    47    9   46 1  
    48   10   47 1  
    49   10   48 1  
    50   10   49 1  
    51   11   50 1  
    52   12   51 1  
    53   15   52 1  
    54   16   53 1  
    55   16   54 1  
    56   16   55 1  
    57   17   56 1  
    58   17   57 1  
    59   17   58 1  
    60   18   59 1  
    61   19   60 1  
    62   22   61 1  
    63   22   62 1  
    64   23   63 1  
    65   24   64 1  
    66   24   65 1  
    67   25   66 1  
    68   25   67 1  
    69   26   68 1  
    70   26   69 1  
    71   27   70 1  
    72   27   71 1  
    73   28   72 1  
    74   28   73 1  
    75   29   74 1  
    76   30   75 1  
    77   31   76 1  
    78   31   77 1  
    79   34   78 1  
    80   35   79 1  
    81   36   80 1  
@<TRIPOS>SUBSTRUCTURE
     1 ACE         1

