### 
### Created by X-TOOL on Mon Sep 10 21:13:09 2018
### 

@<TRIPOS>MOLECULE
3av9_ligand
  119   119     1     0     0
SMALL
GAST_HUCK


@<TRIPOS>ATOM
      1 N           9.5650  -53.7090    3.0710 N.am      1 ASP        -0.2615
      2 CA          9.7930  -53.7090    4.5530 C.3       1 SER         0.1539
      3 C           9.1220  -52.6000    5.4090 C.2       1 SER         0.2062
      4 O           9.6690  -52.1650    6.4650 O.2       1 SER        -0.3943
      5 CB         11.2790  -53.9650    4.9430 C.3       1 SER         0.0843
      6 OG         12.1740  -52.9910    4.4130 O.3       1 SER        -0.3903
      7 N           7.9370  -52.1670    4.9460 N.am      1 ALA        -0.2639
      8 CA          7.1150  -51.0870    5.5520 C.3       1 ALA         0.1282
      9 C           7.8490  -49.7430    5.6490 C.2       1 ALA         0.2036
     10 O           7.6850  -48.9760    6.6470 O.2       1 ALA        -0.3944
     11 CB          6.4830  -51.5030    6.9380 C.3       1 ALA        -0.0244
     12 N           8.6220  -49.4270    4.6040 N.am      1 LYS        -0.2637
     13 CA          9.2720  -48.0980    4.5310 C.3       1 LYS         0.1310
     14 C           8.8130  -47.4580    3.2600 C.2       1 LYS         0.2039
     15 O           8.4840  -48.1760    2.2960 O.2       1 LYS        -0.3944
     16 CB         10.7870  -48.2360    4.4620 C.3       1 LYS        -0.0122
     17 CG         11.4790  -49.0650    5.5290 C.3       1 LYS        -0.0440
     18 CD         11.2790  -48.4400    6.8900 C.3       1 LYS        -0.0124
     19 CE         12.2190  -49.0970    7.8860 C.3       1 LYS        -0.0354
     20 NZ         11.7180  -48.9480    9.2770 N.4       1 LYS         0.2185
     21 N           8.7570  -46.1240    3.2320 N.am      1 ILE        -0.2635
     22 CA          8.2780  -45.3960    2.0360 C.3       1 ILE         0.1335
     23 C           9.1150  -45.8370    0.8280 C.2       1 ILE         0.2042
     24 O           8.5960  -46.0030   -0.3250 O.2       1 ILE        -0.3944
     25 CB          8.3250  -43.8380    2.2780 C.3       1 ILE        -0.0037
     26 CG1         7.1290  -43.1200    1.6260 C.3       1 ILE        -0.0491
     27 CG2         9.6260  -43.2270    1.7990 C.3       1 ILE        -0.0582
     28 CD1         5.8420  -43.1600    2.4960 C.3       1 ILE        -0.0648
     29 N          10.4230  -46.0170    1.0880 N.am      1 ASP        -0.2622
     30 CA         11.3840  -46.2120    0.0180 C.3       1 ASP         0.1423
     31 C          11.5950  -47.6740   -0.2550 C.2       1 ASP         0.2057
     32 O          12.3860  -48.0040   -1.1290 O.2       1 ASP        -0.3943
     33 CB         12.7890  -45.5260    0.2110 C.3       1 ASP         0.0406
     34 CG         13.4150  -45.7830    1.5680 C.2       1 ASP         0.0393
     35 OD1        14.6020  -45.3440    1.8140 O.co2     1 ASP        -0.5688
     36 OD2        12.7370  -46.4010    2.4300 O.co2     1 ASP        -0.5688
     37 N          10.9280  -48.5210    0.5360 N.am      1 ASN        -0.2615
     38 CA         11.0150  -49.9690    0.4070 C.3       1 ASN         0.1476
     39 C           9.7030  -50.5160    1.0100 C.2       1 ASN         0.2063
     40 O           9.5910  -50.9060    2.2310 O.2       1 ASN        -0.3942
     41 CB         12.2540  -50.4970    1.0990 C.3       1 ASN         0.0773
     42 CG         12.4750  -51.9950    0.8350 C.2       1 ASN         0.1780
     43 OD1        11.9230  -52.5590   -0.1190 O.2       1 ASN        -0.3970
     44 ND2        13.2870  -52.6430    1.6950 N.am      1 ASN        -0.3007
     45 N           8.6730  -50.4650    0.1770 N.am      1 LEU        -0.2636
     46 CA          7.3290  -50.7980    0.6800 C.3       1 LEU         0.1312
     47 C           7.3190  -52.2630    1.1810 C.2       1 LEU         0.2040
     48 O           6.6630  -52.5840    2.1910 O.2       1 LEU        -0.3944
     49 CB          6.2540  -50.4910   -0.3830 C.3       1 LEU        -0.0101
     50 CG          5.8690  -49.0000   -0.5000 C.3       1 LEU        -0.0425
     51 CD1         4.8070  -48.9910   -1.5480 C.3       1 LEU        -0.0625
     52 CD2         5.3020  -48.3420    0.8130 C.3       1 LEU        -0.0625
     53 N           8.1370  -53.0980    0.5350 N.am      1 ASP        -0.2622
     54 CA          8.4100  -54.4860    0.9940 C.3       1 ASP         0.1423
     55 C           8.7930  -54.6530    2.4900 C.2       1 ASP         0.2057
     56 O           8.3570  -55.6460    3.1200 O.2       1 ASP        -0.3943
     57 CB          9.4380  -55.1690    0.0700 C.3       1 ASP         0.0406
     58 CG          8.7820  -55.8650   -1.1550 C.2       1 ASP         0.0393
     59 OD1         7.5220  -55.9190   -1.2470 O.co2     1 ASP        -0.5688
     60 OD2         9.5500  -56.3530   -2.0270 O.co2     1 ASP        -0.5688
     61 H           9.9981  -52.9875    2.4946 H         1 ASP         0.1884
     62 H           9.2071  -54.5792    4.8489 H         1 SER         0.0823
     63 H          11.5656  -54.9340    4.5344 H         1 SER         0.0606
     64 H          11.3478  -53.9201    6.0299 H         1 SER         0.0606
     65 H          13.0705  -53.2001    4.6853 H         1 SER         0.2097
     66 H           7.5706  -52.6178    4.1076 H         1 ALA         0.1883
     67 H           6.2902  -50.9378    4.8552 H         1 ALA         0.0797
     68 H           5.8402  -52.3718    6.7966 H         1 ALA         0.0277
     69 H           7.2797  -51.7493    7.6399 H         1 ALA         0.0277
     70 H           5.8944  -50.6740    7.3309 H         1 ALA         0.0277
     71 H           8.7644  -50.1039    3.8544 H         1 LYS         0.1883
     72 H           9.0121  -47.5139    5.4138 H         1 LYS         0.0800
     73 H          11.1745  -47.2248    4.5862 H         1 LYS         0.0312
     74 H          10.9870  -48.7507    3.5223 H         1 LYS         0.0312
     75 H          12.5460  -49.1077    5.3103 H         1 LYS         0.0269
     76 H          11.0532  -50.0684    5.5320 H         1 LYS         0.0269
     77 H          10.2474  -48.5854    7.2107 H         1 LYS         0.0317
     78 H          11.4918  -47.3723    6.8365 H         1 LYS         0.0317
     79 H          13.1941  -48.6152    7.8140 H         1 LYS         0.0813
     80 H          12.2860  -50.1596    7.6524 H         1 LYS         0.0813
     81 H          12.3683  -49.3978    9.9213 H         1 LYS         0.1994
     82 H          11.6421  -47.9568    9.5054 H         1 LYS         0.1994
     83 H          10.8009  -49.3874    9.3557 H         1 LYS         0.1994
     84 H           9.0509  -45.5952    4.0532 H         1 ILE         0.1883
     85 H           7.2346  -45.6378    1.8337 H         1 ILE         0.0803
     86 H           8.2619  -43.6953    3.3568 H         1 ILE         0.0345
     87 H           6.9093  -43.6297    0.6879 H         1 ILE         0.0267
     88 H           7.4048  -42.0740    1.4923 H         1 ILE         0.0267
     89 H          10.4586  -43.6804    2.3368 H         1 ILE         0.0235
     90 H           9.7398  -43.4092    0.7304 H         1 ILE         0.0235
     91 H           9.6124  -42.1533    1.9864 H         1 ILE         0.0235
     92 H           5.5516  -44.1969    2.6655 H         1 ILE         0.0230
     93 H           6.0363  -42.6748    3.4525 H         1 ILE         0.0230
     94 H           5.0385  -42.6363    1.9781 H         1 ILE         0.0230
     95 H          10.7453  -46.0164    2.0557 H         1 ASP         0.1884
     96 H          10.9210  -45.7074   -0.8300 H         1 ASP         0.0819
     97 H          12.6403  -44.4500    0.1204 H         1 ASP         0.0478
     98 H          13.4598  -45.9426   -0.5403 H         1 ASP         0.0478
     99 H          10.3290  -48.1341    1.2653 H         1 ASN         0.1885
    100 H          11.1159  -50.2915   -0.6293 H         1 ASN         0.0826
    101 H          12.1274  -50.3576    2.1726 H         1 ASN         0.0551
    102 H          13.1158  -49.9542    0.7107 H         1 ASN         0.0551
    103 H          13.4679  -53.6394    1.5732 H         1 ASN         0.1814
    104 H          13.7203  -52.1367    2.4672 H         1 ASN         0.1814
    105 H           8.8091  -50.1990   -0.7983 H         1 LEU         0.1883
    106 H           7.0766  -50.1688    1.5335 H         1 LEU         0.0800
    107 H           5.3532  -51.0289   -0.0876 H         1 LEU         0.0315
    108 H           6.6670  -50.7885   -1.3469 H         1 LEU         0.0315
    109 H           6.7599  -48.4136   -0.7246 H         1 LEU         0.0298
    110 H           5.2131  -49.3878   -2.4784 H         1 LEU         0.0232
    111 H           3.9712  -49.6099   -1.2218 H         1 LEU         0.0232
    112 H           4.4636  -47.9687   -1.7067 H         1 LEU         0.0232
    113 H           4.4000  -48.8700    1.1222 H         1 LEU         0.0232
    114 H           6.0507  -48.4061    1.6026 H         1 LEU         0.0232
    115 H           5.0641  -47.2959    0.6201 H         1 LEU         0.0232
    116 H           8.5965  -52.7680   -0.3138 H         1 ASP         0.1884
    117 H           7.4469  -54.9912    0.9212 H         1 ASP         0.0819
    118 H           9.9518  -55.9342    0.6519 H         1 ASP         0.0478
    119 H          10.1111  -54.3985   -0.3060 H         1 ASP         0.0478
@<TRIPOS>BOND
     1    1    2 1  
     2    1   55 am 
     3    2    3 1  
     4    2    5 1  
     5    3    4 2  
     6    3    7 am 
     7    5    6 1  
     8    7    8 1  
     9    8    9 1  
    10    8   11 1  
    11    9   10 2  
    12    9   12 am 
    13   12   13 1  
    14   13   14 1  
    15   13   16 1  
    16   14   15 2  
    17   14   21 am 
    18   16   17 1  
    19   17   18 1  
    20   18   19 1  
    21   19   20 1  
    22   21   22 1  
    23   22   23 1  
    24   22   25 1  
    25   23   24 2  
    26   23   29 am 
    27   25   26 1  
    28   25   27 1  
    29   26   28 1  
    30   29   30 1  
    31   30   31 1  
    32   30   33 1  
    33   31   32 2  
    34   31   37 am 
    35   33   34 1  
    36   34   35 ar 
    37   34   36 ar 
    38   37   38 1  
    39   38   39 1  
    40   38   41 1  
    41   39   40 2  
    42   39   45 am 
    43   41   42 1  
    44   42   43 2  
    45   42   44 am 
    46   45   46 1  
    47   46   47 1  
    48   46   49 1  
    49   47   48 2  
    50   47   53 am 
    51   49   50 1  
    52   50   51 1  
    53   50   52 1  
    54   53   54 1  
    55   54   55 1  
    56   54   57 1  
    57   55   56 2  
    58   57   58 1  
    59   58   59 ar 
    60   58   60 ar 
    61    1   61 1  
    62    2   62 1  
    63    5   63 1  
    64    5   64 1  
    65    6   65 1  
    66    7   66 1  
    67    8   67 1  
    68   11   68 1  
    69   11   69 1  
    70   11   70 1  
    71   12   71 1  
    72   13   72 1  
    73   16   73 1  
    74   16   74 1  
    75   17   75 1  
    76   17   76 1  
    77   18   77 1  
    78   18   78 1  
    79   19   79 1  
    80   19   80 1  
    81   20   81 1  
    82   20   82 1  
    83   20   83 1  
    84   21   84 1  
    85   22   85 1  
    86   25   86 1  
    87   26   87 1  
    88   26   88 1  
    89   27   89 1  
    90   27   90 1  
    91   27   91 1  
    92   28   92 1  
    93   28   93 1  
    94   28   94 1  
    95   29   95 1  
    96   30   96 1  
    97   33   97 1  
    98   33   98 1  
    99   37   99 1  
   100   38  100 1  
   101   41  101 1  
   102   41  102 1  
   103   44  103 1  
   104   44  104 1  
   105   45  105 1  
   106   46  106 1  
   107   49  107 1  
   108   49  108 1  
   109   50  109 1  
   110   51  110 1  
   111   51  111 1  
   112   51  112 1  
   113   52  113 1  
   114   52  114 1  
   115   52  115 1  
   116   53  116 1  
   117   54  117 1  
   118   57  118 1  
   119   57  119 1  
@<TRIPOS>SUBSTRUCTURE
     1 ASP         1

