### 
### Created by X-TOOL on Mon Sep 10 21:13:09 2018
### 

@<TRIPOS>MOLECULE
3ava_ligand
  127   127     1     0     0
SMALL
GAST_HUCK


@<TRIPOS>ATOM
      1 N           9.6400  -53.6340    2.7670 N.am      1 ALA        -0.2639
      2 CA         10.2220  -53.5040    4.1330 C.3       1 ALA         0.1282
      3 C           9.4350  -52.5860    5.0890 C.2       1 ALA         0.2036
      4 O           9.9440  -52.2270    6.1960 O.2       1 ALA        -0.3944
      5 CB         11.7280  -53.0080    4.0220 C.3       1 ALA        -0.0244
      6 N           8.2180  -52.1740    4.7030 N.am      1 LEU        -0.2637
      7 CA          7.3460  -51.2230    5.4740 C.3       1 LEU         0.1312
      8 C           7.8320  -49.7810    5.5090 C.2       1 LEU         0.2039
      9 O           7.4720  -48.9980    6.4080 O.2       1 LEU        -0.3944
     10 CB          7.0940  -51.6830    6.9180 C.3       1 LEU        -0.0101
     11 CG          6.0550  -50.8760    7.7160 C.3       1 LEU        -0.0425
     12 CD1         4.7540  -50.7410    6.9700 C.3       1 LEU        -0.0625
     13 CD2         5.8030  -51.4980    9.1370 C.3       1 LEU        -0.0625
     14 N           8.6540  -49.4250    4.5310 N.am      1 LYS        -0.2637
     15 CA          9.3040  -48.0880    4.5140 C.3       1 LYS         0.1310
     16 C           8.8270  -47.4320    3.2620 C.2       1 LYS         0.2039
     17 O           8.4850  -48.1330    2.3120 O.2       1 LYS        -0.3944
     18 CB         10.8300  -48.2270    4.3960 C.3       1 LYS        -0.0122
     19 CG         11.5310  -49.0620    5.4590 C.3       1 LYS        -0.0440
     20 CD         11.3790  -48.4090    6.8460 C.3       1 LYS        -0.0124
     21 CE         11.8160  -49.4050    7.9180 C.3       1 LYS        -0.0354
     22 NZ         11.9650  -48.8090    9.2680 N.4       1 LYS         0.2185
     23 N           8.8270  -46.0990    3.2280 N.am      1 ILE        -0.2635
     24 CA          8.2780  -45.3530    2.0760 C.3       1 ILE         0.1335
     25 C           9.1110  -45.6920    0.8390 C.2       1 ILE         0.2042
     26 O           8.5770  -45.7810   -0.3200 O.2       1 ILE        -0.3944
     27 CB          8.2320  -43.8180    2.3950 C.3       1 ILE        -0.0037
     28 CG1         7.1210  -43.1130    1.6050 C.3       1 ILE        -0.0491
     29 CG2         9.5730  -43.1870    2.2090 C.3       1 ILE        -0.0582
     30 CD1         5.8060  -43.2300    2.3530 C.3       1 ILE        -0.0648
     31 N          10.4240  -45.9070    1.0690 N.am      1 ASP        -0.2622
     32 CA         11.3560  -46.1250   -0.0460 C.3       1 ASP         0.1423
     33 C          11.5540  -47.5780   -0.3080 C.2       1 ASP         0.2057
     34 O          12.3880  -47.9190   -1.1780 O.2       1 ASP        -0.3943
     35 CB         12.7640  -45.4800    0.0970 C.3       1 ASP         0.0406
     36 CG         13.4180  -45.7330    1.4820 C.2       1 ASP         0.0393
     37 OD1        14.5830  -45.2660    1.7550 O.co2     1 ASP        -0.5688
     38 OD2        12.7700  -46.3710    2.3230 O.co2     1 ASP        -0.5688
     39 N          10.8870  -48.4210    0.4800 N.am      1 ASN        -0.2615
     40 CA         10.9580  -49.8700    0.2630 C.3       1 ASN         0.1476
     41 C           9.7160  -50.4560    0.9060 C.2       1 ASN         0.2063
     42 O           9.6660  -50.8190    2.1070 O.2       1 ASN        -0.3942
     43 CB         12.2560  -50.4640    0.8160 C.3       1 ASN         0.0773
     44 CG         12.4120  -51.9490    0.4570 C.2       1 ASN         0.1780
     45 OD1        11.4440  -52.6150    0.1260 O.2       1 ASN        -0.3970
     46 ND2        13.6340  -52.4530    0.5310 N.am      1 ASN        -0.3007
     47 N           8.6650  -50.4600    0.1070 N.am      1 LEU        -0.2636
     48 CA          7.3270  -50.7760    0.6540 C.3       1 LEU         0.1312
     49 C           7.3160  -52.2320    1.1650 C.2       1 LEU         0.2040
     50 O           6.7140  -52.5290    2.2050 O.2       1 LEU        -0.3944
     51 CB          6.2400  -50.5300   -0.4150 C.3       1 LEU        -0.0101
     52 CG          5.8430  -49.0330   -0.5850 C.3       1 LEU        -0.0425
     53 CD1         4.7500  -48.9370   -1.6650 C.3       1 LEU        -0.0625
     54 CD2         5.3460  -48.3060    0.6880 C.3       1 LEU        -0.0625
     55 N           8.0580  -53.0900    0.4820 N.am      1 ASP        -0.2622
     56 CA          8.2410  -54.4940    0.9500 C.3       1 ASP         0.1423
     57 C           8.7560  -54.5760    2.3980 C.2       1 ASP         0.2056
     58 O           8.3530  -55.4930    3.1560 O.2       1 ASP        -0.3943
     59 CB          9.1600  -55.2620   -0.0080 C.3       1 ASP         0.0406
     60 CG          8.4270  -55.7640   -1.2600 C.2       1 ASP         0.0393
     61 OD1         7.1700  -55.7550   -1.2600 O.co2     1 ASP        -0.5688
     62 OD2         9.1220  -56.1510   -2.2490 O.co2     1 ASP        -0.5688
     63 H           9.9342  -52.9589    2.0612 H         1 ALA         0.1883
     64 H          10.1657  -54.4981    4.5766 H         1 ALA         0.0797
     65 H          11.7459  -51.9882    3.6374 H         1 ALA         0.0277
     66 H          12.1914  -53.0339    5.0083 H         1 ALA         0.0277
     67 H          12.2759  -53.6629    3.3444 H         1 ALA         0.0277
     68 H           7.8571  -52.5334    3.8193 H         1 LEU         0.1883
     69 H           6.4164  -51.2423    4.9052 H         1 LEU         0.0800
     70 H           8.0410  -51.5654    7.4448 H         1 LEU         0.0315
     71 H           6.7042  -52.6987    6.8504 H         1 LEU         0.0315
     72 H           6.4742  -49.8785    7.8479 H         1 LEU         0.0298
     73 H           4.9306  -50.2294    6.0238 H         1 LEU         0.0232
     74 H           4.3425  -51.7318    6.7775 H         1 LEU         0.0232
     75 H           4.0505  -50.1644    7.5705 H         1 LEU         0.0232
     76 H           5.4346  -52.5178    9.0257 H         1 LEU         0.0232
     77 H           6.7369  -51.5070    9.6991 H         1 LEU         0.0232
     78 H           5.0634  -50.8991    9.6684 H         1 LEU         0.0232
     79 H           8.8442  -50.0823    3.7746 H         1 LYS         0.1883
     80 H           9.0669  -47.5353    5.4231 H         1 LYS         0.0800
     81 H          11.2299  -47.2181    4.4978 H         1 LYS         0.0312
     82 H          11.0106  -48.7367    3.4496 H         1 LYS         0.0312
     83 H          12.5909  -49.1295    5.2139 H         1 LYS         0.0269
     84 H          11.0804  -50.0542    5.4837 H         1 LYS         0.0269
     85 H          10.3379  -48.1297    7.0076 H         1 LYS         0.0317
     86 H          12.0007  -47.5153    6.9006 H         1 LYS         0.0317
     87 H          12.7926  -49.7896    7.6241 H         1 LYS         0.0813
     88 H          11.0418  -50.1693    7.9850 H         1 LYS         0.0813
     89 H          12.2573  -49.5309    9.9267 H         1 LYS         0.1994
     90 H          12.6681  -48.0707    9.2367 H         1 LYS         0.1994
     91 H          11.0717  -48.4170    9.5658 H         1 LYS         0.1994
     92 H           9.2154  -45.5813    4.0164 H         1 ILE         0.1883
     93 H           7.2478  -45.6462    1.8740 H         1 ILE         0.0803
     94 H           7.9780  -43.6970    3.4481 H         1 ILE         0.0345
     95 H           7.0219  -43.5814    0.6258 H         1 ILE         0.0267
     96 H           7.3757  -42.0599    1.4858 H         1 ILE         0.0267
     97 H          10.2918  -43.6603    2.8779 H         1 ILE         0.0235
     98 H           9.8949  -43.3185    1.1759 H         1 ILE         0.0235
     99 H           9.5075  -42.1233    2.4379 H         1 ILE         0.0235
    100 H           5.5509  -44.2828    2.4743 H         1 ILE         0.0230
    101 H           5.9043  -42.7634    3.3332 H         1 ILE         0.0230
    102 H           5.0216  -42.7276    1.7870 H         1 ILE         0.0230
    103 H          10.7729  -45.9182    2.0274 H         1 ASP         0.1884
    104 H          10.8602  -45.6189   -0.8743 H         1 ASP         0.0819
    105 H          12.6460  -44.4027   -0.0196 H         1 ASP         0.0478
    106 H          13.4095  -45.9276   -0.6587 H         1 ASP         0.0478
    107 H          10.3197  -48.0537    1.2440 H         1 ASN         0.1885
    108 H          10.9803  -50.1129   -0.7994 H         1 ASN         0.0826
    109 H          12.2331  -50.3778    1.9023 H         1 ASN         0.0551
    110 H          13.0924  -49.9191    0.3782 H         1 ASN         0.0551
    111 H          13.7952  -53.4349    0.3067 H         1 ASN         0.1814
    112 H          14.4143  -51.8594    0.8123 H         1 ASN         0.1814
    113 H           8.7750  -50.2459   -0.8842 H         1 LEU         0.1883
    114 H           7.1046  -50.1192    1.4950 H         1 LEU         0.0800
    115 H           5.3464  -51.0666   -0.0960 H         1 LEU         0.0315
    116 H           6.6441  -50.8671   -1.3696 H         1 LEU         0.0315
    117 H           6.7665  -48.5228   -0.8587 H         1 LEU         0.0298
    118 H           5.1354  -49.3294   -2.6060 H         1 LEU         0.0232
    119 H           3.8825  -49.5196   -1.3550 H         1 LEU         0.0232
    120 H           4.4610  -47.8942   -1.7959 H         1 LEU         0.0232
    121 H           4.4585  -48.8105    1.0699 H         1 LEU         0.0232
    122 H           6.1300  -48.3246    1.4450 H         1 LEU         0.0232
    123 H           5.1008  -47.2727    0.4424 H         1 LEU         0.0232
    124 H           8.5122  -52.7854   -0.3790 H         1 ASP         0.1884
    125 H           7.2575  -54.9638    0.9471 H         1 ASP         0.0819
    126 H           9.5458  -56.1314    0.5243 H         1 ASP         0.0478
    127 H           9.9478  -54.5820   -0.3322 H         1 ASP         0.0478
@<TRIPOS>BOND
     1    1    2 1  
     2    1   57 am 
     3    2    3 1  
     4    2    5 1  
     5    3    4 2  
     6    3    6 am 
     7    6    7 1  
     8    7    8 1  
     9    7   10 1  
    10    8    9 2  
    11    8   14 am 
    12   10   11 1  
    13   11   12 1  
    14   11   13 1  
    15   14   15 1  
    16   15   16 1  
    17   15   18 1  
    18   16   17 2  
    19   16   23 am 
    20   18   19 1  
    21   19   20 1  
    22   20   21 1  
    23   21   22 1  
    24   23   24 1  
    25   24   25 1  
    26   24   27 1  
    27   25   26 2  
    28   25   31 am 
    29   27   28 1  
    30   27   29 1  
    31   28   30 1  
    32   31   32 1  
    33   32   33 1  
    34   32   35 1  
    35   33   34 2  
    36   33   39 am 
    37   35   36 1  
    38   36   37 ar 
    39   36   38 ar 
    40   39   40 1  
    41   40   41 1  
    42   40   43 1  
    43   41   42 2  
    44   41   47 am 
    45   43   44 1  
    46   44   45 2  
    47   44   46 am 
    48   47   48 1  
    49   48   49 1  
    50   48   51 1  
    51   49   50 2  
    52   49   55 am 
    53   51   52 1  
    54   52   53 1  
    55   52   54 1  
    56   55   56 1  
    57   56   57 1  
    58   56   59 1  
    59   57   58 2  
    60   59   60 1  
    61   60   61 ar 
    62   60   62 ar 
    63    1   63 1  
    64    2   64 1  
    65    5   65 1  
    66    5   66 1  
    67    5   67 1  
    68    6   68 1  
    69    7   69 1  
    70   10   70 1  
    71   10   71 1  
    72   11   72 1  
    73   12   73 1  
    74   12   74 1  
    75   12   75 1  
    76   13   76 1  
    77   13   77 1  
    78   13   78 1  
    79   14   79 1  
    80   15   80 1  
    81   18   81 1  
    82   18   82 1  
    83   19   83 1  
    84   19   84 1  
    85   20   85 1  
    86   20   86 1  
    87   21   87 1  
    88   21   88 1  
    89   22   89 1  
    90   22   90 1  
    91   22   91 1  
    92   23   92 1  
    93   24   93 1  
    94   27   94 1  
    95   28   95 1  
    96   28   96 1  
    97   29   97 1  
    98   29   98 1  
    99   29   99 1  
   100   30  100 1  
   101   30  101 1  
   102   30  102 1  
   103   31  103 1  
   104   32  104 1  
   105   35  105 1  
   106   35  106 1  
   107   39  107 1  
   108   40  108 1  
   109   43  109 1  
   110   43  110 1  
   111   46  111 1  
   112   46  112 1  
   113   47  113 1  
   114   48  114 1  
   115   51  115 1  
   116   51  116 1  
   117   52  117 1  
   118   53  118 1  
   119   53  119 1  
   120   53  120 1  
   121   54  121 1  
   122   54  122 1  
   123   54  123 1  
   124   55  124 1  
   125   56  125 1  
   126   59  126 1  
   127   59  127 1  
@<TRIPOS>SUBSTRUCTURE
     1 ALA         1

