### 
### Created by X-TOOL on Mon Sep 10 21:13:09 2018
### 

@<TRIPOS>MOLECULE
3avb_ligand
  128   128     1     0     0
SMALL
GAST_HUCK


@<TRIPOS>ATOM
      1 N           9.6790  -53.6360    2.8620 N.am      1 SER        -0.2615
      2 CA         10.0630  -53.5160    4.3180 C.3       1 SER         0.1539
      3 C           9.2710  -52.5360    5.2000 C.2       1 SER         0.2062
      4 O           9.7490  -52.1450    6.2990 O.2       1 SER        -0.3943
      5 CB         11.5690  -53.2200    4.4970 C.3       1 SER         0.0843
      6 OG         12.3550  -54.2960    4.0140 O.3       1 SER        -0.3903
      7 N           8.0850  -52.1350    4.7200 N.am      1 LEU        -0.2636
      8 CA          7.1500  -51.1880    5.3840 C.3       1 LEU         0.1312
      9 C           7.5010  -49.6940    5.2090 C.2       1 LEU         0.2039
     10 O           6.7080  -48.8190    5.5900 O.2       1 LEU        -0.3944
     11 CB          6.9190  -51.5490    6.8750 C.3       1 LEU        -0.0101
     12 CG          5.6080  -51.1710    7.5960 C.3       1 LEU        -0.0425
     13 CD1         4.3770  -51.4660    6.7660 C.3       1 LEU        -0.0625
     14 CD2         5.5090  -51.8930    8.9780 C.3       1 LEU        -0.0625
     15 N           8.6610  -49.4240    4.6020 N.am      1 LYS        -0.2637
     16 CA          9.2710  -48.0730    4.5440 C.3       1 LYS         0.1310
     17 C           8.8030  -47.4040    3.2600 C.2       1 LYS         0.2039
     18 O           8.5340  -48.1120    2.2780 O.2       1 LYS        -0.3944
     19 CB         10.7850  -48.1940    4.4380 C.3       1 LYS        -0.0122
     20 CG         11.4940  -49.0320    5.4860 C.3       1 LYS        -0.0440
     21 CD         11.2630  -48.4720    6.8450 C.3       1 LYS        -0.0124
     22 CE         12.0380  -49.3310    7.8620 C.3       1 LYS        -0.0354
     23 NZ         11.7300  -48.8830    9.2100 N.4       1 LYS         0.2185
     24 N           8.7950  -46.0620    3.2350 N.am      1 ILE        -0.2635
     25 CA          8.3070  -45.2590    2.0760 C.3       1 ILE         0.1335
     26 C           9.1140  -45.5940    0.8370 C.2       1 ILE         0.2042
     27 O           8.5820  -45.5970   -0.3230 O.2       1 ILE        -0.3944
     28 CB          8.4120  -43.7280    2.4460 C.3       1 ILE        -0.0037
     29 CG1         7.2510  -43.3540    3.3470 C.3       1 ILE        -0.0491
     30 CG2         8.3920  -42.7720    1.2360 C.3       1 ILE        -0.0582
     31 CD1         5.9440  -43.0490    2.5110 C.3       1 ILE        -0.0648
     32 N          10.4140  -45.8830    1.0810 N.am      1 ASP        -0.2622
     33 CA         11.3520  -46.1210   -0.0140 C.3       1 ASP         0.1423
     34 C          11.5630  -47.5940   -0.2780 C.2       1 ASP         0.2057
     35 O          12.3440  -47.9220   -1.1630 O.2       1 ASP        -0.3943
     36 CB         12.7420  -45.4600    0.1580 C.3       1 ASP         0.0406
     37 CG         13.3920  -45.7300    1.5040 C.2       1 ASP         0.0393
     38 OD1        14.5620  -45.2560    1.6660 O.co2     1 ASP        -0.5688
     39 OD2        12.7730  -46.3870    2.3990 O.co2     1 ASP        -0.5688
     40 N          10.8910  -48.4490    0.4890 N.am      1 ASN        -0.2615
     41 CA         10.9820  -49.9060    0.2700 C.3       1 ASN         0.1476
     42 C           9.7050  -50.4970    0.8400 C.2       1 ASN         0.2063
     43 O           9.6370  -50.8800    2.0330 O.2       1 ASN        -0.3942
     44 CB         12.2690  -50.4820    0.8950 C.3       1 ASN         0.0773
     45 CG         12.5070  -51.9870    0.5410 C.2       1 ASN         0.1780
     46 OD1        11.7860  -52.5830   -0.2490 O.2       1 ASN        -0.3970
     47 ND2        13.5440  -52.5720    1.1260 N.am      1 ASN        -0.3007
     48 N           8.6510  -50.4710    0.0240 N.am      1 LEU        -0.2636
     49 CA          7.3200  -50.8130    0.5620 C.3       1 LEU         0.1312
     50 C           7.3260  -52.2580    1.1210 C.2       1 LEU         0.2040
     51 O           6.7200  -52.5450    2.1790 O.2       1 LEU        -0.3944
     52 CB          6.2130  -50.5710   -0.4810 C.3       1 LEU        -0.0101
     53 CG          5.8260  -49.0680   -0.5900 C.3       1 LEU        -0.0425
     54 CD1         4.7450  -48.9510   -1.6110 C.3       1 LEU        -0.0625
     55 CD2         5.3360  -48.4070    0.7250 C.3       1 LEU        -0.0625
     56 N           8.0830  -53.1160    0.4440 N.am      1 ASP        -0.2622
     57 CA          8.3790  -54.4910    0.9240 C.3       1 ASP         0.1423
     58 C           8.7940  -54.5510    2.4170 C.2       1 ASP         0.2057
     59 O           8.3160  -55.4390    3.1470 O.2       1 ASP        -0.3943
     60 CB          9.4680  -55.1230    0.0450 C.3       1 ASP         0.0406
     61 CG          8.8910  -55.8940   -1.1440 C.2       1 ASP         0.0393
     62 OD1         7.6560  -56.0300   -1.2230 O.co2     1 ASP        -0.5688
     63 OD2         9.6900  -56.3500   -1.9970 O.co2     1 ASP        -0.5688
     64 H          10.1060  -52.9997    2.1888 H         1 SER         0.1884
     65 H           9.7912  -54.5071    4.6812 H         1 SER         0.0823
     66 H          11.7762  -53.0824    5.5582 H         1 SER         0.0606
     67 H          11.8197  -52.3213    3.9335 H         1 SER         0.0606
     68 H          13.2850  -54.0910    4.1350 H         1 SER         0.2097
     69 H           7.7980  -52.5138    3.8175 H         1 LEU         0.1883
     70 H           6.2089  -51.3182    4.8498 H         1 LEU         0.0800
     71 H           7.6831  -50.9797    7.4043 H         1 LEU         0.0315
     72 H           6.9186  -52.6390    6.8841 H         1 LEU         0.0315
     73 H           5.6404  -50.0928    7.7526 H         1 LEU         0.0298
     74 H           4.4225  -50.8985    5.8365 H         1 LEU         0.0232
     75 H           4.3390  -52.5318    6.5409 H         1 LEU         0.0232
     76 H           3.4862  -51.1794    7.3250 H         1 LEU         0.0232
     77 H           5.5289  -52.9720    8.8250 H         1 LEU         0.0232
     78 H           6.3525  -51.5976    9.6020 H         1 LEU         0.0232
     79 H           4.5768  -51.6113    9.4677 H         1 LEU         0.0232
     80 H           9.1566  -50.1933    4.1515 H         1 LYS         0.1883
     81 H           8.9901  -47.5119    5.4352 H         1 LYS         0.0800
     82 H          11.1703  -47.1818    4.5609 H         1 LYS         0.0312
     83 H          10.9744  -48.6910    3.4866 H         1 LYS         0.0312
     84 H          12.5640  -49.0275    5.2784 H         1 LYS         0.0269
     85 H          11.1024  -50.0486    5.4507 H         1 LYS         0.0269
     86 H          10.1984  -48.4864    7.0787 H         1 LYS         0.0317
     87 H          11.6099  -47.4396    6.8872 H         1 LYS         0.0317
     88 H          13.1082  -49.2302    7.6815 H         1 LYS         0.0813
     89 H          11.7472  -50.3756    7.7512 H         1 LYS         0.0813
     90 H          12.2439  -49.4527    9.8821 H         1 LYS         0.1994
     91 H          12.0024  -47.9054    9.3127 H         1 LYS         0.1994
     92 H          10.7284  -48.9776    9.3779 H         1 LYS         0.1994
     93 H           9.1420  -45.5632    4.0543 H         1 ILE         0.1883
     94 H           7.2657  -45.4960    1.8579 H         1 ILE         0.0803
     95 H           9.3801  -43.6096    2.9327 H         1 ILE         0.0345
     96 H           7.5214  -42.4573    3.9046 H         1 ILE         0.0267
     97 H           7.0470  -44.1921    4.0134 H         1 ILE         0.0267
     98 H           9.2341  -42.9981    0.5820 H         1 ILE         0.0235
     99 H           7.4591  -42.9019    0.6874 H         1 ILE         0.0235
    100 H           8.4686  -41.7427    1.5865 H         1 ILE         0.0235
    101 H           6.1349  -42.2191    1.8306 H         1 ILE         0.0230
    102 H           5.6660  -43.9337    1.9381 H         1 ILE         0.0230
    103 H           5.1333  -42.7847    3.1900 H         1 ILE         0.0230
    104 H          10.7440  -45.9355    2.0447 H         1 ASP         0.1884
    105 H          10.8625  -45.6442   -0.8632 H         1 ASP         0.0819
    106 H          12.5997  -44.3823    0.0779 H         1 ASP         0.0478
    107 H          13.3961  -45.8787   -0.6068 H         1 ASP         0.0478
    108 H          10.3026  -48.0913    1.2415 H         1 ASN         0.1885
    109 H          11.0597  -50.1611   -0.7869 H         1 ASN         0.0826
    110 H          12.1710  -50.4093    1.9781 H         1 ASN         0.0551
    111 H          13.1108  -49.9131    0.5002 H         1 ASN         0.0551
    112 H          13.7610  -53.5476    0.9223 H         1 ASN         0.1814
    113 H          14.1244  -52.0462    1.7795 H         1 ASN         0.1814
    114 H           8.7629  -50.2184   -0.9579 H         1 LEU         0.1883
    115 H           7.0913  -50.1480    1.3948 H         1 LEU         0.0800
    116 H           5.3282  -51.1273   -0.1715 H         1 LEU         0.0315
    117 H           6.5854  -50.8964   -1.4523 H         1 LEU         0.0315
    118 H           6.7387  -48.5362   -0.8588 H         1 LEU         0.0298
    119 H           5.1108  -49.3193   -2.5694 H         1 LEU         0.0232
    120 H           3.8850  -49.5427   -1.2972 H         1 LEU         0.0232
    121 H           4.4519  -47.9058   -1.7099 H         1 LEU         0.0232
    122 H           4.4484  -48.9283    1.0834 H         1 LEU         0.0232
    123 H           6.1232  -48.4686    1.4764 H         1 LEU         0.0232
    124 H           5.0933  -47.3613    0.5360 H         1 LEU         0.0232
    125 H           8.4793  -52.8164   -0.4468 H         1 ASP         0.1884
    126 H           7.4513  -55.0576    0.8437 H         1 ASP         0.0819
    127 H          10.0292  -55.8263    0.6602 H         1 ASP         0.0478
    128 H          10.0909  -54.3190   -0.3471 H         1 ASP         0.0478
@<TRIPOS>BOND
     1    1    2 1  
     2    1   58 am 
     3    2    3 1  
     4    2    5 1  
     5    3    4 2  
     6    3    7 am 
     7    5    6 1  
     8    7    8 1  
     9    8    9 1  
    10    8   11 1  
    11    9   10 2  
    12    9   15 am 
    13   11   12 1  
    14   12   13 1  
    15   12   14 1  
    16   15   16 1  
    17   16   17 1  
    18   16   19 1  
    19   17   18 2  
    20   17   24 am 
    21   19   20 1  
    22   20   21 1  
    23   21   22 1  
    24   22   23 1  
    25   24   25 1  
    26   25   26 1  
    27   25   28 1  
    28   26   27 2  
    29   26   32 am 
    30   28   29 1  
    31   28   30 1  
    32   29   31 1  
    33   32   33 1  
    34   33   34 1  
    35   33   36 1  
    36   34   35 2  
    37   34   40 am 
    38   36   37 1  
    39   37   38 ar 
    40   37   39 ar 
    41   40   41 1  
    42   41   42 1  
    43   41   44 1  
    44   42   43 2  
    45   42   48 am 
    46   44   45 1  
    47   45   46 2  
    48   45   47 am 
    49   48   49 1  
    50   49   50 1  
    51   49   52 1  
    52   50   51 2  
    53   50   56 am 
    54   52   53 1  
    55   53   54 1  
    56   53   55 1  
    57   56   57 1  
    58   57   58 1  
    59   57   60 1  
    60   58   59 2  
    61   60   61 1  
    62   61   62 ar 
    63   61   63 ar 
    64    1   64 1  
    65    2   65 1  
    66    5   66 1  
    67    5   67 1  
    68    6   68 1  
    69    7   69 1  
    70    8   70 1  
    71   11   71 1  
    72   11   72 1  
    73   12   73 1  
    74   13   74 1  
    75   13   75 1  
    76   13   76 1  
    77   14   77 1  
    78   14   78 1  
    79   14   79 1  
    80   15   80 1  
    81   16   81 1  
    82   19   82 1  
    83   19   83 1  
    84   20   84 1  
    85   20   85 1  
    86   21   86 1  
    87   21   87 1  
    88   22   88 1  
    89   22   89 1  
    90   23   90 1  
    91   23   91 1  
    92   23   92 1  
    93   24   93 1  
    94   25   94 1  
    95   28   95 1  
    96   29   96 1  
    97   29   97 1  
    98   30   98 1  
    99   30   99 1  
   100   30  100 1  
   101   31  101 1  
   102   31  102 1  
   103   31  103 1  
   104   32  104 1  
   105   33  105 1  
   106   36  106 1  
   107   36  107 1  
   108   40  108 1  
   109   41  109 1  
   110   44  110 1  
   111   44  111 1  
   112   47  112 1  
   113   47  113 1  
   114   48  114 1  
   115   49  115 1  
   116   52  116 1  
   117   52  117 1  
   118   53  118 1  
   119   54  119 1  
   120   54  120 1  
   121   54  121 1  
   122   55  122 1  
   123   55  123 1  
   124   55  124 1  
   125   56  125 1  
   126   57  126 1  
   127   60  127 1  
   128   60  128 1  
@<TRIPOS>SUBSTRUCTURE
     1 SER         1

