### 
### Created by X-TOOL on Mon Sep 10 21:13:08 2018
### 

@<TRIPOS>MOLECULE
3avf_ligand
  129   129     1     0     0
SMALL
GAST_HUCK


@<TRIPOS>ATOM
      1 N         -41.5470   34.8860   -3.7070 N.am      1 ASP        -0.2621
      2 CA        -41.0870   35.4560   -4.9720 C.3       1 ASP         0.1423
      3 C         -40.6400   34.3000   -5.8960 C.2       1 ASP         0.2056
      4 O         -40.0430   34.5150   -6.9690 O.2       1 ASP        -0.3943
      5 CB        -39.9320   36.4230   -4.5610 C.3       1 ASP         0.0406
      6 CG        -39.3860   37.2790   -5.6980 C.2       1 ASP         0.0393
      7 OD1       -40.1140   37.5000   -6.6900 O.co2     1 ASP        -0.5688
      8 OD2       -38.2100   37.7440   -5.5660 O.co2     1 ASP        -0.5688
      9 N         -40.9160   33.0650   -5.4630 N.am      1 LEU        -0.2636
     10 CA        -40.5200   31.7870   -6.1510 C.3       1 LEU         0.1312
     11 C         -39.0030   31.6250   -6.2760 C.2       1 LEU         0.2039
     12 O         -38.4870   31.0240   -7.2530 O.2       1 LEU        -0.3944
     13 CB        -41.2030   31.6170   -7.5350 C.3       1 LEU        -0.0101
     14 CG        -42.0580   30.3500   -7.7470 C.3       1 LEU        -0.0425
     15 CD1       -43.2920   30.4010   -6.7610 C.3       1 LEU        -0.0625
     16 CD2       -42.5020   30.1700   -9.2070 C.3       1 LEU        -0.0625
     17 N         -38.2860   32.1100   -5.2650 N.am      1 LYS        -0.2637
     18 CA        -36.8200   32.0120   -5.2790 C.3       1 LYS         0.1310
     19 C         -36.5070   31.2240   -4.0420 C.2       1 LYS         0.2039
     20 O         -37.2860   31.2970   -3.0610 O.2       1 LYS        -0.3944
     21 CB        -36.2370   33.4260   -5.1300 C.3       1 LYS        -0.0122
     22 CG        -36.6240   34.4030   -6.2350 C.3       1 LYS        -0.0440
     23 CD        -36.0410   33.9200   -7.5400 C.3       1 LYS        -0.0124
     24 CE        -36.7190   34.8390   -8.5900 C.3       1 LYS        -0.0354
     25 NZ        -36.1360   34.7480   -9.9360 N.4       1 LYS         0.2185
     26 N         -35.3700   30.5020   -4.0270 N.am      1 ILE        -0.2635
     27 CA        -34.9490   29.7180   -2.8340 C.3       1 ILE         0.1335
     28 C         -34.8420   30.6250   -1.6000 C.2       1 ILE         0.2042
     29 O         -35.1330   30.1760   -0.4700 O.2       1 ILE        -0.3944
     30 CB        -33.5930   28.8870   -3.0690 C.3       1 ILE        -0.0037
     31 CG1       -33.7030   27.4480   -2.5660 C.3       1 ILE        -0.0491
     32 CG2       -32.4410   29.4500   -2.2750 C.3       1 ILE        -0.0582
     33 CD1       -34.5050   26.5490   -3.4240 C.3       1 ILE        -0.0648
     34 N         -34.4370   31.8970   -1.8100 N.am      1 ASP        -0.2622
     35 CA        -34.1120   32.7880   -0.6840 C.3       1 ASP         0.1423
     36 C         -35.2690   33.6950   -0.4250 C.2       1 ASP         0.2057
     37 O         -35.1520   34.6040    0.4170 O.2       1 ASP        -0.3943
     38 CB        -32.8120   33.6410   -0.9280 C.3       1 ASP         0.0406
     39 CG        -32.7800   34.3390   -2.2470 C.2       1 ASP         0.0393
     40 OD1       -31.8540   35.1730   -2.4510 O.co2     1 ASP        -0.5688
     41 OD2       -33.6490   34.1040   -3.0980 O.co2     1 ASP        -0.5688
     42 N         -36.3300   33.5220   -1.2280 N.am      1 ASN        -0.2615
     43 CA        -37.5890   34.2710   -1.0130 C.3       1 ASN         0.1476
     44 C         -38.7040   33.4720   -1.6490 C.2       1 ASN         0.2063
     45 O         -39.0160   33.6000   -2.8400 O.2       1 ASN        -0.3942
     46 CB        -37.5280   35.6830   -1.5810 C.3       1 ASN         0.0773
     47 CG        -38.7670   36.5240   -1.1490 C.2       1 ASN         0.1780
     48 OD1       -39.8520   35.9910   -0.9610 O.2       1 ASN        -0.3970
     49 ND2       -38.5890   37.8260   -1.0200 N.am      1 ASN        -0.3007
     50 N         -39.2730   32.5700   -0.8690 N.am      1 LEU        -0.2636
     51 CA        -40.1700   31.6040   -1.5030 C.3       1 LEU         0.1312
     52 C         -41.4140   32.3360   -2.0610 C.2       1 LEU         0.2040
     53 O         -41.9570   31.9380   -3.0980 O.2       1 LEU        -0.3944
     54 CB        -40.5390   30.4940   -0.4700 C.3       1 LEU        -0.0101
     55 CG        -39.4020   29.4670   -0.3030 C.3       1 LEU        -0.0425
     56 CD1       -39.8870   28.4860    0.7590 C.3       1 LEU        -0.0625
     57 CD2       -39.0410   28.6860   -1.5920 C.3       1 LEU        -0.0625
     58 N         -41.7850   33.4280   -1.4170 N.am      1 ASP        -0.2622
     59 CA        -42.9460   34.2760   -1.8560 C.3       1 ASP         0.1423
     60 C         -42.8110   34.7540   -3.2940 C.2       1 ASP         0.2057
     61 O         -43.8100   34.9720   -3.9900 O.2       1 ASP        -0.3943
     62 CB        -43.0690   35.5080   -0.9550 C.3       1 ASP         0.0406
     63 CG        -43.8570   35.2300    0.3060 C.2       1 ASP         0.0393
     64 OD1       -44.4990   34.1580    0.3780 O.co2     1 ASP        -0.5688
     65 OD2       -43.8160   36.0740    1.2280 O.co2     1 ASP        -0.5688
     66 H         -40.8239   34.5524   -3.0696 H         1 ASP         0.1884
     67 H         -41.8429   36.0047   -5.5339 H         1 ASP         0.0819
     68 H         -39.1089   35.8027   -4.2063 H         1 ASP         0.0478
     69 H         -40.3393   37.1063   -3.8157 H         1 ASP         0.0478
     70 H         -41.4398   32.9826   -4.5917 H         1 LEU         0.1883
     71 H         -40.8822   30.9894   -5.5023 H         1 LEU         0.0800
     72 H         -40.3917   31.5518   -8.2600 H         1 LEU         0.0315
     73 H         -41.8899   32.4578   -7.6319 H         1 LEU         0.0315
     74 H         -41.4460   29.4763   -7.5229 H         1 LEU         0.0298
     75 H         -42.9325   30.4381   -5.7327 H         1 LEU         0.0232
     76 H         -43.8871   31.2896   -6.9715 H         1 LEU         0.0232
     77 H         -43.9045   29.5103   -6.9012 H         1 LEU         0.0232
     78 H         -43.0978   31.0300   -9.5129 H         1 LEU         0.0232
     79 H         -41.6224   30.0901   -9.8457 H         1 LEU         0.0232
     80 H         -43.0997   29.2627   -9.2944 H         1 LEU         0.0232
     81 H         -38.7570   32.5524   -4.4758 H         1 LYS         0.1883
     82 H         -36.4203   31.5618   -6.1877 H         1 LYS         0.0800
     83 H         -35.1523   33.3243   -5.1658 H         1 LYS         0.0312
     84 H         -36.6315   33.8323   -4.1987 H         1 LYS         0.0312
     85 H         -36.2361   35.3948   -6.0026 H         1 LYS         0.0269
     86 H         -37.7097   34.4585   -6.3144 H         1 LYS         0.0269
     87 H         -36.2313   32.8620   -7.7206 H         1 LYS         0.0317
     88 H         -34.9531   33.9833   -7.5645 H         1 LYS         0.0317
     89 H         -36.5870   35.8665   -8.2511 H         1 LYS         0.0813
     90 H         -37.7597   34.5246   -8.6683 H         1 LYS         0.0813
     91 H         -36.6340   35.3786  -10.5643 H         1 LYS         0.1994
     92 H         -35.1515   35.0121   -9.8974 H         1 LYS         0.1994
     93 H         -36.2192   33.7904  -10.2772 H         1 LYS         0.1994
     94 H         -34.7795   30.4923   -4.8586 H         1 ILE         0.1883
     95 H         -35.7275   28.9761   -2.6562 H         1 ILE         0.0803
     96 H         -33.4301   28.9422   -4.1453 H         1 ILE         0.0345
     97 H         -34.2022   27.4891   -1.5979 H         1 ILE         0.0267
     98 H         -32.6912   27.0432   -2.5431 H         1 ILE         0.0267
     99 H         -32.2646   30.4828   -2.5756 H         1 ILE         0.0235
    100 H         -32.6824   29.4156   -1.2126 H         1 ILE         0.0235
    101 H         -31.5463   28.8571   -2.4650 H         1 ILE         0.0235
    102 H         -35.5220   26.9337   -3.5006 H         1 ILE         0.0230
    103 H         -34.0574   26.5015   -4.4167 H         1 ILE         0.0230
    104 H         -34.5246   25.5516   -2.9848 H         1 ILE         0.0230
    105 H         -34.3551   32.2458   -2.7650 H         1 ASP         0.1884
    106 H         -33.9149   32.1563    0.1821 H         1 ASP         0.0819
    107 H         -31.9664   32.9536   -0.9062 H         1 ASP         0.0478
    108 H         -32.7807   34.4094   -0.1556 H         1 ASP         0.0478
    109 H         -36.2680   32.8610   -2.0024 H         1 ASN         0.1885
    110 H         -37.7631   34.3932    0.0560 H         1 ASN         0.0826
    111 H         -37.5161   35.6181   -2.6690 H         1 ASN         0.0551
    112 H         -36.6297   36.1701   -1.2016 H         1 ASN         0.0551
    113 H         -39.3717   38.4240   -0.7551 H         1 ASN         0.1814
    114 H         -37.6688   38.2338   -1.1853 H         1 ASN         0.1814
    115 H         -39.0940   32.5481    0.1349 H         1 LEU         0.1883
    116 H         -39.6794   31.1191   -2.3470 H         1 LEU         0.0800
    117 H         -41.4238   29.9699   -0.8315 H         1 LEU         0.0315
    118 H         -40.7161   30.9691    0.4949 H         1 LEU         0.0315
    119 H         -38.4903   29.9999   -0.0330 H         1 LEU         0.0298
    120 H         -40.0771   29.0231    1.6882 H         1 LEU         0.0232
    121 H         -40.8063   28.0094    0.4188 H         1 LEU         0.0232
    122 H         -39.1230   27.7268    0.9265 H         1 LEU         0.0232
    123 H         -39.9156   28.1355   -1.9387 H         1 LEU         0.0232
    124 H         -38.7224   29.3875   -2.3631 H         1 LEU         0.0232
    125 H         -38.2320   27.9877   -1.3776 H         1 LEU         0.0232
    126 H         -41.2619   33.7075   -0.5872 H         1 ASP         0.1884
    127 H         -43.8326   33.6462   -1.7825 H         1 ASP         0.0819
    128 H         -43.5940   36.2820   -1.5149 H         1 ASP         0.0478
    129 H         -42.0638   35.8113   -0.6624 H         1 ASP         0.0478
@<TRIPOS>BOND
     1    1    2 1  
     2    1   60 am 
     3    2    3 1  
     4    2    5 1  
     5    3    4 2  
     6    3    9 am 
     7    5    6 1  
     8    6    7 ar 
     9    6    8 ar 
    10    9   10 1  
    11   10   11 1  
    12   10   13 1  
    13   11   12 2  
    14   11   17 am 
    15   13   14 1  
    16   14   15 1  
    17   14   16 1  
    18   17   18 1  
    19   18   19 1  
    20   18   21 1  
    21   19   20 2  
    22   19   26 am 
    23   21   22 1  
    24   22   23 1  
    25   23   24 1  
    26   24   25 1  
    27   26   27 1  
    28   27   28 1  
    29   27   30 1  
    30   28   29 2  
    31   28   34 am 
    32   30   31 1  
    33   30   32 1  
    34   31   33 1  
    35   34   35 1  
    36   35   36 1  
    37   35   38 1  
    38   36   37 2  
    39   36   42 am 
    40   38   39 1  
    41   39   40 ar 
    42   39   41 ar 
    43   42   43 1  
    44   43   44 1  
    45   43   46 1  
    46   44   45 2  
    47   44   50 am 
    48   46   47 1  
    49   47   48 2  
    50   47   49 am 
    51   50   51 1  
    52   51   52 1  
    53   51   54 1  
    54   52   53 2  
    55   52   58 am 
    56   54   55 1  
    57   55   56 1  
    58   55   57 1  
    59   58   59 1  
    60   59   60 1  
    61   59   62 1  
    62   60   61 2  
    63   62   63 1  
    64   63   64 ar 
    65   63   65 ar 
    66    1   66 1  
    67    2   67 1  
    68    5   68 1  
    69    5   69 1  
    70    9   70 1  
    71   10   71 1  
    72   13   72 1  
    73   13   73 1  
    74   14   74 1  
    75   15   75 1  
    76   15   76 1  
    77   15   77 1  
    78   16   78 1  
    79   16   79 1  
    80   16   80 1  
    81   17   81 1  
    82   18   82 1  
    83   21   83 1  
    84   21   84 1  
    85   22   85 1  
    86   22   86 1  
    87   23   87 1  
    88   23   88 1  
    89   24   89 1  
    90   24   90 1  
    91   25   91 1  
    92   25   92 1  
    93   25   93 1  
    94   26   94 1  
    95   27   95 1  
    96   30   96 1  
    97   31   97 1  
    98   31   98 1  
    99   32   99 1  
   100   32  100 1  
   101   32  101 1  
   102   33  102 1  
   103   33  103 1  
   104   33  104 1  
   105   34  105 1  
   106   35  106 1  
   107   38  107 1  
   108   38  108 1  
   109   42  109 1  
   110   43  110 1  
   111   46  111 1  
   112   46  112 1  
   113   49  113 1  
   114   49  114 1  
   115   50  115 1  
   116   51  116 1  
   117   54  117 1  
   118   54  118 1  
   119   55  119 1  
   120   56  120 1  
   121   56  121 1  
   122   56  122 1  
   123   57  123 1  
   124   57  124 1  
   125   57  125 1  
   126   58  126 1  
   127   59  127 1  
   128   62  128 1  
   129   62  129 1  
@<TRIPOS>SUBSTRUCTURE
     1 ASP         1

