### 
### Created by X-TOOL on Mon Sep 10 21:13:08 2018
### 

@<TRIPOS>MOLECULE
3avg_ligand
  120   120     1     0     0
SMALL
GAST_HUCK


@<TRIPOS>ATOM
      1 N          15.9360   38.8140  -16.1520 N.am      1 ALA        -0.2639
      2 CA         16.1160   38.2750  -17.5190 C.3       1 ALA         0.1282
      3 C          14.9240   38.5170  -18.4460 C.2       1 ALA         0.2037
      4 O          14.8350   37.9180  -19.5310 O.2       1 ALA        -0.3944
      5 CB         16.4530   36.7440  -17.4400 C.3       1 ALA        -0.0244
      6 N          13.9940   39.3770  -18.0300 N.am      1 ASP        -0.2622
      7 CA         12.6930   39.6020  -18.7410 C.3       1 ASP         0.1423
      8 C          11.7300   38.3930  -18.8300 C.2       1 ASP         0.2056
      9 O          10.8660   38.3120  -19.7240 O.2       1 ASP        -0.3943
     10 CB         12.9520   40.1170  -20.1660 C.3       1 ASP         0.0406
     11 CG         11.9300   41.1370  -20.5980 C.2       1 ASP         0.0393
     12 OD1        10.7390   41.0110  -20.2440 O.co2     1 ASP        -0.5688
     13 OD2        12.3270   42.0860  -21.3070 O.co2     1 ASP        -0.5688
     14 N          11.8370   37.4900  -17.8720 N.am      1 LYS        -0.2636
     15 CA         10.9660   36.3160  -17.8470 C.3       1 LYS         0.1310
     16 C          10.0650   36.4710  -16.6320 C.2       1 LYS         0.2039
     17 O          10.5100   37.1100  -15.6330 O.2       1 LYS        -0.3944
     18 CB         11.8880   35.1390  -17.6340 C.3       1 LYS        -0.0122
     19 CG         12.9070   34.8920  -18.8030 C.3       1 LYS        -0.0440
     20 CD         12.2030   34.6450  -20.1270 C.3       1 LYS        -0.0124
     21 CE         13.3600   34.6880  -21.2300 C.3       1 LYS        -0.0354
     22 NZ         12.8820   34.5030  -22.5800 N.4       1 LYS         0.2185
     23 N           8.9080   35.8130  -16.6180 N.am      1 ILE        -0.2635
     24 CA          8.0050   35.8670  -15.4290 C.3       1 ILE         0.1335
     25 C           8.7340   35.3150  -14.1940 C.2       1 ILE         0.2042
     26 O           8.5220   35.7820  -13.0340 O.2       1 ILE        -0.3944
     27 CB          6.6750   35.0540  -15.7320 C.3       1 ILE        -0.0037
     28 CG1         5.4840   35.5690  -14.9330 C.3       1 ILE        -0.0491
     29 CG2         6.8450   33.5980  -15.4890 C.3       1 ILE        -0.0582
     30 CD1         4.9060   36.8040  -15.6360 C.3       1 ILE        -0.0648
     31 N           9.5990   34.3110  -14.4160 N.am      1 ASP        -0.2622
     32 CA         10.2210   33.6030  -13.2980 C.3       1 ASP         0.1423
     33 C          11.5940   34.1540  -13.0360 C.2       1 ASP         0.2057
     34 O          12.2830   33.6710  -12.1070 O.2       1 ASP        -0.3943
     35 CB         10.3410   32.0570  -13.4650 C.3       1 ASP         0.0406
     36 CG         10.8980   31.6560  -14.8090 C.2       1 ASP         0.0393
     37 OD1        11.0900   30.4360  -15.0240 O.co2     1 ASP        -0.5688
     38 OD2        11.1250   32.5650  -15.6490 O.co2     1 ASP        -0.5688
     39 N          11.9960   35.1310  -13.8440 N.am      1 ASN        -0.2615
     40 CA         13.2640   35.8460  -13.5850 C.3       1 ASN         0.1476
     41 C          13.1070   37.2150  -14.2350 C.2       1 ASN         0.2063
     42 O          13.3870   37.4240  -15.4400 O.2       1 ASN        -0.3942
     43 CB         14.4520   35.0530  -14.1480 C.3       1 ASN         0.0773
     44 CG         15.8210   35.5830  -13.6410 C.2       1 ASN         0.1780
     45 OD1        15.9430   36.7270  -13.2190 O.2       1 ASN        -0.3970
     46 ND2        16.8400   34.7370  -13.6990 N.am      1 ASN        -0.3007
     47 N          12.5890   38.1540  -13.4430 N.am      1 LEU        -0.2636
     48 CA         12.2110   39.4400  -14.0500 C.3       1 LEU         0.1312
     49 C          13.4470   40.1760  -14.5920 C.2       1 LEU         0.2040
     50 O          13.3580   40.8960  -15.5990 O.2       1 LEU        -0.3944
     51 CB         11.4460   40.3150  -13.0220 C.3       1 LEU        -0.0101
     52 CG         10.0080   39.8400  -12.8140 C.3       1 LEU        -0.0425
     53 CD1         9.3630   40.8010  -11.7930 C.3       1 LEU        -0.0625
     54 CD2         9.1360   39.8110  -14.1080 C.3       1 LEU        -0.0625
     55 N          14.5680   39.9520  -13.9130 N.am      1 ASP        -0.2622
     56 CA         15.9050   40.4520  -14.3390 C.3       1 ASP         0.1423
     57 C          16.2280   40.0710  -15.7940 C.2       1 ASP         0.2056
     58 O          16.7090   40.9090  -16.5700 O.2       1 ASP        -0.3943
     59 CB         17.0140   39.9290  -13.4010 C.3       1 ASP         0.0406
     60 CG         17.1710   40.7580  -12.1090 C.2       1 ASP         0.0393
     61 OD1        16.5870   41.8600  -11.9840 O.co2     1 ASP        -0.5688
     62 OD2        17.8960   40.2890  -11.2000 O.co2     1 ASP        -0.5688
     63 H          15.5658   38.1878  -15.4370 H         1 ALA         0.1883
     64 H          16.9465   38.8232  -17.9638 H         1 ALA         0.0797
     65 H          15.5893   36.2026  -17.0540 H         1 ALA         0.0277
     66 H          16.6990   36.3756  -18.4359 H         1 ALA         0.0277
     67 H          17.3039   36.5944  -16.7754 H         1 ALA         0.0277
     68 H          14.1776   39.9116  -17.1810 H         1 ASP         0.1884
     69 H          12.1843   40.3342  -18.1139 H         1 ASP         0.0819
     70 H          12.8940   39.2691  -20.8485 H         1 ASP         0.0478
     71 H          13.9328   40.5924  -20.1815 H         1 ASP         0.0478
     72 H          12.5365   37.6134  -17.1400 H         1 LYS         0.1883
     73 H          10.3663   36.1933  -18.7489 H         1 LYS         0.0800
     74 H          11.2607   34.2504  -17.5638 H         1 LYS         0.0312
     75 H          12.4734   35.3496  -16.7390 H         1 LYS         0.0312
     76 H          13.4975   34.0085  -18.5603 H         1 LYS         0.0269
     77 H          13.5287   35.7812  -18.9076 H         1 LYS         0.0269
     78 H          11.4347   35.3936  -20.3202 H         1 LYS         0.0317
     79 H          11.6778   33.6899  -20.1316 H         1 LYS         0.0317
     80 H          14.0479   33.8708  -21.0129 H         1 LYS         0.0813
     81 H          13.8216   35.6742  -21.1799 H         1 LYS         0.0813
     82 H          13.6698   34.5419  -23.2267 H         1 LYS         0.1994
     83 H          12.4231   33.5952  -22.6555 H         1 LYS         0.1994
     84 H          12.2166   35.2417  -22.8080 H         1 LYS         0.1994
     85 H           8.6335   35.2631  -17.4321 H         1 ILE         0.1883
     86 H           7.7301   36.9009  -15.2205 H         1 ILE         0.0803
     87 H           6.4697   35.2106  -16.7910 H         1 ILE         0.0345
     88 H           5.8052   35.8363  -13.9263 H         1 ILE         0.0267
     89 H           4.7216   34.7926  -14.8687 H         1 ILE         0.0267
     90 H           7.6345   33.2130  -16.1344 H         1 ILE         0.0235
     91 H           7.1146   33.4341  -14.4457 H         1 ILE         0.0235
     92 H           5.9102   33.0826  -15.7093 H         1 ILE         0.0235
     93 H           5.6712   37.5779  -15.6956 H         1 ILE         0.0230
     94 H           4.5843   36.5311  -16.6411 H         1 ILE         0.0230
     95 H           4.0532   37.1774  -15.0690 H         1 ILE         0.0230
     96 H           9.8238   34.0402  -15.3734 H         1 ASP         0.1884
     97 H           9.5427   33.7714  -12.4615 H         1 ASP         0.0819
     98 H           9.3406   31.6330  -13.3781 H         1 ASP         0.0478
     99 H          11.0229   31.6901  -12.6979 H         1 ASP         0.0478
    100 H          11.4250   35.3891  -14.6488 H         1 ASN         0.1885
    101 H          13.4694   35.9576  -12.5204 H         1 ASN         0.0826
    102 H          14.4361   35.1520  -15.2334 H         1 ASN         0.0551
    103 H          14.3506   34.0191  -13.8181 H         1 ASN         0.0551
    104 H          17.7652   35.0308  -13.3859 H         1 ASN         0.1814
    105 H          16.6988   33.7923  -14.0568 H         1 ASN         0.1814
    106 H          12.4585   37.9859  -12.4454 H         1 LEU         0.1883
    107 H          11.5485   39.2432  -14.8929 H         1 LEU         0.0800
    108 H          11.4137   41.3355  -13.4036 H         1 LEU         0.0315
    109 H          11.9663   40.2479  -12.0666 H         1 LEU         0.0315
    110 H          10.0486   38.8062  -12.4708 H         1 LEU         0.0298
    111 H           9.9220   40.7642  -10.8580 H         1 LEU         0.0232
    112 H           9.3819   41.8162  -12.1893 H         1 LEU         0.0232
    113 H           8.3313   40.4989  -11.6132 H         1 LEU         0.0232
    114 H           9.0787   40.8150  -14.5286 H         1 LEU         0.0232
    115 H           9.5889   39.1365  -14.8347 H         1 LEU         0.0232
    116 H           8.1335   39.4613  -13.8613 H         1 LEU         0.0232
    117 H          14.5092   39.4075  -13.0525 H         1 ASP         0.1884
    118 H          15.8687   41.5396  -14.2774 H         1 ASP         0.0819
    119 H          17.9570   39.9885  -13.9444 H         1 ASP         0.0478
    120 H          16.7431   38.9147  -13.1079 H         1 ASP         0.0478
@<TRIPOS>BOND
     1    1    2 1  
     2    1   57 am 
     3    2    3 1  
     4    2    5 1  
     5    3    4 2  
     6    3    6 am 
     7    6    7 1  
     8    7    8 1  
     9    7   10 1  
    10    8    9 2  
    11    8   14 am 
    12   10   11 1  
    13   11   12 ar 
    14   11   13 ar 
    15   14   15 1  
    16   15   16 1  
    17   15   18 1  
    18   16   17 2  
    19   16   23 am 
    20   18   19 1  
    21   19   20 1  
    22   20   21 1  
    23   21   22 1  
    24   23   24 1  
    25   24   25 1  
    26   24   27 1  
    27   25   26 2  
    28   25   31 am 
    29   27   28 1  
    30   27   29 1  
    31   28   30 1  
    32   31   32 1  
    33   32   33 1  
    34   32   35 1  
    35   33   34 2  
    36   33   39 am 
    37   35   36 1  
    38   36   37 ar 
    39   36   38 ar 
    40   39   40 1  
    41   40   41 1  
    42   40   43 1  
    43   41   42 2  
    44   41   47 am 
    45   43   44 1  
    46   44   45 2  
    47   44   46 am 
    48   47   48 1  
    49   48   49 1  
    50   48   51 1  
    51   49   50 2  
    52   49   55 am 
    53   51   52 1  
    54   52   53 1  
    55   52   54 1  
    56   55   56 1  
    57   56   57 1  
    58   56   59 1  
    59   57   58 2  
    60   59   60 1  
    61   60   61 ar 
    62   60   62 ar 
    63    1   63 1  
    64    2   64 1  
    65    5   65 1  
    66    5   66 1  
    67    5   67 1  
    68    6   68 1  
    69    7   69 1  
    70   10   70 1  
    71   10   71 1  
    72   14   72 1  
    73   15   73 1  
    74   18   74 1  
    75   18   75 1  
    76   19   76 1  
    77   19   77 1  
    78   20   78 1  
    79   20   79 1  
    80   21   80 1  
    81   21   81 1  
    82   22   82 1  
    83   22   83 1  
    84   22   84 1  
    85   23   85 1  
    86   24   86 1  
    87   27   87 1  
    88   28   88 1  
    89   28   89 1  
    90   29   90 1  
    91   29   91 1  
    92   29   92 1  
    93   30   93 1  
    94   30   94 1  
    95   30   95 1  
    96   31   96 1  
    97   32   97 1  
    98   35   98 1  
    99   35   99 1  
   100   39  100 1  
   101   40  101 1  
   102   43  102 1  
   103   43  103 1  
   104   46  104 1  
   105   46  105 1  
   106   47  106 1  
   107   48  107 1  
   108   51  108 1  
   109   51  109 1  
   110   52  110 1  
   111   53  111 1  
   112   53  112 1  
   113   53  113 1  
   114   54  114 1  
   115   54  115 1  
   116   54  116 1  
   117   55  117 1  
   118   56  118 1  
   119   59  119 1  
   120   59  120 1  
@<TRIPOS>SUBSTRUCTURE
     1 ALA         1

