### 
### Created by X-TOOL on Mon Sep 10 21:13:08 2018
### 

@<TRIPOS>MOLECULE
3avh_ligand
  132   132     1     0     0
SMALL
GAST_HUCK


@<TRIPOS>ATOM
      1 N         -16.1130   38.7360   15.2920 N.am      1 ALA        -0.2639
      2 CA        -16.2980   38.0950   16.6170 C.3       1 ALA         0.1282
      3 C         -15.1770   38.4460   17.6020 C.2       1 ALA         0.2036
      4 O         -15.0600   37.8620   18.6870 O.2       1 ALA        -0.3944
      5 CB        -16.4470   36.5450   16.4560 C.3       1 ALA        -0.0244
      6 N         -14.3490   39.4010   17.2120 N.am      1 ARG        -0.2637
      7 CA        -13.0830   39.7240   17.9000 C.3       1 ARG         0.1311
      8 C         -12.1940   38.4780   18.1530 C.2       1 ARG         0.2039
      9 O         -11.7080   38.2770   19.2510 O.2       1 ARG        -0.3944
     10 CB        -13.3390   40.5910   19.1740 C.3       1 ARG        -0.0092
     11 CG        -13.9200   42.0240   18.8540 C.3       1 ARG        -0.0156
     12 CD        -14.2830   42.8620   20.1060 C.3       1 ARG         0.0627
     13 NE        -15.1220   44.0340   19.7910 N.pl3     1 ARG        -0.2723
     14 CZ        -15.9120   44.6780   20.6620 C.cat     1 ARG         0.2882
     15 NH1       -16.0000   44.2910   21.9290 N.pl3     1 ARG        -0.2849
     16 NH2       -16.6360   45.7130   20.2690 N.pl3     1 ARG        -0.2849
     17 N         -12.0060   37.6520   17.1220 N.am      1 LYS        -0.2637
     18 CA        -11.0710   36.5040   17.1470 C.3       1 LYS         0.1310
     19 C         -10.2110   36.5620   15.9300 C.2       1 LYS         0.2039
     20 O         -10.6420   37.0950   14.8940 O.2       1 LYS        -0.3944
     21 CB        -11.8670   35.1770   17.0070 C.3       1 LYS        -0.0122
     22 CG        -12.9010   34.9210   18.0910 C.3       1 LYS        -0.0440
     23 CD        -12.2610   34.7910   19.4750 C.3       1 LYS        -0.0124
     24 CE        -13.4020   34.5220   20.4460 C.3       1 LYS        -0.0354
     25 NZ        -12.9510   34.5800   21.8390 N.4       1 LYS         0.2185
     26 N          -9.0530   35.9190   15.9640 N.am      1 ILE        -0.2635
     27 CA         -8.1030   35.9730   14.8050 C.3       1 ILE         0.1335
     28 C          -8.7250   35.3830   13.5300 C.2       1 ILE         0.2042
     29 O          -8.4380   35.8450   12.3870 O.2       1 ILE        -0.3944
     30 CB         -6.7850   35.1780   15.1460 C.3       1 ILE        -0.0037
     31 CG1        -5.6060   35.6900   14.3400 C.3       1 ILE        -0.0491
     32 CG2        -6.9050   33.7530   14.8100 C.3       1 ILE        -0.0582
     33 CD1        -4.8790   36.7240   15.0870 C.3       1 ILE        -0.0648
     34 N          -9.5660   34.3570   13.7350 N.am      1 ASP        -0.2622
     35 CA        -10.2280   33.6790   12.6150 C.3       1 ASP         0.1423
     36 C         -11.6100   34.2460   12.4080 C.2       1 ASP         0.2057
     37 O         -12.3330   33.7490   11.5510 O.2       1 ASP        -0.3943
     38 CB        -10.3210   32.1310   12.7870 C.3       1 ASP         0.0406
     39 CG        -10.8930   31.7180   14.1390 C.2       1 ASP         0.0393
     40 OD1       -11.0730   30.4940   14.3250 O.co2     1 ASP        -0.5688
     41 OD2       -11.1780   32.5910   15.0170 O.co2     1 ASP        -0.5688
     42 N         -11.9860   35.2400   13.2120 N.am      1 ASN        -0.2615
     43 CA        -13.2670   35.8940   13.0000 C.3       1 ASN         0.1476
     44 C         -13.1880   37.2840   13.6230 C.2       1 ASN         0.2063
     45 O         -13.4600   37.5200   14.8160 O.2       1 ASN        -0.3942
     46 CB        -14.4660   35.0600   13.4630 C.3       1 ASN         0.0773
     47 CG        -15.8240   35.6990   13.0500 C.2       1 ASN         0.1780
     48 OD1       -15.8890   36.8190   12.5300 O.2       1 ASN        -0.3970
     49 ND2       -16.8990   34.9720   13.2920 N.am      1 ASN        -0.3007
     50 N         -12.6910   38.1940   12.7890 N.am      1 LEU        -0.2636
     51 CA        -12.3050   39.5130   13.3080 C.3       1 LEU         0.1312
     52 C         -13.5370   40.2440   13.8440 C.2       1 LEU         0.2040
     53 O         -13.4200   40.9860   14.8410 O.2       1 LEU        -0.3944
     54 CB        -11.5710   40.2930   12.2170 C.3       1 LEU        -0.0101
     55 CG        -10.1050   39.8690   12.0170 C.3       1 LEU        -0.0425
     56 CD1        -9.5460   40.9420   11.0930 C.3       1 LEU        -0.0625
     57 CD2        -9.2420   39.8180   13.3710 C.3       1 LEU        -0.0625
     58 N         -14.6860   40.0020   13.1940 N.am      1 ASP        -0.2622
     59 CA        -16.0150   40.5000   13.6380 C.3       1 ASP         0.1423
     60 C         -16.3170   40.0440   15.0620 C.2       1 ASP         0.2056
     61 O         -16.7220   40.8580   15.9220 O.2       1 ASP        -0.3943
     62 CB        -17.1190   39.9390   12.7280 C.3       1 ASP         0.0406
     63 CG        -17.2650   40.7170   11.4380 C.2       1 ASP         0.0393
     64 OD1       -16.7490   41.8500   11.3650 O.co2     1 ASP        -0.5688
     65 OD2       -17.8970   40.1940   10.4890 O.co2     1 ASP        -0.5688
     66 H         -15.8142   38.1509   14.5118 H         1 ALA         0.1883
     67 H         -17.2182   38.4931   17.0446 H         1 ALA         0.0797
     68 H         -15.5119   36.1283   16.0817 H         1 ALA         0.0277
     69 H         -16.6824   36.1015   17.4235 H         1 ALA         0.0277
     70 H         -17.2500   36.3298   15.7511 H         1 ALA         0.0277
     71 H         -14.5998   39.9465   16.3874 H         1 ARG         0.1883
     72 H         -12.4913   40.3404   17.2232 H         1 ARG         0.0800
     73 H         -12.3804   40.7302   19.6738 H         1 ARG         0.0313
     74 H         -14.0752   40.0676   19.7841 H         1 ARG         0.0313
     75 H         -14.8408   41.8770   18.2896 H         1 ARG         0.0301
     76 H         -13.1449   42.5707   18.3169 H         1 ARG         0.0301
     77 H         -13.3533   43.2266   20.5428 H         1 ARG         0.0689
     78 H         -14.8482   42.2209   20.7825 H         1 ARG         0.0689
     79 H         -15.0992   44.3826   18.8327 H         1 ARG         0.2642
     80 H         -15.4604   43.4896   22.2561 H         1 ARG         0.2615
     81 H         -16.6072   44.7951   22.5752 H         1 ARG         0.2615
     82 H         -16.5951   46.0251   19.2988 H         1 ARG         0.2615
     83 H         -17.2352   46.1990   20.9362 H         1 ARG         0.2615
     84 H         -12.5368   37.8211   16.2676 H         1 LYS         0.1883
     85 H         -10.5008   36.5441   18.0751 H         1 LYS         0.0800
     86 H         -11.1391   34.3684   17.0735 H         1 LYS         0.0312
     87 H         -12.4118   35.2383   16.0649 H         1 LYS         0.0312
     88 H         -13.4103   33.9849   17.8618 H         1 LYS         0.0269
     89 H         -13.5892   35.7661   18.1119 H         1 LYS         0.0269
     90 H         -11.7204   35.6982   19.7451 H         1 LYS         0.0317
     91 H         -11.5287   33.9839   19.4954 H         1 LYS         0.0317
     92 H         -13.7908   33.5224   20.2516 H         1 LYS         0.0813
     93 H         -14.1657   35.2858   20.2995 H         1 LYS         0.0813
     94 H         -13.7400   34.3954   22.4585 H         1 LYS         0.1994
     95 H         -12.2269   33.8777   21.9902 H         1 LYS         0.1994
     96 H         -12.5733   35.5071   22.0345 H         1 LYS         0.1994
     97 H          -8.8036   35.3783   16.7922 H         1 ILE         0.1883
     98 H          -7.8731   37.0230   14.6240 H         1 ILE         0.0803
     99 H          -6.6309   35.3186   16.2159 H         1 ILE         0.0345
    100 H          -5.9750   36.1206   13.4091 H         1 ILE         0.0267
    101 H          -4.9297   34.8596   14.1372 H         1 ILE         0.0267
    102 H          -7.7261   33.3151   15.3776 H         1 ILE         0.0235
    103 H          -7.1024   33.6479   13.7432 H         1 ILE         0.0235
    104 H          -5.9752   33.2423   15.0608 H         1 ILE         0.0235
    105 H          -5.5500   37.5562   15.2997 H         1 ILE         0.0230
    106 H          -4.5115   36.3035   16.0231 H         1 ILE         0.0230
    107 H          -4.0376   37.0772   14.4908 H         1 ILE         0.0230
    108 H          -9.7483   34.0426   14.6881 H         1 ASP         0.1884
    109 H          -9.6044   33.8620   11.7399 H         1 ASP         0.0819
    110 H          -9.3114   31.7266   12.7148 H         1 ASP         0.0478
    111 H         -10.9867   31.7492   12.0130 H         1 ASP         0.0478
    112 H         -11.3774   35.5408   13.9732 H         1 ASN         0.1885
    113 H         -13.4546   35.9974   11.9313 H         1 ASN         0.0826
    114 H         -14.4370   35.0006   14.5510 H         1 ASN         0.0551
    115 H         -14.3971   34.0787   12.9936 H         1 ASN         0.0551
    116 H         -17.8224   35.3303   13.0485 H         1 ASN         0.1814
    117 H         -16.8062   34.0520   13.7225 H         1 ASN         0.1814
    118 H         -12.5791   37.9777   11.7985 H         1 LEU         0.1883
    119 H         -11.6167   39.4074   14.1465 H         1 LEU         0.0800
    120 H         -11.5648   41.3403   12.5189 H         1 LEU         0.0315
    121 H         -12.0921   40.1020   11.2789 H         1 LEU         0.0315
    122 H         -10.0535   38.8532   11.6252 H         1 LEU         0.0298
    123 H         -10.1082   40.9444   10.1592 H         1 LEU         0.0232
    124 H          -9.6342   41.9160   11.5742 H         1 LEU         0.0232
    125 H          -8.4968   40.7311   10.8863 H         1 LEU         0.0232
    126 H          -9.2293   40.8067   13.8297 H         1 LEU         0.0232
    127 H          -9.6909   39.1023   14.0597 H         1 LEU         0.0232
    128 H          -8.2223   39.5106   13.1391 H         1 LEU         0.0232
    129 H         -14.6451   39.4417   12.3426 H         1 ASP         0.1884
    130 H         -15.9903   41.5887   13.5914 H         1 ASP         0.0819
    131 H         -18.0636   40.0061   13.2678 H         1 ASP         0.0478
    132 H         -16.8523   38.9136   12.4718 H         1 ASP         0.0478
@<TRIPOS>BOND
     1    1    2 1  
     2    1   60 am 
     3    2    3 1  
     4    2    5 1  
     5    3    4 2  
     6    3    6 am 
     7    6    7 1  
     8    7    8 1  
     9    7   10 1  
    10    8    9 2  
    11    8   17 am 
    12   10   11 1  
    13   11   12 1  
    14   12   13 1  
    15   13   14 ar 
    16   14   15 ar 
    17   14   16 ar 
    18   17   18 1  
    19   18   19 1  
    20   18   21 1  
    21   19   20 2  
    22   19   26 am 
    23   21   22 1  
    24   22   23 1  
    25   23   24 1  
    26   24   25 1  
    27   26   27 1  
    28   27   28 1  
    29   27   30 1  
    30   28   29 2  
    31   28   34 am 
    32   30   31 1  
    33   30   32 1  
    34   31   33 1  
    35   34   35 1  
    36   35   36 1  
    37   35   38 1  
    38   36   37 2  
    39   36   42 am 
    40   38   39 1  
    41   39   40 ar 
    42   39   41 ar 
    43   42   43 1  
    44   43   44 1  
    45   43   46 1  
    46   44   45 2  
    47   44   50 am 
    48   46   47 1  
    49   47   48 2  
    50   47   49 am 
    51   50   51 1  
    52   51   52 1  
    53   51   54 1  
    54   52   53 2  
    55   52   58 am 
    56   54   55 1  
    57   55   56 1  
    58   55   57 1  
    59   58   59 1  
    60   59   60 1  
    61   59   62 1  
    62   60   61 2  
    63   62   63 1  
    64   63   64 ar 
    65   63   65 ar 
    66    1   66 1  
    67    2   67 1  
    68    5   68 1  
    69    5   69 1  
    70    5   70 1  
    71    6   71 1  
    72    7   72 1  
    73   10   73 1  
    74   10   74 1  
    75   11   75 1  
    76   11   76 1  
    77   12   77 1  
    78   12   78 1  
    79   13   79 1  
    80   15   80 1  
    81   15   81 1  
    82   16   82 1  
    83   16   83 1  
    84   17   84 1  
    85   18   85 1  
    86   21   86 1  
    87   21   87 1  
    88   22   88 1  
    89   22   89 1  
    90   23   90 1  
    91   23   91 1  
    92   24   92 1  
    93   24   93 1  
    94   25   94 1  
    95   25   95 1  
    96   25   96 1  
    97   26   97 1  
    98   27   98 1  
    99   30   99 1  
   100   31  100 1  
   101   31  101 1  
   102   32  102 1  
   103   32  103 1  
   104   32  104 1  
   105   33  105 1  
   106   33  106 1  
   107   33  107 1  
   108   34  108 1  
   109   35  109 1  
   110   38  110 1  
   111   38  111 1  
   112   42  112 1  
   113   43  113 1  
   114   46  114 1  
   115   46  115 1  
   116   49  116 1  
   117   49  117 1  
   118   50  118 1  
   119   51  119 1  
   120   54  120 1  
   121   54  121 1  
   122   55  122 1  
   123   56  123 1  
   124   56  124 1  
   125   56  125 1  
   126   57  126 1  
   127   57  127 1  
   128   57  128 1  
   129   58  129 1  
   130   59  130 1  
   131   62  131 1  
   132   62  132 1  
@<TRIPOS>SUBSTRUCTURE
     1 ALA         1

