### 
### Created by X-TOOL on Mon Sep 10 21:13:08 2018
### 

@<TRIPOS>MOLECULE
3avi_ligand
  126   126     1     0     0
SMALL
GAST_HUCK


@<TRIPOS>ATOM
      1 N           9.1190  -52.9960   13.1520 N.am      1 SER        -0.2615
      2 CA          9.5400  -53.1060   14.5370 C.3       1 SER         0.1539
      3 C           8.7870  -52.1540   15.4550 C.2       1 SER         0.2062
      4 O           9.2700  -51.9040   16.5750 O.2       1 SER        -0.3943
      5 CB         11.0150  -52.7710   14.6540 C.3       1 SER         0.0843
      6 OG         11.7620  -53.6980   13.9000 O.3       1 SER        -0.3903
      7 N           7.6180  -51.7000   14.9960 N.am      1 LEU        -0.2636
      8 CA          6.6950  -50.7910   15.6500 C.3       1 LEU         0.1312
      9 C           7.4010  -49.4870   16.1230 C.2       1 LEU         0.2039
     10 O           7.1090  -49.0020   17.2320 O.2       1 LEU        -0.3944
     11 CB          5.8850  -51.4530   16.8510 C.3       1 LEU        -0.0101
     12 CG          4.9010  -52.6150   16.4820 C.3       1 LEU        -0.0425
     13 CD1         4.2670  -53.1980   17.7400 C.3       1 LEU        -0.0625
     14 CD2         3.7670  -52.1810   15.5210 C.3       1 LEU        -0.0625
     15 N           8.3010  -48.9520   15.2860 N.am      1 LYS        -0.2637
     16 CA          8.9620  -47.6690   15.5120 C.3       1 LYS         0.1310
     17 C           8.5050  -46.7590   14.3750 C.2       1 LYS         0.2039
     18 O           8.1550  -47.2520   13.2880 O.2       1 LYS        -0.3944
     19 CB         10.4520  -47.8240   15.4150 C.3       1 LYS        -0.0122
     20 CG         10.9630  -48.8740   16.4250 C.3       1 LYS        -0.0440
     21 CD         10.7510  -48.4320   17.8450 C.3       1 LYS        -0.0124
     22 CE         11.4510  -49.4770   18.7920 C.3       1 LYS        -0.0354
     23 NZ         10.9110  -49.2050   20.1280 N.4       1 LYS         0.2185
     24 N           8.5270  -45.4410   14.6140 N.am      1 ILE        -0.2635
     25 CA          8.0170  -44.5300   13.6010 C.3       1 ILE         0.1335
     26 C           8.8420  -44.5940   12.3300 C.2       1 ILE         0.2042
     27 O           8.3330  -44.2450   11.2250 O.2       1 ILE        -0.3944
     28 CB          8.0090  -43.0810   14.1950 C.3       1 ILE        -0.0037
     29 CG1         7.0440  -43.0050   15.4310 C.3       1 ILE        -0.0491
     30 CG2         7.5580  -42.0390   13.1440 C.3       1 ILE        -0.0582
     31 CD1         5.4870  -43.2250   15.1000 C.3       1 ILE        -0.0648
     32 N          10.1260  -44.8780   12.5040 N.am      1 ASP        -0.2622
     33 CA         11.0340  -45.0430   11.3910 C.3       1 ASP         0.1423
     34 C          11.1610  -46.4900   10.9060 C.2       1 ASP         0.2057
     35 O          11.9330  -46.7020    9.9330 O.2       1 ASP        -0.3943
     36 CB         12.4710  -44.4760   11.6970 C.3       1 ASP         0.0406
     37 CG         13.1040  -45.0820   12.9550 C.2       1 ASP         0.0393
     38 OD1        14.3340  -44.8320   13.2170 O.co2     1 ASP        -0.5688
     39 OD2        12.4100  -45.7860   13.7320 O.co2     1 ASP        -0.5688
     40 N          10.3500  -47.4150   11.4340 N.am      1 ASN        -0.2615
     41 CA         10.4050  -48.8370   11.0200 C.3       1 ASN         0.1476
     42 C           9.2850  -49.5750   11.6020 C.2       1 ASN         0.2063
     43 O           9.4480  -50.1090   12.7260 O.2       1 ASN        -0.3942
     44 CB         11.7410  -49.4740   11.4860 C.3       1 ASN         0.0773
     45 CG         11.8670  -50.9470   11.0200 C.2       1 ASN         0.1780
     46 OD1        10.9200  -51.5050   10.5290 O.2       1 ASN        -0.3970
     47 ND2        13.0720  -51.5230   11.1290 N.am      1 ASN        -0.3007
     48 N           8.1330  -49.5310   10.9310 N.am      1 MET        -0.2636
     49 CA          6.9180  -50.0420   11.5780 C.3       1 MET         0.1317
     50 C           6.9260  -51.5920   11.6600 C.2       1 MET         0.2040
     51 O           6.1370  -52.1600   12.4490 O.2       1 MET        -0.3944
     52 CB          5.6580  -49.5240   10.9070 C.3       1 MET        -0.0034
     53 CG          5.3050  -48.0990   11.4130 C.3       1 MET        -0.0024
     54 SD          5.0040  -47.9900   13.2250 S.3       1 MET        -0.1639
     55 CE          3.3970  -48.6100   13.1640 C.3       1 MET        -0.0181
     56 N           7.7960  -52.2510   10.8900 N.am      1 ASP        -0.2622
     57 CA          7.9210  -53.7190   11.0900 C.3       1 ASP         0.1423
     58 C           8.4260  -53.9650   12.5440 C.2       1 ASP         0.2057
     59 O           8.2020  -55.0590   13.0850 O.2       1 ASP        -0.3943
     60 CB          8.9820  -54.2880   10.2040 C.3       1 ASP         0.0406
     61 CG          8.5810  -54.2840    8.7060 C.2       1 ASP         0.0393
     62 OD1         7.3600  -54.1120    8.4320 O.co2     1 ASP        -0.5688
     63 OD2         9.4940  -54.4820    7.8720 O.co2     1 ASP        -0.5688
     64 H1          9.3541  -52.1714   12.6374 H         1 SER         0.1884
     65 H2          9.3686  -54.1392   14.8734 H         1 SER         0.0823
     66 H3         11.3215  -52.8230   15.7091 H         1 SER         0.0606
     67 H4         11.1933  -51.7558   14.2700 H         1 SER         0.0606
     68 H5         12.6863  -53.4908   13.9713 H         1 SER         0.2097
     69 H6          7.3453  -52.0263   14.0909 H         1 LEU         0.1883
     70 H7          5.9540  -50.5002   14.8909 H         1 LEU         0.0800
     71 H8          5.2964  -50.6588   17.3334 H         1 LEU         0.0315
     72 H9          6.6183  -51.8524   17.5671 H         1 LEU         0.0315
     73 H10         5.4864  -53.4027   15.9852 H         1 LEU         0.0298
     74 H11         3.5804  -54.0111   17.4615 H         1 LEU         0.0232
     75 H12         3.7083  -52.4109   18.2676 H         1 LEU         0.0232
     76 H13         5.0548  -53.5927   18.3985 H         1 LEU         0.0232
     77 H14         4.2047  -51.7568   14.6053 H         1 LEU         0.0232
     78 H15         3.1397  -51.4229   16.0127 H         1 LEU         0.0232
     79 H16         3.1511  -53.0549   15.2622 H         1 LEU         0.0232
     80 H17         8.5338  -49.4614   14.4576 H         1 LYS         0.1883
     81 H18         8.6838  -47.2536   16.4918 H         1 LYS         0.0800
     82 H19        10.9295  -46.8564   15.6287 H         1 LYS         0.0312
     83 H20        10.7152  -48.1459   14.3966 H         1 LYS         0.0312
     84 H21        12.0385  -49.0339   16.2588 H         1 LYS         0.0269
     85 H22        10.4223  -49.8179   16.2615 H         1 LYS         0.0269
     86 H23         9.6742  -48.3912   18.0661 H         1 LYS         0.0317
     87 H24        11.1943  -47.4366   17.9959 H         1 LYS         0.0317
     88 H25        12.5421  -49.3377   18.7810 H         1 LYS         0.0813
     89 H26        11.2092  -50.5036   18.4796 H         1 LYS         0.0813
     90 H27        11.3197  -49.8438   20.7920 H         1 LYS         0.1994
     91 H28         9.9104  -49.3263   20.1171 H         1 LYS         0.1994
     92 H29        11.1318  -48.2579   20.3933 H         1 LYS         0.1994
     93 H30         8.8890  -45.0883   15.4769 H         1 ILE         0.1883
     94 H31         6.9842  -44.8179   13.3552 H         1 ILE         0.0803
     95 H32         9.0296  -42.8334   14.5223 H         1 ILE         0.0345
     96 H33         7.1569  -42.0117   15.8900 H         1 ILE         0.0267
     97 H34         7.3512  -43.7784   16.1503 H         1 ILE         0.0267
     98 H35         8.2279  -42.0835   12.2727 H         1 ILE         0.0235
     99 H36         7.5972  -41.0323   13.5855 H         1 ILE         0.0235
    100 H37         6.5284  -42.2604   12.8265 H         1 ILE         0.0235
    101 H38         4.9011  -43.1527   16.0282 H         1 ILE         0.0230
    102 H39         5.3442  -44.2198   14.6528 H         1 ILE         0.0230
    103 H40         5.1499  -42.4531   14.3925 H         1 ILE         0.0230
    104 H41        10.4771  -44.9813   13.4346 H         1 ASP         0.1884
    105 H42        10.6183  -44.4564   10.5585 H         1 ASP         0.0819
    106 H43        12.3955  -43.3871   11.8335 H         1 ASP         0.0478
    107 H44        13.1229  -44.6936   10.8381 H         1 ASP         0.0478
    108 H45         9.6867  -47.1380   12.1292 H         1 ASN         0.1885
    109 H46        10.3420  -48.8932    9.9233 H         1 ASN         0.0826
    110 H47        11.7869  -49.4425   12.5846 H         1 ASN         0.0551
    111 H48        12.5772  -48.8949   11.0673 H         1 ASN         0.0551
    112 H49        13.2005  -52.4719   10.8407 H         1 ASN         0.1814
    113 H50        13.8427  -51.0040   11.4986 H         1 ASN         0.1814
    114 H51         8.0975  -49.1569   10.0043 H         1 MET         0.1883
    115 H52         6.9154  -49.6614   12.6100 H         1 MET         0.0800
    116 H53         4.8236  -50.2037   11.1346 H         1 MET         0.0320
    117 H54         5.8173  -49.4904    9.8191 H         1 MET         0.0320
    118 H55         4.3957  -47.7642   10.8923 H         1 MET         0.0378
    119 H56         6.1396  -47.4279   11.1618 H         1 MET         0.0378
    120 H57         2.9783  -48.6440   14.1806 H         1 MET         0.0340
    121 H58         3.4113  -49.6246   12.7392 H         1 MET         0.0340
    122 H59         2.7758  -47.9571   12.5333 H         1 MET         0.0340
    123 H60         8.3441  -51.7738   10.2031 H         1 ASP         0.1884
    124 H61         6.9545  -54.2128   10.9107 H         1 ASP         0.0819
    125 H62         9.1781  -55.3255   10.5124 H         1 ASP         0.0478
    126 H63         9.8977  -53.6905   10.3241 H         1 ASP         0.0478
@<TRIPOS>BOND
     1    1    2 1  
     2    1   58 am 
     3    2    3 1  
     4    2    5 1  
     5    3    4 2  
     6    3    7 am 
     7    5    6 1  
     8    7    8 1  
     9    8    9 1  
    10    8   11 1  
    11    9   10 2  
    12    9   15 am 
    13   11   12 1  
    14   12   13 1  
    15   12   14 1  
    16   15   16 1  
    17   16   17 1  
    18   16   19 1  
    19   17   18 2  
    20   17   24 am 
    21   19   20 1  
    22   20   21 1  
    23   21   22 1  
    24   22   23 1  
    25   24   25 1  
    26   25   26 1  
    27   25   28 1  
    28   26   27 2  
    29   26   32 am 
    30   28   29 1  
    31   28   30 1  
    32   29   31 1  
    33   32   33 1  
    34   33   34 1  
    35   33   36 1  
    36   34   35 2  
    37   34   40 am 
    38   36   37 1  
    39   37   38 ar 
    40   37   39 ar 
    41   40   41 1  
    42   41   42 1  
    43   41   44 1  
    44   42   43 2  
    45   42   48 am 
    46   44   45 1  
    47   45   46 2  
    48   45   47 am 
    49   48   49 1  
    50   49   50 1  
    51   49   52 1  
    52   50   51 2  
    53   50   56 am 
    54   52   53 1  
    55   53   54 1  
    56   54   55 1  
    57   56   57 1  
    58   57   58 1  
    59   57   60 1  
    60   58   59 2  
    61   60   61 1  
    62   61   62 ar 
    63   61   63 ar 
    64    1   64 1  
    65    2   65 1  
    66    5   66 1  
    67    5   67 1  
    68    6   68 1  
    69    7   69 1  
    70    8   70 1  
    71   11   71 1  
    72   11   72 1  
    73   12   73 1  
    74   13   74 1  
    75   13   75 1  
    76   13   76 1  
    77   14   77 1  
    78   14   78 1  
    79   14   79 1  
    80   15   80 1  
    81   16   81 1  
    82   19   82 1  
    83   19   83 1  
    84   20   84 1  
    85   20   85 1  
    86   21   86 1  
    87   21   87 1  
    88   22   88 1  
    89   22   89 1  
    90   23   90 1  
    91   23   91 1  
    92   23   92 1  
    93   24   93 1  
    94   25   94 1  
    95   28   95 1  
    96   29   96 1  
    97   29   97 1  
    98   30   98 1  
    99   30   99 1  
   100   30  100 1  
   101   31  101 1  
   102   31  102 1  
   103   31  103 1  
   104   32  104 1  
   105   33  105 1  
   106   36  106 1  
   107   36  107 1  
   108   40  108 1  
   109   41  109 1  
   110   44  110 1  
   111   44  111 1  
   112   47  112 1  
   113   47  113 1  
   114   48  114 1  
   115   49  115 1  
   116   52  116 1  
   117   52  117 1  
   118   53  118 1  
   119   53  119 1  
   120   55  120 1  
   121   55  121 1  
   122   55  122 1  
   123   56  123 1  
   124   57  124 1  
   125   60  125 1  
   126   60  126 1  
@<TRIPOS>SUBSTRUCTURE
     1 SER         1

