### 
### Created by X-TOOL on Mon Sep 10 21:13:08 2018
### 

@<TRIPOS>MOLECULE
3avj_ligand
  125   125     1     0     0
SMALL
GAST_HUCK


@<TRIPOS>ATOM
      1 N           9.2490  -52.9490   13.1590 N.am      1 ALA        -0.2639
      2 CA          9.7660  -53.0350   14.5390 C.3       1 ALA         0.1282
      3 C           8.8910  -52.1760   15.4910 C.2       1 ALA         0.2036
      4 O           9.3080  -51.9740   16.6380 O.2       1 ALA        -0.3944
      5 CB         11.1650  -52.5420   14.6250 C.3       1 ALA        -0.0244
      6 N           7.6990  -51.7870   15.0470 N.am      1 LEU        -0.2637
      7 CA          6.7480  -50.8610   15.6940 C.3       1 LEU         0.1312
      8 C           7.4630  -49.5760   16.1600 C.2       1 LEU         0.2039
      9 O           7.1950  -49.0820   17.2850 O.2       1 LEU        -0.3944
     10 CB          5.9580  -51.5050   16.9090 C.3       1 LEU        -0.0101
     11 CG          4.9620  -52.6530   16.5000 C.3       1 LEU        -0.0425
     12 CD1         4.3350  -53.2570   17.7360 C.3       1 LEU        -0.0625
     13 CD2         3.8640  -52.1210   15.5650 C.3       1 LEU        -0.0625
     14 N           8.3310  -49.0350   15.3040 N.am      1 LYS        -0.2637
     15 CA          8.9480  -47.7310   15.5630 C.3       1 LYS         0.1310
     16 C           8.4930  -46.7970   14.4240 C.2       1 LYS         0.2039
     17 O           8.1390  -47.2690   13.3330 O.2       1 LYS        -0.3944
     18 CB         10.4390  -47.8410   15.5180 C.3       1 LYS        -0.0122
     19 CG         10.9690  -48.8830   16.5480 C.3       1 LYS        -0.0440
     20 CD         10.7330  -48.4710   18.0190 C.3       1 LYS        -0.0124
     21 CE         11.4410  -49.5290   18.9760 C.3       1 LYS        -0.0354
     22 NZ         10.9270  -49.1570   20.3190 N.4       1 LYS         0.2185
     23 N           8.5220  -45.4850   14.6680 N.am      1 ILE        -0.2635
     24 CA          8.0230  -44.5530   13.6670 C.3       1 ILE         0.1335
     25 C           8.8450  -44.6400   12.3990 C.2       1 ILE         0.2042
     26 O           8.3800  -44.3010   11.2990 O.2       1 ILE        -0.3944
     27 CB          8.0320  -43.1120   14.2520 C.3       1 ILE        -0.0037
     28 CG1         7.0430  -42.9740   15.4610 C.3       1 ILE        -0.0491
     29 CG2         7.6900  -42.0540   13.1910 C.3       1 ILE        -0.0582
     30 CD1         5.4910  -43.2740   15.1200 C.3       1 ILE        -0.0648
     31 N          10.1270  -44.9510   12.5970 N.am      1 ASP        -0.2622
     32 CA         11.0250  -45.0510   11.4840 C.3       1 ASP         0.1423
     33 C          11.1410  -46.4820   10.9610 C.2       1 ASP         0.2057
     34 O          11.9580  -46.7030   10.0520 O.2       1 ASP        -0.3943
     35 CB         12.4520  -44.5130   11.8340 C.3       1 ASP         0.0406
     36 CG         13.0520  -45.1590   13.0590 C.2       1 ASP         0.0393
     37 OD1        12.3970  -45.9140   13.7740 O.co2     1 ASP        -0.5688
     38 OD2        14.2840  -44.9010   13.3230 O.co2     1 ASP        -0.5688
     39 N          10.3860  -47.4520   11.4830 N.am      1 ASN        -0.2615
     40 CA         10.4330  -48.8770   11.0420 C.3       1 ASN         0.1476
     41 C           9.2910  -49.5930   11.6790 C.2       1 ASN         0.2063
     42 O           9.4290  -50.1230   12.7820 O.2       1 ASN        -0.3942
     43 CB         11.7620  -49.5000   11.4500 C.3       1 ASN         0.0773
     44 CG         11.8400  -50.9690   11.0710 C.2       1 ASN         0.1780
     45 OD1        10.8960  -51.5070   10.5710 O.2       1 ASN        -0.3970
     46 ND2        13.0180  -51.5460   11.2040 N.am      1 ASN        -0.3007
     47 N           8.1480  -49.5390   11.0030 N.am      1 MET        -0.2636
     48 CA          6.9500  -50.0530   11.6640 C.3       1 MET         0.1317
     49 C           6.9820  -51.5730   11.6780 C.2       1 MET         0.2040
     50 O           6.2050  -52.1600   12.4590 O.2       1 MET        -0.3944
     51 CB          5.7060  -49.5070   11.0210 C.3       1 MET        -0.0034
     52 CG          5.3570  -48.0840   11.4670 C.3       1 MET        -0.0024
     53 SD          4.9950  -47.9960   13.2760 S.3       1 MET        -0.1639
     54 CE          3.3860  -48.7230   13.2210 C.3       1 MET        -0.0181
     55 N           7.8890  -52.2200   10.9260 N.am      1 ASP        -0.2622
     56 CA          7.9840  -53.6860   11.1440 C.3       1 ASP         0.1423
     57 C           8.5140  -53.9120   12.5840 C.2       1 ASP         0.2056
     58 O           8.2980  -55.0170   13.1460 O.2       1 ASP        -0.3943
     59 CB          9.0460  -54.2660   10.2580 C.3       1 ASP         0.0406
     60 CG          8.6030  -54.3200    8.7690 C.2       1 ASP         0.0393
     61 OD1         7.3490  -54.1480    8.5490 O.co2     1 ASP        -0.5688
     62 OD2         9.5130  -54.5500    7.9240 O.co2     1 ASP        -0.5688
     63 H1          9.4578  -52.1297   12.6250 H         1 ALA         0.1883
     64 H2          9.7341  -54.0857   14.8631 H         1 ALA         0.0797
     65 H3         11.5180  -52.6200   15.6639 H         1 ALA         0.0277
     66 H4         11.2039  -51.4911   14.3024 H         1 ALA         0.0277
     67 H5         11.8088  -53.1500   13.9724 H         1 ALA         0.0277
     68 H6          7.4120  -52.1680   14.1681 H         1 LEU         0.1883
     69 H7          6.0050  -50.5774   14.9340 H         1 LEU         0.0800
     70 H8          5.3819  -50.7101   17.4052 H         1 LEU         0.0315
     71 H9          6.6918  -51.9212   17.6149 H         1 LEU         0.0315
     72 H10         5.5261  -53.4346   15.9701 H         1 LEU         0.0298
     73 H11         3.6409  -54.0578   17.4410 H         1 LEU         0.0232
     74 H12         3.7849  -52.4790   18.2856 H         1 LEU         0.0232
     75 H13         5.1229  -53.6737   18.3806 H         1 LEU         0.0232
     76 H14         4.3266  -51.6831   14.6682 H         1 LEU         0.0232
     77 H15         3.2780  -51.3511   16.0883 H         1 LEU         0.0232
     78 H16         3.2017  -52.9480   15.2693 H         1 LEU         0.0232
     79 H17         8.5659  -49.5298   14.4673 H         1 LYS         0.1883
     80 H18         8.6276  -47.3414   16.5405 H         1 LYS         0.0800
     81 H19        10.8765  -46.8582   15.7474 H         1 LYS         0.0312
     82 H20        10.7437  -48.1512   14.5076 H         1 LYS         0.0312
     83 H21        12.0504  -49.0088   16.3909 H         1 LYS         0.0269
     84 H22        10.4585  -49.8407   16.3685 H         1 LYS         0.0269
     85 H23         9.6531  -48.4508   18.2272 H         1 LYS         0.0317
     86 H24        11.1591  -47.4723   18.1948 H         1 LYS         0.0317
     87 H25        12.5359  -49.4331   18.9308 H         1 LYS         0.0813
     88 H26        11.1517  -50.5570   18.7123 H         1 LYS         0.0813
     89 H27        11.3194  -49.7750   21.0119 H         1 LYS         0.1994
     90 H28         9.9222  -49.2367   20.3282 H         1 LYS         0.1994
     91 H29        11.1906  -48.2069   20.5284 H         1 LYS         0.1994
     92 H30         8.8851  -45.1436   15.5350 H         1 ILE         0.1883
     93 H31         6.9850  -44.8230   13.4228 H         1 ILE         0.0803
     94 H32         9.0493  -42.9092   14.6180 H         1 ILE         0.0345
     95 H33         7.1145  -41.9450   15.8431 H         1 ILE         0.0267
     96 H34         7.3617  -43.6786   16.2432 H         1 ILE         0.0267
     97 H35         8.3827  -42.1491   12.3418 H         1 ILE         0.0235
     98 H36         7.7844  -41.0501   13.6305 H         1 ILE         0.0235
     99 H37         6.6582  -42.2057   12.8412 H         1 ILE         0.0235
    100 H38         4.8852  -43.1504   16.0298 H         1 ILE         0.0230
    101 H39         5.3896  -44.3046   14.7492 H         1 ILE         0.0230
    102 H40         5.1424  -42.5710   14.3491 H         1 ILE         0.0230
    103 H41        10.4627  -45.1149   13.5246 H         1 ASP         0.1884
    104 H42        10.6163  -44.4275   10.6752 H         1 ASP         0.0819
    105 H43        12.3828  -43.4294   12.0098 H         1 ASP         0.0478
    106 H44        13.1163  -44.7040   10.9783 H         1 ASP         0.0478
    107 H45         9.7496  -47.2084   12.2149 H         1 ASN         0.1885
    108 H46        10.3329  -48.9291    9.9478 H         1 ASN         0.0826
    109 H47        11.8783  -49.4075   12.5399 H         1 ASN         0.0551
    110 H48        12.5773  -48.9594   10.9470 H         1 ASN         0.0551
    111 H49        13.1310  -52.5117   10.9700 H         1 ASN         0.1814
    112 H50        13.7984  -51.0180   11.5388 H         1 ASN         0.1814
    113 H51         8.1091  -49.1613   10.0779 H         1 MET         0.1883
    114 H52         6.9617  -49.7078   12.7084 H         1 MET         0.0800
    115 H53         4.8643  -50.1674   11.2766 H         1 MET         0.0320
    116 H54         5.8514  -49.5035    9.9307 H         1 MET         0.0320
    117 H55         4.4710  -47.7445   10.9105 H         1 MET         0.0378
    118 H56         6.2068  -47.4227   11.2422 H         1 MET         0.0378
    119 H57         2.9694  -48.7688   14.2380 H         1 MET         0.0340
    120 H58         3.4570  -49.7399   12.8078 H         1 MET         0.0340
    121 H59         2.7296  -48.1130   12.5831 H         1 MET         0.0340
    122 H60         8.4642  -51.7437   10.2609 H         1 ASP         0.1884
    123 H61         7.0109  -54.1722   10.9807 H         1 ASP         0.0819
    124 H62         9.2719  -55.2876   10.5977 H         1 ASP         0.0478
    125 H63         9.9507  -53.6451   10.3362 H         1 ASP         0.0478
@<TRIPOS>BOND
     1    1    2 1  
     2    1   57 am 
     3    2    3 1  
     4    2    5 1  
     5    3    4 2  
     6    3    6 am 
     7    6    7 1  
     8    7    8 1  
     9    7   10 1  
    10    8    9 2  
    11    8   14 am 
    12   10   11 1  
    13   11   12 1  
    14   11   13 1  
    15   14   15 1  
    16   15   16 1  
    17   15   18 1  
    18   16   17 2  
    19   16   23 am 
    20   18   19 1  
    21   19   20 1  
    22   20   21 1  
    23   21   22 1  
    24   23   24 1  
    25   24   25 1  
    26   24   27 1  
    27   25   26 2  
    28   25   31 am 
    29   27   28 1  
    30   27   29 1  
    31   28   30 1  
    32   31   32 1  
    33   32   33 1  
    34   32   35 1  
    35   33   34 2  
    36   33   39 am 
    37   35   36 1  
    38   36   37 ar 
    39   36   38 ar 
    40   39   40 1  
    41   40   41 1  
    42   40   43 1  
    43   41   42 2  
    44   41   47 am 
    45   43   44 1  
    46   44   45 2  
    47   44   46 am 
    48   47   48 1  
    49   48   49 1  
    50   48   51 1  
    51   49   50 2  
    52   49   55 am 
    53   51   52 1  
    54   52   53 1  
    55   53   54 1  
    56   55   56 1  
    57   56   57 1  
    58   56   59 1  
    59   57   58 2  
    60   59   60 1  
    61   60   61 ar 
    62   60   62 ar 
    63    1   63 1  
    64    2   64 1  
    65    5   65 1  
    66    5   66 1  
    67    5   67 1  
    68    6   68 1  
    69    7   69 1  
    70   10   70 1  
    71   10   71 1  
    72   11   72 1  
    73   12   73 1  
    74   12   74 1  
    75   12   75 1  
    76   13   76 1  
    77   13   77 1  
    78   13   78 1  
    79   14   79 1  
    80   15   80 1  
    81   18   81 1  
    82   18   82 1  
    83   19   83 1  
    84   19   84 1  
    85   20   85 1  
    86   20   86 1  
    87   21   87 1  
    88   21   88 1  
    89   22   89 1  
    90   22   90 1  
    91   22   91 1  
    92   23   92 1  
    93   24   93 1  
    94   27   94 1  
    95   28   95 1  
    96   28   96 1  
    97   29   97 1  
    98   29   98 1  
    99   29   99 1  
   100   30  100 1  
   101   30  101 1  
   102   30  102 1  
   103   31  103 1  
   104   32  104 1  
   105   35  105 1  
   106   35  106 1  
   107   39  107 1  
   108   40  108 1  
   109   43  109 1  
   110   43  110 1  
   111   46  111 1  
   112   46  112 1  
   113   47  113 1  
   114   48  114 1  
   115   51  115 1  
   116   51  116 1  
   117   52  117 1  
   118   52  118 1  
   119   54  119 1  
   120   54  120 1  
   121   54  121 1  
   122   55  122 1  
   123   56  123 1  
   124   59  124 1  
   125   59  125 1  
@<TRIPOS>SUBSTRUCTURE
     1 ALA         1

