### 
### Created by X-TOOL on Mon Sep 10 21:13:08 2018
### 

@<TRIPOS>MOLECULE
3avk_ligand
  124   124     1     0     0
SMALL
GAST_HUCK


@<TRIPOS>ATOM
      1 N         -41.2960   34.4020  -13.9680 N.am      1 SER        -0.2615
      2 CA        -41.2570   34.8940  -15.3250 C.3       1 SER         0.1539
      3 C         -40.8230   33.7920  -16.3150 C.2       1 SER         0.2062
      4 O         -40.4320   34.0990  -17.4550 O.2       1 SER        -0.3943
      5 CB        -40.4430   36.1860  -15.4160 C.3       1 SER         0.0843
      6 OG        -39.1610   36.0280  -14.8390 O.3       1 SER        -0.3903
      7 N         -40.9730   32.5300  -15.8850 N.am      1 LEU        -0.2636
      8 CA        -40.6630   31.3110  -16.6780 C.3       1 LEU         0.1312
      9 C         -39.1720   31.2270  -17.1050 C.2       1 LEU         0.2039
     10 O         -38.8510   30.6490  -18.1460 O.2       1 LEU        -0.3944
     11 CB        -41.6270   31.0900  -17.8960 C.3       1 LEU        -0.0101
     12 CG        -43.1420   30.8970  -17.5790 C.3       1 LEU        -0.0425
     13 CD1       -44.0970   31.2380  -18.7950 C.3       1 LEU        -0.0625
     14 CD2       -43.4730   29.5210  -16.8540 C.3       1 LEU        -0.0625
     15 N         -38.2790   31.7570  -16.2610 N.am      1 LYS        -0.2637
     16 CA        -36.8290   31.6460  -16.4770 C.3       1 LYS         0.1310
     17 C         -36.2930   30.7710  -15.3300 C.2       1 LYS         0.2039
     18 O         -36.9250   30.6890  -14.2570 O.2       1 LYS        -0.3944
     19 CB        -36.2020   33.0240  -16.4020 C.3       1 LYS        -0.0122
     20 CG        -36.9150   33.9960  -17.4400 C.3       1 LYS        -0.0440
     21 CD        -36.6110   33.5380  -18.8770 C.3       1 LYS        -0.0124
     22 CE        -36.9950   34.7190  -19.8490 C.3       1 LYS        -0.0354
     23 NZ        -37.0460   34.1980  -21.2300 N.4       1 LYS         0.2185
     24 N         -35.1780   30.0940  -15.5660 N.am      1 ILE        -0.2635
     25 CA        -34.5690   29.2280  -14.5370 C.3       1 ILE         0.1335
     26 C         -34.2560   29.9130  -13.2290 C.2       1 ILE         0.2042
     27 O         -34.3300   29.2760  -12.1120 O.2       1 ILE        -0.3944
     28 CB        -33.3300   28.5190  -15.1570 C.3       1 ILE        -0.0037
     29 CG1       -33.8620   27.6850  -16.3350 C.3       1 ILE        -0.0491
     30 CG2       -32.5650   27.6490  -14.1320 C.3       1 ILE        -0.0582
     31 CD1       -34.6250   26.3010  -15.9640 C.3       1 ILE        -0.0648
     32 N         -33.8940   31.1960  -13.3770 N.am      1 ASP        -0.2622
     33 CA        -33.5110   32.0810  -12.2640 C.3       1 ASP         0.1423
     34 C         -34.7130   32.8880  -11.7420 C.2       1 ASP         0.2057
     35 O         -34.5860   33.6590  -10.7480 O.2       1 ASP        -0.3943
     36 CB        -32.3120   33.0520  -12.6490 C.3       1 ASP         0.0406
     37 CG        -32.5640   33.9360  -13.9630 C.2       1 ASP         0.0393
     38 OD1       -31.7270   34.8740  -14.2790 O.co2     1 ASP        -0.5688
     39 OD2       -33.5240   33.7090  -14.7210 O.co2     1 ASP        -0.5688
     40 N         -35.8940   32.6680  -12.3200 N.am      1 ASN        -0.2615
     41 CA        -37.0820   33.4070  -11.8690 C.3       1 ASN         0.1476
     42 C         -38.3180   32.7950  -12.4780 C.2       1 ASN         0.2063
     43 O         -38.7960   33.2420  -13.5690 O.2       1 ASN        -0.3942
     44 CB        -37.0020   34.8630  -12.2760 C.3       1 ASN         0.0773
     45 CG        -38.2040   35.6530  -11.8220 C.2       1 ASN         0.1780
     46 OD1       -39.0990   35.1260  -11.1570 O.2       1 ASN        -0.3970
     47 ND2       -38.2340   36.9250  -12.1900 N.am      1 ASN        -0.3007
     48 N         -38.8120   31.7480  -11.8250 N.am      1 GLU        -0.2635
     49 CA        -39.8520   30.9710  -12.4970 C.3       1 GLU         0.1325
     50 C         -41.1960   31.7370  -12.5570 C.2       1 GLU         0.2041
     51 O         -42.0470   31.3280  -13.3630 O.2       1 GLU        -0.3944
     52 CB        -40.0180   29.5480  -11.9360 C.3       1 GLU        -0.0008
     53 CG        -38.9970   28.5750  -12.4830 C.3       1 GLU         0.0044
     54 CD        -39.0200   28.3430  -14.0050 C.2       1 GLU         0.0350
     55 OE1       -40.0570   28.5550  -14.6190 O.co2     1 GLU        -0.5690
     56 OE2       -37.9940   27.8680  -14.5880 O.co2     1 GLU        -0.5690
     57 N         -41.3670   32.8220  -11.7530 N.am      1 ASP        -0.2622
     58 CA        -42.4980   33.7510  -11.9290 C.3       1 ASP         0.1423
     59 C         -42.4790   34.3160  -13.3490 C.2       1 ASP         0.2057
     60 O         -43.5290   34.7140  -13.8640 O.2       1 ASP        -0.3943
     61 CB        -42.3980   34.9650  -10.9990 C.3       1 ASP         0.0406
     62 CG        -42.6630   34.6120   -9.5690 C.2       1 ASP         0.0393
     63 OD1       -43.0800   33.4600   -9.3350 O.co2     1 ASP        -0.5688
     64 OD2       -42.4500   35.4660   -8.6870 O.co2     1 ASP        -0.5688
     65 H1        -40.4550   34.1308  -13.4999 H         1 SER         0.1884
     66 H2        -42.2889   35.1606  -15.5972 H         1 SER         0.0823
     67 H3        -40.9792   36.9855  -14.8839 H         1 SER         0.0606
     68 H4        -40.3278   36.4631  -16.4743 H         1 SER         0.0606
     69 H5        -38.6802   36.8442  -14.9102 H         1 SER         0.2097
     70 H6        -41.3212   32.3987  -14.9568 H         1 LEU         0.1883
     71 H7        -40.8340   30.4627  -15.9990 H         1 LEU         0.0800
     72 H8        -41.2838   30.1924  -18.4313 H         1 LEU         0.0315
     73 H9        -41.5355   31.9667  -18.5540 H         1 LEU         0.0315
     74 H10       -43.3685   31.6667  -16.8265 H         1 LEU         0.0298
     75 H11       -45.1433   31.0784  -18.4954 H         1 LEU         0.0232
     76 H12       -43.8553   30.5839  -19.6457 H         1 LEU         0.0232
     77 H13       -43.9559   32.2886  -19.0886 H         1 LEU         0.0232
     78 H14       -42.7658   29.3633  -16.0263 H         1 LEU         0.0232
     79 H15       -43.3830   28.6955  -17.5754 H         1 LEU         0.0232
     80 H16       -44.4990   29.5523  -16.4587 H         1 LEU         0.0232
     81 H17       -38.6099   32.2463  -15.4541 H         1 LYS         0.1883
     82 H18       -36.6134   31.1853  -17.4523 H         1 LYS         0.0800
     83 H19       -35.1315   32.9521  -16.6446 H         1 LYS         0.0312
     84 H20       -36.3213   33.4249  -15.3846 H         1 LYS         0.0312
     85 H21       -36.5414   35.0206  -17.2967 H         1 LYS         0.0269
     86 H22       -38.0020   33.9752  -17.2725 H         1 LYS         0.0269
     87 H23       -37.2060   32.6451  -19.1193 H         1 LYS         0.0317
     88 H24       -35.5409   33.3037  -18.9769 H         1 LYS         0.0317
     89 H25       -36.2387   35.5149  -19.7814 H         1 LYS         0.0813
     90 H26       -37.9790   35.1235  -19.5694 H         1 LYS         0.0813
     91 H27       -37.2908   34.9443  -21.8618 H         1 LYS         0.1994
     92 H28       -37.7384   33.4678  -21.2883 H         1 LYS         0.1994
     93 H29       -36.1437   33.8264  -21.4825 H         1 LYS         0.1994
     94 H30       -34.7394   30.1716  -16.4613 H         1 ILE         0.1883
     95 H31       -35.3073   28.4475  -14.3010 H         1 ILE         0.0803
     96 H32       -32.6346   29.2810  -15.5387 H         1 ILE         0.0345
     97 H33       -33.0057   27.4314  -16.9772 H         1 ILE         0.0267
     98 H34       -34.5680   28.3143  -16.8967 H         1 ILE         0.0267
     99 H35       -32.2036   28.2839  -13.3096 H         1 ILE         0.0235
    100 H36       -31.7088   27.1671  -14.6267 H         1 ILE         0.0235
    101 H37       -33.2386   26.8775  -13.7308 H         1 ILE         0.0235
    102 H38       -34.9534   25.8041  -16.8888 H         1 ILE         0.0230
    103 H39       -35.5004   26.5219  -15.3357 H         1 ILE         0.0230
    104 H40       -33.9382   25.6391  -15.4162 H         1 ILE         0.0230
    105 H41       -33.8835   31.5758  -14.3020 H         1 ASP         0.1884
    106 H42       -33.1621   31.4377  -11.4428 H         1 ASP         0.0819
    107 H43       -31.4139   32.4390  -12.8151 H         1 ASP         0.0478
    108 H44       -32.1388   33.7349  -11.8042 H         1 ASP         0.0478
    109 H45       -35.9717   32.0003  -13.0603 H         1 ASN         0.1885
    110 H46       -37.1467   33.3439  -10.7727 H         1 ASN         0.0826
    111 H47       -36.9351   34.9203  -13.3725 H         1 ASN         0.0551
    112 H48       -36.0992   35.3056  -11.8299 H         1 ASN         0.0551
    113 H49       -39.0033   37.5050  -11.9220 H         1 ASN         0.1814
    114 H50       -37.4874   37.3053  -12.7358 H         1 ASN         0.1814
    115 H51       -38.4859   31.5021  -10.9122 H         1 GLU         0.1883
    116 H52       -39.5175   30.8499  -13.5379 H         1 GLU         0.0801
    117 H53       -41.0232   29.1840  -12.1950 H         1 GLU         0.0330
    118 H54       -39.9131   29.5880  -10.8418 H         1 GLU         0.0330
    119 H55       -39.1642   27.6040  -11.9938 H         1 GLU         0.0433
    120 H56       -37.9987   28.9525  -12.2170 H         1 GLU         0.0433
    121 H57       -40.7065   32.9938  -11.0221 H         1 ASP         0.1884
    122 H58       -43.4391   33.2130  -11.7423 H         1 ASP         0.0819
    123 H59       -43.1341   35.7170  -11.3194 H         1 ASP         0.0478
    124 H60       -41.3852   35.3870  -11.0767 H         1 ASP         0.0478
@<TRIPOS>BOND
     1    1    2 1  
     2    1   59 am 
     3    2    3 1  
     4    2    5 1  
     5    3    4 2  
     6    3    7 am 
     7    5    6 1  
     8    7    8 1  
     9    8    9 1  
    10    8   11 1  
    11    9   10 2  
    12    9   15 am 
    13   11   12 1  
    14   12   13 1  
    15   12   14 1  
    16   15   16 1  
    17   16   17 1  
    18   16   19 1  
    19   17   18 2  
    20   17   24 am 
    21   19   20 1  
    22   20   21 1  
    23   21   22 1  
    24   22   23 1  
    25   24   25 1  
    26   25   26 1  
    27   25   28 1  
    28   26   27 2  
    29   26   32 am 
    30   28   29 1  
    31   28   30 1  
    32   29   31 1  
    33   32   33 1  
    34   33   34 1  
    35   33   36 1  
    36   34   35 2  
    37   34   40 am 
    38   36   37 1  
    39   37   38 ar 
    40   37   39 ar 
    41   40   41 1  
    42   41   42 1  
    43   41   44 1  
    44   42   43 2  
    45   42   48 am 
    46   44   45 1  
    47   45   46 2  
    48   45   47 am 
    49   48   49 1  
    50   49   50 1  
    51   49   52 1  
    52   50   51 2  
    53   50   57 am 
    54   52   53 1  
    55   53   54 1  
    56   54   55 ar 
    57   54   56 ar 
    58   57   58 1  
    59   58   59 1  
    60   58   61 1  
    61   59   60 2  
    62   61   62 1  
    63   62   63 ar 
    64   62   64 ar 
    65    1   65 1  
    66    2   66 1  
    67    5   67 1  
    68    5   68 1  
    69    6   69 1  
    70    7   70 1  
    71    8   71 1  
    72   11   72 1  
    73   11   73 1  
    74   12   74 1  
    75   13   75 1  
    76   13   76 1  
    77   13   77 1  
    78   14   78 1  
    79   14   79 1  
    80   14   80 1  
    81   15   81 1  
    82   16   82 1  
    83   19   83 1  
    84   19   84 1  
    85   20   85 1  
    86   20   86 1  
    87   21   87 1  
    88   21   88 1  
    89   22   89 1  
    90   22   90 1  
    91   23   91 1  
    92   23   92 1  
    93   23   93 1  
    94   24   94 1  
    95   25   95 1  
    96   28   96 1  
    97   29   97 1  
    98   29   98 1  
    99   30   99 1  
   100   30  100 1  
   101   30  101 1  
   102   31  102 1  
   103   31  103 1  
   104   31  104 1  
   105   32  105 1  
   106   33  106 1  
   107   36  107 1  
   108   36  108 1  
   109   40  109 1  
   110   41  110 1  
   111   44  111 1  
   112   44  112 1  
   113   47  113 1  
   114   47  114 1  
   115   48  115 1  
   116   49  116 1  
   117   52  117 1  
   118   52  118 1  
   119   53  119 1  
   120   53  120 1  
   121   57  121 1  
   122   58  122 1  
   123   61  123 1  
   124   61  124 1  
@<TRIPOS>SUBSTRUCTURE
     1 SER         1

