### 
### Created by X-TOOL on Mon Sep 10 21:13:08 2018
### 

@<TRIPOS>MOLECULE
3avl_ligand
  122   122     1     0     0
SMALL
GAST_HUCK


@<TRIPOS>ATOM
      1 N          -6.2260  -14.9730    4.3020 N.am      1 ALA        -0.2639
      2 CA         -5.8400  -15.5130    5.6110 C.3       1 ALA         0.1282
      3 C          -5.4590  -14.4060    6.6190 C.2       1 ALA         0.2037
      4 O          -4.8390  -14.6850    7.6540 O.2       1 ALA        -0.3944
      5 CB         -4.6790  -16.5440    5.4390 C.3       1 ALA        -0.0244
      6 N          -5.8370  -13.1580    6.3200 N.am      1 THR        -0.2613
      7 CA         -5.4040  -11.9250    7.0780 C.3       1 THR         0.1565
      8 C          -3.8840  -11.7070    7.2240 C.2       1 THR         0.2065
      9 O          -3.3990  -11.3100    8.2830 O.2       1 THR        -0.3943
     10 CB         -6.1160  -11.7710    8.4930 C.3       1 THR         0.0924
     11 OG1        -7.4510  -12.3020    8.4190 O.3       1 THR        -0.3874
     12 CG2        -6.1470  -10.2630    8.9610 C.3       1 THR        -0.0346
     13 N          -3.1320  -11.9610    6.1530 N.am      1 LYS        -0.2637
     14 CA         -1.6750  -11.8070    6.1850 C.3       1 LYS         0.1310
     15 C          -1.2870  -10.9550    4.9860 C.2       1 LYS         0.2039
     16 O          -1.9740  -10.9860    3.9850 O.2       1 LYS        -0.3944
     17 CB         -1.0110  -13.1940    6.0740 C.3       1 LYS        -0.0122
     18 CG         -1.4520  -14.2080    7.1490 C.3       1 LYS        -0.0440
     19 CD         -0.8840  -13.8080    8.5030 C.3       1 LYS        -0.0124
     20 CE         -1.4570  -14.7690    9.5990 C.3       1 LYS        -0.0354
     21 NZ         -0.9680  -14.2560   10.8870 N.4       1 LYS         0.2185
     22 N          -0.1900  -10.2040    5.0680 N.am      1 ILE        -0.2635
     23 CA          0.2490   -9.3470    3.9330 C.3       1 ILE         0.1335
     24 C           0.4240  -10.1690    2.6330 C.2       1 ILE         0.2042
     25 O           0.1110   -9.7000    1.5040 O.2       1 ILE        -0.3944
     26 CB          1.5850   -8.6210    4.2600 C.3       1 ILE        -0.0037
     27 CG1         1.7350   -7.3230    3.4580 C.3       1 ILE        -0.0491
     28 CG2         2.7440   -9.5350    3.9740 C.3       1 ILE        -0.0582
     29 CD1         1.0620   -6.1450    4.0870 C.3       1 ILE        -0.0648
     30 N           0.8980  -11.4070    2.8140 N.am      1 ASP        -0.2622
     31 CA          1.1900  -12.3120    1.6820 C.3       1 ASP         0.1423
     32 C           0.0180  -13.2820    1.4570 C.2       1 ASP         0.2057
     33 O           0.1200  -14.1720    0.6310 O.2       1 ASP        -0.3943
     34 CB          2.5270  -13.0860    1.8970 C.3       1 ASP         0.0406
     35 CG          2.5280  -13.9040    3.1650 C.2       1 ASP         0.0393
     36 OD1         3.4320  -14.7310    3.3620 O.co2     1 ASP        -0.5688
     37 OD2         1.6000  -13.7580    4.0030 O.co2     1 ASP        -0.5688
     38 N          -1.0580  -13.1450    2.2380 N.am      1 ASN        -0.2615
     39 CA         -2.2940  -13.9050    1.9560 C.3       1 ASN         0.1476
     40 C          -3.4360  -13.1270    2.5890 C.2       1 ASN         0.2063
     41 O          -3.7790  -13.2700    3.8100 O.2       1 ASN        -0.3942
     42 CB         -2.1960  -15.3790    2.4070 C.3       1 ASN         0.0773
     43 CG         -3.4130  -16.2380    1.9570 C.2       1 ASN         0.1780
     44 OD1        -4.4360  -15.7290    1.4930 O.2       1 ASN        -0.3970
     45 ND2        -3.2890  -17.5500    2.1220 N.am      1 ASN        -0.3007
     46 N          -3.9770  -12.2250    1.7680 N.am      1 LEU        -0.2636
     47 CA         -4.9670  -11.2910    2.3190 C.3       1 LEU         0.1312
     48 C          -6.2170  -12.0610    2.8330 C.2       1 LEU         0.2040
     49 O          -6.8020  -11.6590    3.8460 O.2       1 LEU        -0.3944
     50 CB         -5.3010  -10.1720    1.3350 C.3       1 LEU        -0.0101
     51 CG         -4.2000   -9.0950    1.1990 C.3       1 LEU        -0.0425
     52 CD1        -4.6960   -8.0770    0.2120 C.3       1 LEU        -0.0625
     53 CD2        -3.8170   -8.4190    2.5750 C.3       1 LEU        -0.0625
     54 N          -6.5550  -13.1740    2.1610 N.am      1 ASP        -0.2622
     55 CA         -7.6520  -14.1010    2.5530 C.3       1 ASP         0.1423
     56 C          -7.4870  -14.7030    3.9460 C.2       1 ASP         0.2056
     57 O          -8.4780  -14.9330    4.6550 O.2       1 ASP        -0.3943
     58 CB         -7.7620  -15.2550    1.5490 C.3       1 ASP         0.0406
     59 CG         -8.5810  -14.8880    0.3360 C.2       1 ASP         0.0393
     60 OD1        -9.4030  -13.9500    0.4490 O.co2     1 ASP        -0.5688
     61 OD2        -8.3890  -15.5240   -0.7280 O.co2     1 ASP        -0.5688
     62 H          -5.4875  -14.7925    3.6220 H         1 ALA         0.1883
     63 H          -6.7092  -16.0207    6.0290 H         1 ALA         0.0797
     64 H          -3.7900  -16.0304    5.0730 H         1 ALA         0.0277
     65 H          -4.4617  -17.0084    6.4009 H         1 ALA         0.0277
     66 H          -4.9781  -17.3100    4.7236 H         1 ALA         0.0277
     67 H          -6.4617  -13.0299    5.5239 H         1 THR         0.1884
     68 H          -5.7494  -11.1310    6.4159 H         1 THR         0.0826
     69 H          -5.5426  -12.3315    9.2314 H         1 THR         0.0639
     70 H          -7.8792  -12.2084    9.2731 H         1 THR         0.2101
     71 H          -6.7243   -9.6744    8.2480 H         1 THR         0.0257
     72 H          -6.6097  -10.1990    9.9458 H         1 THR         0.0257
     73 H          -5.1283   -9.8784    9.0111 H         1 THR         0.0257
     74 H          -3.5813  -12.2698    5.2909 H         1 LYS         0.1883
     75 H          -1.3501  -11.3387    7.1141 H         1 LYS         0.0800
     76 H           0.0611  -13.0434    6.2009 H         1 LYS         0.0312
     77 H          -1.3019  -13.6085    5.1088 H         1 LYS         0.0312
     78 H          -1.0821  -15.1980    6.8824 H         1 LYS         0.0269
     79 H          -2.5405  -14.2211    7.2056 H         1 LYS         0.0269
     80 H          -1.1658  -12.7801    8.7311 H         1 LYS         0.0317
     81 H           0.2034  -13.8806    8.4819 H         1 LYS         0.0317
     82 H          -1.1289  -15.7952    9.4336 H         1 LYS         0.0813
     83 H          -2.5464  -14.7920    9.5722 H         1 LYS         0.0813
     84 H          -1.3140  -14.8491   11.6413 H         1 LYS         0.1994
     85 H           0.0520  -14.2619   10.8888 H         1 LYS         0.1994
     86 H          -1.3039  -13.3023   11.0214 H         1 LYS         0.1994
     87 H           0.3607  -10.2164    5.9265 H         1 ILE         0.1883
     88 H          -0.5352   -8.6058    3.7790 H         1 ILE         0.0803
     89 H           1.5739   -8.3597    5.3182 H         1 ILE         0.0345
     90 H           1.2674   -7.4847    2.4868 H         1 ILE         0.0267
     91 H           2.7998   -7.0971    3.4006 H         1 ILE         0.0267
     92 H           2.6594  -10.4305    4.5897 H         1 ILE         0.0235
     93 H           2.7333   -9.8145    2.9205 H         1 ILE         0.0235
     94 H           3.6766   -9.0203    4.2052 H         1 ILE         0.0235
     95 H          -0.0050   -6.3460    4.1826 H         1 ILE         0.0230
     96 H           1.4896   -5.9681    5.0739 H         1 ILE         0.0230
     97 H           1.2126   -5.2653    3.4613 H         1 ILE         0.0230
     98 H           1.0634  -11.7374    3.7647 H         1 ASP         0.1884
     99 H           1.3112  -11.7030    0.7862 H         1 ASP         0.0819
    100 H           3.3303  -12.3529    1.9707 H         1 ASP         0.0478
    101 H           2.6573  -13.7691    1.0576 H         1 ASP         0.0478
    102 H          -1.0259  -12.5103    3.0358 H         1 ASN         0.1885
    103 H          -2.4708  -13.9905    0.8838 H         1 ASN         0.0826
    104 H          -2.1676  -15.3905    3.4966 H         1 ASN         0.0551
    105 H          -1.3028  -15.8060    1.9509 H         1 ASN         0.0551
    106 H          -4.0549  -18.1714    1.8618 H         1 ASN         0.1814
    107 H          -2.4279  -17.9362    2.5089 H         1 ASN         0.1814
    108 H          -3.7101  -12.1853    0.7843 H         1 LEU         0.1883
    109 H          -4.5303  -10.7912    3.1837 H         1 LEU         0.0800
    110 H          -6.1944   -9.6720    1.7090 H         1 LEU         0.0315
    111 H          -5.4221  -10.6325    0.3545 H         1 LEU         0.0315
    112 H          -3.2800   -9.5653    0.8520 H         1 LEU         0.0298
    113 H          -4.8801   -8.5619   -0.7467 H         1 LEU         0.0232
    114 H          -5.6219   -7.6359    0.5812 H         1 LEU         0.0232
    115 H          -3.9447   -7.2971    0.0878 H         1 LEU         0.0232
    116 H          -4.6981   -7.9381    2.9998 H         1 LEU         0.0232
    117 H          -3.4501   -9.1808    3.2629 H         1 LEU         0.0232
    118 H          -3.0395   -7.6735    2.4081 H         1 LEU         0.0232
    119 H          -6.0215  -13.4003    1.3216 H         1 ASP         0.1884
    120 H          -8.5542  -13.4894    2.5593 H         1 ASP         0.0819
    121 H          -8.2546  -16.0896    2.0479 H         1 ASP         0.0478
    122 H          -6.7560  -15.5058    1.2127 H         1 ASP         0.0478
@<TRIPOS>BOND
     1    1    2 1  
     2    1   56 am 
     3    2    3 1  
     4    2    5 1  
     5    3    4 2  
     6    3    6 am 
     7    6    7 1  
     8    7    8 1  
     9    7   10 1  
    10    8    9 2  
    11    8   13 am 
    12   10   11 1  
    13   10   12 1  
    14   13   14 1  
    15   14   15 1  
    16   14   17 1  
    17   15   16 2  
    18   15   22 am 
    19   17   18 1  
    20   18   19 1  
    21   19   20 1  
    22   20   21 1  
    23   22   23 1  
    24   23   24 1  
    25   23   26 1  
    26   24   25 2  
    27   24   30 am 
    28   26   27 1  
    29   26   28 1  
    30   27   29 1  
    31   30   31 1  
    32   31   32 1  
    33   31   34 1  
    34   32   33 2  
    35   32   38 am 
    36   34   35 1  
    37   35   36 ar 
    38   35   37 ar 
    39   38   39 1  
    40   39   40 1  
    41   39   42 1  
    42   40   41 2  
    43   40   46 am 
    44   42   43 1  
    45   43   44 2  
    46   43   45 am 
    47   46   47 1  
    48   47   48 1  
    49   47   50 1  
    50   48   49 2  
    51   48   54 am 
    52   50   51 1  
    53   51   52 1  
    54   51   53 1  
    55   54   55 1  
    56   55   56 1  
    57   55   58 1  
    58   56   57 2  
    59   58   59 1  
    60   59   60 ar 
    61   59   61 ar 
    62    1   62 1  
    63    2   63 1  
    64    5   64 1  
    65    5   65 1  
    66    5   66 1  
    67    6   67 1  
    68    7   68 1  
    69   10   69 1  
    70   11   70 1  
    71   12   71 1  
    72   12   72 1  
    73   12   73 1  
    74   13   74 1  
    75   14   75 1  
    76   17   76 1  
    77   17   77 1  
    78   18   78 1  
    79   18   79 1  
    80   19   80 1  
    81   19   81 1  
    82   20   82 1  
    83   20   83 1  
    84   21   84 1  
    85   21   85 1  
    86   21   86 1  
    87   22   87 1  
    88   23   88 1  
    89   26   89 1  
    90   27   90 1  
    91   27   91 1  
    92   28   92 1  
    93   28   93 1  
    94   28   94 1  
    95   29   95 1  
    96   29   96 1  
    97   29   97 1  
    98   30   98 1  
    99   31   99 1  
   100   34  100 1  
   101   34  101 1  
   102   38  102 1  
   103   39  103 1  
   104   42  104 1  
   105   42  105 1  
   106   45  106 1  
   107   45  107 1  
   108   46  108 1  
   109   47  109 1  
   110   50  110 1  
   111   50  111 1  
   112   51  112 1  
   113   52  113 1  
   114   52  114 1  
   115   52  115 1  
   116   53  116 1  
   117   53  117 1  
   118   53  118 1  
   119   54  119 1  
   120   55  120 1  
   121   58  121 1  
   122   58  122 1  
@<TRIPOS>SUBSTRUCTURE
     1 ALA         1

