### 
### Created by X-TOOL on Mon Sep 10 21:13:08 2018
### 

@<TRIPOS>MOLECULE
3avm_ligand
  133   133     1     0     0
SMALL
GAST_HUCK


@<TRIPOS>ATOM
      1 N           9.7350  -53.5700   15.2880 N.am      1 SER        -0.2615
      2 CA         10.2950  -53.4410   16.6410 C.3       1 SER         0.1539
      3 C           9.4390  -52.5610   17.5970 C.2       1 SER         0.2062
      4 O           9.8500  -52.2270   18.7380 O.2       1 SER        -0.3943
      5 CB         11.7100  -52.8630   16.4970 C.3       1 SER         0.0843
      6 OG         12.6510  -53.6710   17.1720 O.3       1 SER        -0.3903
      7 N           8.2580  -52.1590   17.1200 N.am      1 ARG        -0.2637
      8 CA          7.3660  -51.2550   17.8700 C.3       1 ARG         0.1311
      9 C           7.9440  -49.8090   17.9670 C.2       1 ARG         0.2039
     10 O           7.6830  -49.0780   18.9330 O.2       1 ARG        -0.3944
     11 CB          7.0310  -51.8950   19.2550 C.3       1 ARG        -0.0092
     12 CG          6.0140  -51.1840   20.1380 C.3       1 ARG        -0.0156
     13 CD          4.6800  -50.9290   19.4670 C.3       1 ARG         0.0627
     14 NE          4.0760  -49.7090   20.0140 N.pl3     1 ARG        -0.2723
     15 CZ          4.2160  -48.4840   19.4970 C.cat     1 ARG         0.2882
     16 NH1         4.9210  -48.2890   18.3860 N.pl3     1 ARG        -0.2849
     17 NH2         3.6320  -47.4410   20.0890 N.pl3     1 ARG        -0.2849
     18 N           8.7110  -49.3950   16.9530 N.am      1 LYS        -0.2637
     19 CA          9.3330  -48.0590   16.9300 C.3       1 LYS         0.1310
     20 C           8.8070  -47.3260   15.6990 C.2       1 LYS         0.2039
     21 O           8.5070  -47.9870   14.7240 O.2       1 LYS        -0.3944
     22 CB         10.8560  -48.2180   16.8350 C.3       1 LYS        -0.0122
     23 CG         11.4740  -49.0680   17.9370 C.3       1 LYS        -0.0440
     24 CD         11.3600  -48.3720   19.2840 C.3       1 LYS        -0.0124
     25 CE         11.6620  -49.4100   20.3550 C.3       1 LYS        -0.0354
     26 NZ         12.0080  -48.8400   21.6740 N.4       1 LYS         0.2185
     27 N           8.7200  -45.9900   15.7130 N.am      1 ILE        -0.2635
     28 CA          8.3090  -45.1850   14.5150 C.3       1 ILE         0.1335
     29 C           9.1410  -45.5760   13.3070 C.2       1 ILE         0.2042
     30 O           8.6170  -45.6570   12.1690 O.2       1 ILE        -0.3944
     31 CB          8.4470  -43.6150   14.7940 C.3       1 ILE        -0.0037
     32 CG1         7.2870  -43.1600   15.6650 C.3       1 ILE        -0.0491
     33 CG2         8.5050  -42.7250   13.5120 C.3       1 ILE        -0.0582
     34 CD1         5.9800  -42.9580   14.8830 C.3       1 ILE        -0.0648
     35 N          10.4390  -45.8280   13.5610 N.am      1 ASP        -0.2622
     36 CA         11.3840  -46.0490   12.4620 C.3       1 ASP         0.1423
     37 C          11.6030  -47.5260   12.2140 C.2       1 ASP         0.2057
     38 O          12.3700  -47.8760   11.3430 O.2       1 ASP        -0.3943
     39 CB         12.7680  -45.3450   12.6630 C.3       1 ASP         0.0406
     40 CG         13.4120  -45.6510   14.0160 C.2       1 ASP         0.0393
     41 OD1        14.6060  -45.2850   14.1740 O.co2     1 ASP        -0.5688
     42 OD2        12.7720  -46.2970   14.8970 O.co2     1 ASP        -0.5688
     43 N          10.9710  -48.3720   13.0210 N.am      1 ASN        -0.2615
     44 CA         11.0310  -49.8190   12.8230 C.3       1 ASN         0.1476
     45 C           9.7370  -50.3940   13.4180 C.2       1 ASN         0.2063
     46 O           9.6730  -50.7700   14.6030 O.2       1 ASN        -0.3942
     47 CB         12.3230  -50.4150   13.4190 C.3       1 ASN         0.0773
     48 CG         12.5490  -51.8770   13.0100 C.2       1 ASN         0.1780
     49 OD1        11.7750  -52.4610   12.2510 O.2       1 ASN        -0.3970
     50 ND2        13.6000  -52.4730   13.5410 N.am      1 ASN        -0.3007
     51 N           8.6790  -50.3830   12.5960 N.am      1 LEU        -0.2636
     52 CA          7.3430  -50.7470   13.1240 C.3       1 LEU         0.1312
     53 C           7.3440  -52.1890   13.6580 C.2       1 LEU         0.2040
     54 O           6.6630  -52.4950   14.6590 O.2       1 LEU        -0.3944
     55 CB          6.2250  -50.5180   12.1010 C.3       1 LEU        -0.0101
     56 CG          5.8270  -49.0240   11.9110 C.3       1 LEU        -0.0425
     57 CD1         4.6610  -48.9550   10.9290 C.3       1 LEU        -0.0625
     58 CD2         5.4570  -48.2980   13.2200 C.3       1 LEU        -0.0625
     59 N           8.1380  -53.0410   13.0000 N.am      1 ASP        -0.2622
     60 CA          8.4190  -54.4250   13.4490 C.3       1 ASP         0.1423
     61 C           8.8570  -54.4990   14.9160 C.2       1 ASP         0.2057
     62 O           8.3950  -55.3590   15.6770 O.2       1 ASP        -0.3943
     63 CB          9.4980  -55.0630   12.5560 C.3       1 ASP         0.0406
     64 CG          8.9040  -55.8070   11.3610 C.2       1 ASP         0.0393
     65 OD1         7.6610  -55.9100   11.2850 O.co2     1 ASP        -0.5688
     66 OD2         9.6760  -56.2910   10.5020 O.co2     1 ASP        -0.5688
     67 H          10.0413  -52.8992   14.5832 H         1 SER         0.1884
     68 H          10.3059  -54.4282   17.1030 H         1 SER         0.0823
     69 H          11.7280  -51.8636   16.9316 H         1 SER         0.0606
     70 H          11.9702  -52.8284   15.4391 H         1 SER         0.0606
     71 H          13.5275  -53.2929   17.0698 H         1 SER         0.2097
     72 H           7.9616  -52.4899   16.2018 H         1 ARG         0.1883
     73 H           6.4282  -51.1368   17.3272 H         1 ARG         0.0800
     74 H           7.9652  -51.8794   19.8164 H         1 ARG         0.0313
     75 H           6.5909  -52.8661   19.0281 H         1 ARG         0.0313
     76 H           6.4354  -50.2123   20.3957 H         1 ARG         0.0301
     77 H           5.8246  -51.8303   20.9951 H         1 ARG         0.0301
     78 H           4.0163  -51.7740   19.6501 H         1 ARG         0.0689
     79 H           4.8326  -50.8069   18.3947 H         1 ARG         0.0689
     80 H           3.5049  -49.8026   20.8539 H         1 ARG         0.2642
     81 H           5.3632  -49.0796   17.9172 H         1 ARG         0.2615
     82 H           5.0194  -47.3488   18.0028 H         1 ARG         0.2615
     83 H           3.0793  -47.5785   20.9352 H         1 ARG         0.2615
     84 H           3.7381  -46.5060   19.6955 H         1 ARG         0.2615
     85 H           8.8713  -50.0260   16.1678 H         1 LYS         0.1883
     86 H           9.0936  -47.4979   17.8333 H         1 LYS         0.0800
     87 H          11.2863  -47.2204   16.9232 H         1 LYS         0.0312
     88 H          11.0653  -48.7201   15.8904 H         1 LYS         0.0312
     89 H          12.5286  -49.2245   17.7104 H         1 LYS         0.0269
     90 H          10.9434  -50.0189   17.9867 H         1 LYS         0.0269
     91 H          10.3597  -47.9608   19.4197 H         1 LYS         0.0317
     92 H          12.0623  -47.5407   19.3468 H         1 LYS         0.0317
     93 H          12.5269  -49.9795   20.0149 H         1 LYS         0.0813
     94 H          10.7583  -50.0043   20.4895 H         1 LYS         0.0813
     95 H          12.1951  -49.5969   22.3316 H         1 LYS         0.1994
     96 H          12.8381  -48.2543   21.5828 H         1 LYS         0.1994
     97 H          11.2288  -48.2768   22.0147 H         1 LYS         0.1994
     98 H           8.9433  -45.4968   16.5775 H         1 ILE         0.1883
     99 H           7.2603  -45.4009   14.3108 H         1 ILE         0.0803
    100 H           9.4069  -43.4829   15.2932 H         1 ILE         0.0345
    101 H           7.5607  -42.1995   16.1015 H         1 ILE         0.0267
    102 H           7.1089  -43.9376   16.4077 H         1 ILE         0.0267
    103 H           9.3655  -43.0146   12.9088 H         1 ILE         0.0235
    104 H           7.5914  -42.8631   12.9338 H         1 ILE         0.0235
    105 H           8.5985  -41.6784   13.8018 H         1 ILE         0.0235
    106 H           6.1311  -42.1993   14.1151 H         1 ILE         0.0230
    107 H           5.6894  -43.8983   14.4144 H         1 ILE         0.0230
    108 H           5.1955  -42.6336   15.5667 H         1 ILE         0.0230
    109 H          10.7676  -45.8655   14.5259 H         1 ASP         0.1884
    110 H          10.9155  -45.5910   11.5909 H         1 ASP         0.0819
    111 H          12.6004  -44.2691   12.6139 H         1 ASP         0.0478
    112 H          13.4402  -45.7127   11.8877 H         1 ASP         0.0478
    113 H          10.4285  -48.0009   13.8010 H         1 ASN         0.1885
    114 H          11.0844  -50.0851   11.7673 H         1 ASN         0.0826
    115 H          12.2351  -50.3825   14.5050 H         1 ASN         0.0551
    116 H          13.1634  -49.8304   13.0446 H         1 ASN         0.0551
    117 H          13.7940  -53.4512   13.3267 H         1 ASN         0.1814
    118 H          14.2183  -51.9554   14.1657 H         1 ASN         0.1814
    119 H           8.7921  -50.1263   11.6153 H         1 LEU         0.1883
    120 H           7.1301  -50.0780   13.9578 H         1 LEU         0.0800
    121 H           5.3420  -51.0412   12.4680 H         1 LEU         0.0315
    122 H           6.5914  -50.8773   11.1394 H         1 LEU         0.0315
    123 H           6.7049  -48.5044   11.5270 H         1 LEU         0.0298
    124 H           4.9658  -49.3838    9.9744 H         1 LEU         0.0232
    125 H           3.8173  -49.5176   11.3287 H         1 LEU         0.0232
    126 H           4.3700  -47.9145   10.7850 H         1 LEU         0.0232
    127 H           4.6081  -48.7995   13.6847 H         1 LEU         0.0232
    128 H           6.3094  -48.3191   13.8991 H         1 LEU         0.0232
    129 H           5.1929  -47.2640   12.9983 H         1 LEU         0.0232
    130 H           8.5764  -52.7187   12.1373 H         1 ASP         0.1884
    131 H           7.4836  -54.9778   13.3623 H         1 ASP         0.0819
    132 H          10.0511  -55.7830   13.1592 H         1 ASP         0.0478
    133 H          10.1329  -54.2641   12.1729 H         1 ASP         0.0478
@<TRIPOS>BOND
     1    1    2 1  
     2    1   61 am 
     3    2    3 1  
     4    2    5 1  
     5    3    4 2  
     6    3    7 am 
     7    5    6 1  
     8    7    8 1  
     9    8    9 1  
    10    8   11 1  
    11    9   10 2  
    12    9   18 am 
    13   11   12 1  
    14   12   13 1  
    15   13   14 1  
    16   14   15 ar 
    17   15   16 ar 
    18   15   17 ar 
    19   18   19 1  
    20   19   20 1  
    21   19   22 1  
    22   20   21 2  
    23   20   27 am 
    24   22   23 1  
    25   23   24 1  
    26   24   25 1  
    27   25   26 1  
    28   27   28 1  
    29   28   29 1  
    30   28   31 1  
    31   29   30 2  
    32   29   35 am 
    33   31   32 1  
    34   31   33 1  
    35   32   34 1  
    36   35   36 1  
    37   36   37 1  
    38   36   39 1  
    39   37   38 2  
    40   37   43 am 
    41   39   40 1  
    42   40   41 ar 
    43   40   42 ar 
    44   43   44 1  
    45   44   45 1  
    46   44   47 1  
    47   45   46 2  
    48   45   51 am 
    49   47   48 1  
    50   48   49 2  
    51   48   50 am 
    52   51   52 1  
    53   52   53 1  
    54   52   55 1  
    55   53   54 2  
    56   53   59 am 
    57   55   56 1  
    58   56   57 1  
    59   56   58 1  
    60   59   60 1  
    61   60   61 1  
    62   60   63 1  
    63   61   62 2  
    64   63   64 1  
    65   64   65 ar 
    66   64   66 ar 
    67    1   67 1  
    68    2   68 1  
    69    5   69 1  
    70    5   70 1  
    71    6   71 1  
    72    7   72 1  
    73    8   73 1  
    74   11   74 1  
    75   11   75 1  
    76   12   76 1  
    77   12   77 1  
    78   13   78 1  
    79   13   79 1  
    80   14   80 1  
    81   16   81 1  
    82   16   82 1  
    83   17   83 1  
    84   17   84 1  
    85   18   85 1  
    86   19   86 1  
    87   22   87 1  
    88   22   88 1  
    89   23   89 1  
    90   23   90 1  
    91   24   91 1  
    92   24   92 1  
    93   25   93 1  
    94   25   94 1  
    95   26   95 1  
    96   26   96 1  
    97   26   97 1  
    98   27   98 1  
    99   28   99 1  
   100   31  100 1  
   101   32  101 1  
   102   32  102 1  
   103   33  103 1  
   104   33  104 1  
   105   33  105 1  
   106   34  106 1  
   107   34  107 1  
   108   34  108 1  
   109   35  109 1  
   110   36  110 1  
   111   39  111 1  
   112   39  112 1  
   113   43  113 1  
   114   44  114 1  
   115   47  115 1  
   116   47  116 1  
   117   50  117 1  
   118   50  118 1  
   119   51  119 1  
   120   52  120 1  
   121   55  121 1  
   122   55  122 1  
   123   56  123 1  
   124   57  124 1  
   125   57  125 1  
   126   57  126 1  
   127   58  127 1  
   128   58  128 1  
   129   58  129 1  
   130   59  130 1  
   131   60  131 1  
   132   63  132 1  
   133   63  133 1  
@<TRIPOS>SUBSTRUCTURE
     1 SER         1

