### 
### Created by X-TOOL on Mon Sep 10 21:13:08 2018
### 

@<TRIPOS>MOLECULE
3avn_ligand
  126   127     1     0     0
SMALL
GAST_HUCK


@<TRIPOS>ATOM
      1 N          -9.7400   53.8410   15.6610 N.am      1 SER        -0.2615
      2 CA        -10.2700   53.8740   17.0220 C.3       1 SER         0.1539
      3 C          -9.6540   52.7630   17.8760 C.2       1 SER         0.2063
      4 O         -10.2700   52.2590   18.8190 O.2       1 SER        -0.3943
      5 CB        -11.8090   53.8150   17.0090 C.3       1 SER         0.0843
      6 OG        -12.2890   52.7960   16.1440 O.3       1 SER        -0.3903
      7 N          -8.4160   52.4110   17.5350 N.am      1 HIS        -0.2624
      8 CA         -7.6320   51.3320   18.1810 C.3       1 HIS         0.1369
      9 C          -8.2720   49.9440   18.3330 C.2       1 HIS         0.2054
     10 O          -8.2210   49.3640   19.4150 O.2       1 HIS        -0.3942
     11 CB         -7.0090   51.7670   19.5260 C.3       1 HIS         0.0145
     12 CG         -5.6760   51.1200   19.7960 C.2       1 HIS        -0.0027
     13 ND1        -4.5410   51.8430   20.1090 N.2       1 HIS        -0.3252
     14 CD2        -5.2900   49.8200   19.7600 C.2       1 HIS         0.0291
     15 CE1        -3.5190   51.0190   20.2680 C.2       1 HIS         0.0907
     16 NE2        -3.9490   49.7840   20.0670 N.pl3     1 HIS        -0.2752
     17 N          -8.8270   49.3970   17.2530 N.am      1 LYS        -0.2636
     18 CA         -9.3630   48.0170   17.2680 C.3       1 LYS         0.1310
     19 C          -8.8410   47.2850   16.0550 C.2       1 LYS         0.2039
     20 O          -8.5770   47.9480   15.0610 O.2       1 LYS        -0.3944
     21 CB        -10.8900   48.0860   17.1660 C.3       1 LYS        -0.0122
     22 CG        -11.5910   48.9150   18.2580 C.3       1 LYS        -0.0440
     23 CD        -11.4700   48.3130   19.6580 C.3       1 LYS        -0.0124
     24 CE        -12.2610   49.2150   20.6130 C.3       1 LYS        -0.0354
     25 NZ        -12.0680   48.8260   22.0070 N.4       1 LYS         0.2185
     26 N          -8.7490   45.9480   16.0470 N.am      1 ILE        -0.2635
     27 CA         -8.3220   45.2490   14.8030 C.3       1 ILE         0.1335
     28 C          -9.1820   45.6680   13.5860 C.2       1 ILE         0.2042
     29 O          -8.6690   45.7950   12.4690 O.2       1 ILE        -0.3944
     30 CB         -8.2810   43.6570   14.8980 C.3       1 ILE        -0.0037
     31 CG1        -6.9960   43.0980   14.2970 C.3       1 ILE        -0.0491
     32 CG2        -9.3150   42.9610   14.0040 C.3       1 ILE        -0.0582
     33 CD1        -5.8840   42.9410   15.2960 C.3       1 ILE        -0.0648
     34 N         -10.4790   45.8950   13.8180 N.am      1 ASP        -0.2622
     35 CA        -11.4220   46.0630   12.7010 C.3       1 ASP         0.1423
     36 C         -11.6630   47.5220   12.4700 C.2       1 ASP         0.2057
     37 O         -12.3890   47.8400   11.5410 O.2       1 ASP        -0.3943
     38 CB        -12.7920   45.3270   12.8770 C.3       1 ASP         0.0406
     39 CG        -13.4950   45.6920   14.1920 C.2       1 ASP         0.0393
     40 OD1       -14.6520   45.2940   14.3720 O.co2     1 ASP        -0.5688
     41 OD2       -12.8840   46.3400   15.0770 O.co2     1 ASP        -0.5688
     42 N         -11.0730   48.3790   13.3170 N.am      1 ASN        -0.2615
     43 CA        -11.0990   49.8360   13.1260 C.3       1 ASN         0.1476
     44 C          -9.8260   50.3960   13.7910 C.2       1 ASN         0.2063
     45 O          -9.7980   50.6800   14.9980 O.2       1 ASN        -0.3942
     46 CB        -12.3770   50.4640   13.7050 C.3       1 ASN         0.0773
     47 CG        -12.7120   51.8750   13.1010 C.2       1 ASN         0.1780
     48 OD1       -11.8630   52.5630   12.5490 O.2       1 ASN        -0.3970
     49 ND2       -13.9660   52.2820   13.2370 N.am      1 ASN        -0.3007
     50 N          -8.7630   50.5000   12.9890 N.am      1 LEU        -0.2636
     51 CA         -7.4200   50.7580   13.5170 C.3       1 LEU         0.1312
     52 C          -7.3710   52.1930   14.0340 C.2       1 LEU         0.2040
     53 O          -6.6450   52.4910   15.0030 O.2       1 LEU        -0.3944
     54 CB         -6.3640   50.4920   12.4290 C.3       1 LEU        -0.0101
     55 CG         -5.8800   49.0320   12.1870 C.3       1 LEU        -0.0425
     56 CD1        -4.6650   48.9710   11.2210 C.3       1 LEU        -0.0625
     57 CD2        -5.5150   48.2930   13.5040 C.3       1 LEU        -0.0625
     58 N          -8.1920   53.0600   13.4080 N.am      1 ASP        -0.2622
     59 CA         -8.3410   54.4830   13.7870 C.3       1 ASP         0.1423
     60 C          -8.7810   54.6670   15.2380 C.2       1 ASP         0.2057
     61 O          -8.2620   55.5370   15.9460 O.2       1 ASP        -0.3943
     62 CB         -9.3390   55.1980   12.8510 C.3       1 ASP         0.0406
     63 CG         -8.6970   55.6660   11.5350 C.2       1 ASP         0.0393
     64 OD1        -7.4420   55.6960   11.4250 O.co2     1 ASP        -0.5688
     65 OD2        -9.4620   56.0060   10.6020 O.co2     1 ASP        -0.5688
     66 H         -10.1192   53.1573   15.0060 H         1 SER         0.1884
     67 H          -9.9883   54.8211   17.4821 H         1 SER         0.0823
     68 H         -12.1862   54.7735   16.6525 H         1 SER         0.0606
     69 H         -12.1526   53.5968   18.0201 H         1 SER         0.0606
     70 H         -13.2488   52.7889   16.1614 H         1 SER         0.2097
     71 H          -7.9738   52.9227   16.7714 H         1 HIS         0.1885
     72 H          -6.8625   51.1816   17.4238 H         1 HIS         0.0817
     73 H          -7.6912   51.4643   20.3204 H         1 HIS         0.0420
     74 H          -6.8519   52.8449   19.4852 H         1 HIS         0.0420
     75 H          -5.9239   48.9635   19.5306 H         1 HIS         0.0729
     76 H          -2.4987   51.3074   20.5209 H         1 HIS         0.1199
     77 H          -3.3784   48.9409   20.1295 H         1 HIS         0.2361
     78 H          -8.8843   49.9429   16.3933 H         1 LYS         0.1883
     79 H          -9.0627   47.5054   18.1825 H         1 LYS         0.0800
     80 H         -11.2544   47.0640   17.2705 H         1 LYS         0.0312
     81 H         -11.1159   48.5702   16.2160 H         1 LYS         0.0312
     82 H         -12.6516   48.9518   18.0093 H         1 LYS         0.0269
     83 H         -11.1129   49.8943   18.2815 H         1 LYS         0.0269
     84 H         -10.4246   48.2577   19.9617 H         1 LYS         0.0317
     85 H         -11.8668   47.2979   19.6737 H         1 LYS         0.0317
     86 H         -13.3205   49.1227   20.3742 H         1 LYS         0.0813
     87 H         -11.9079   50.2388   20.4900 H         1 LYS         0.0813
     88 H         -12.6080   49.4468   22.6099 H         1 LYS         0.1994
     89 H         -12.3833   47.8647   22.1373 H         1 LYS         0.1994
     90 H         -11.0784   48.8957   22.2443 H         1 LYS         0.1994
     91 H          -8.9698   45.4129   16.8868 H         1 ILE         0.1883
     92 H          -7.2909   45.5747   14.6659 H         1 ILE         0.0803
     93 H          -8.4278   43.4747   15.9626 H         1 ILE         0.0345
     94 H          -6.6565   43.8025   13.5377 H         1 ILE         0.0267
     95 H          -7.2233   42.1078   13.9022 H         1 ILE         0.0267
     96 H         -10.3165   43.2790   14.2936 H         1 ILE         0.0235
     97 H          -9.1336   43.2301   12.9634 H         1 ILE         0.0235
     98 H          -9.2271   41.8810   14.1219 H         1 ILE         0.0235
     99 H          -5.6462   43.9127   15.7288 H         1 ILE         0.0230
    100 H          -6.1996   42.2580   16.0847 H         1 ILE         0.0230
    101 H          -5.0026   42.5388   14.7965 H         1 ILE         0.0230
    102 H         -10.8180   45.9523   14.7783 H         1 ASP         0.1884
    103 H         -10.9469   45.5940   11.8394 H         1 ASP         0.0819
    104 H         -12.5972   44.2546   12.8878 H         1 ASP         0.0478
    105 H         -13.4418   45.6277   12.0551 H         1 ASP         0.0478
    106 H         -10.5847   48.0026   14.1296 H         1 ASN         0.1885
    107 H         -11.1127   50.0844   12.0648 H         1 ASN         0.0826
    108 H         -12.2212   50.5949   14.7758 H         1 ASN         0.0551
    109 H         -13.2066   49.7994   13.4638 H         1 ASN         0.0551
    110 H         -14.2484   53.1934   12.8763 H         1 ASN         0.1814
    111 H         -14.6487   51.6838   13.7023 H         1 ASN         0.1814
    112 H          -8.8891   50.3971   11.9821 H         1 LEU         0.1883
    113 H          -7.1949   50.0856   14.3448 H         1 LEU         0.0800
    114 H          -5.4765   51.0303   12.7617 H         1 LEU         0.0315
    115 H          -6.8426   50.7874   11.4953 H         1 LEU         0.0315
    116 H          -6.7286   48.5240   11.7289 H         1 LEU         0.0298
    117 H          -4.9454   49.3999   10.2590 H         1 LEU         0.0232
    118 H          -3.8363   49.5378   11.6453 H         1 LEU         0.0232
    119 H          -4.3637   47.9326   11.0833 H         1 LEU         0.0232
    120 H          -4.7135   48.8306   14.0107 H         1 LEU         0.0232
    121 H          -6.3915   48.2512   14.1506 H         1 LEU         0.0232
    122 H          -5.1848   47.2806   13.2715 H         1 LEU         0.0232
    123 H          -8.7451   52.7136   12.6241 H         1 ASP         0.1884
    124 H          -7.3527   54.9308   13.6831 H         1 ASP         0.0819
    125 H          -9.7098   56.0806   13.3723 H         1 ASP         0.0478
    126 H         -10.1281   54.4884   12.6020 H         1 ASP         0.0478
@<TRIPOS>BOND
     1    1    2 1  
     2    1   60 am 
     3    2    3 1  
     4    2    5 1  
     5    3    4 2  
     6    3    7 am 
     7    5    6 1  
     8    7    8 1  
     9    8    9 1  
    10    8   11 1  
    11    9   10 2  
    12    9   17 am 
    13   11   12 1  
    14   12   13 1  
    15   12   14 2  
    16   13   15 2  
    17   14   16 1  
    18   15   16 1  
    19   17   18 1  
    20   18   19 1  
    21   18   21 1  
    22   19   20 2  
    23   19   26 am 
    24   21   22 1  
    25   22   23 1  
    26   23   24 1  
    27   24   25 1  
    28   26   27 1  
    29   27   28 1  
    30   27   30 1  
    31   28   29 2  
    32   28   34 am 
    33   30   31 1  
    34   30   32 1  
    35   31   33 1  
    36   34   35 1  
    37   35   36 1  
    38   35   38 1  
    39   36   37 2  
    40   36   42 am 
    41   38   39 1  
    42   39   40 ar 
    43   39   41 ar 
    44   42   43 1  
    45   43   44 1  
    46   43   46 1  
    47   44   45 2  
    48   44   50 am 
    49   46   47 1  
    50   47   48 2  
    51   47   49 am 
    52   50   51 1  
    53   51   52 1  
    54   51   54 1  
    55   52   53 2  
    56   52   58 am 
    57   54   55 1  
    58   55   56 1  
    59   55   57 1  
    60   58   59 1  
    61   59   60 1  
    62   59   62 1  
    63   60   61 2  
    64   62   63 1  
    65   63   64 ar 
    66   63   65 ar 
    67    1   66 1  
    68    2   67 1  
    69    5   68 1  
    70    5   69 1  
    71    6   70 1  
    72    7   71 1  
    73    8   72 1  
    74   11   73 1  
    75   11   74 1  
    76   14   75 1  
    77   15   76 1  
    78   16   77 1  
    79   17   78 1  
    80   18   79 1  
    81   21   80 1  
    82   21   81 1  
    83   22   82 1  
    84   22   83 1  
    85   23   84 1  
    86   23   85 1  
    87   24   86 1  
    88   24   87 1  
    89   25   88 1  
    90   25   89 1  
    91   25   90 1  
    92   26   91 1  
    93   27   92 1  
    94   30   93 1  
    95   31   94 1  
    96   31   95 1  
    97   32   96 1  
    98   32   97 1  
    99   32   98 1  
   100   33   99 1  
   101   33  100 1  
   102   33  101 1  
   103   34  102 1  
   104   35  103 1  
   105   38  104 1  
   106   38  105 1  
   107   42  106 1  
   108   43  107 1  
   109   46  108 1  
   110   46  109 1  
   111   49  110 1  
   112   49  111 1  
   113   50  112 1  
   114   51  113 1  
   115   54  114 1  
   116   54  115 1  
   117   55  116 1  
   118   56  117 1  
   119   56  118 1  
   120   56  119 1  
   121   57  120 1  
   122   57  121 1  
   123   57  122 1  
   124   58  123 1  
   125   59  124 1  
   126   62  125 1  
   127   62  126 1  
@<TRIPOS>SUBSTRUCTURE
     1 SER         1

