### 
### Created by X-TOOL on Mon Sep 10 21:13:07 2018
### 

@<TRIPOS>MOLECULE
3avz_ligand
   87    88     1     0     0
SMALL
GAST_HUCK


@<TRIPOS>ATOM
      1 C         -27.8050  -29.8220    5.1430 C.2       1 ACE         0.1752
      2 O         -27.7050  -30.1000    6.3370 O.2       1 ACE        -0.3972
      3 CH3       -27.5080  -28.4570    4.5940 C.3       1 ACE         0.0258
      4 N         -27.8850  -30.9440    4.4240 N.am      1 SER        -0.2637
      5 CA        -27.9660  -32.2160    5.1310 C.3       1 SER         0.1538
      6 C         -26.7220  -33.0640    4.8860 C.2       1 SER         0.2062
      7 O         -25.8850  -32.7270    4.0470 O.2       1 SER        -0.3943
      8 CB        -29.2180  -32.9860    4.7060 C.3       1 SER         0.0843
      9 OG        -28.8950  -34.0210    3.7930 O.3       1 SER        -0.3903
     10 N         -26.6060  -34.1630    5.6230 N.am      1 ALA        -0.2639
     11 CA        -25.4650  -35.0610    5.4870 C.3       1 ALA         0.1282
     12 C         -25.6830  -36.0640    4.3590 C.2       1 ALA         0.2036
     13 O         -26.7780  -36.6020    4.1970 O.2       1 ALA        -0.3944
     14 CB        -25.1990  -35.7830    6.7990 C.3       1 ALA        -0.0244
     15 N         -24.6330  -36.3100    3.5820 N.am      1 VAL        -0.2635
     16 CA        -24.7070  -37.2490    2.4690 C.3       1 VAL         0.1332
     17 C         -23.9340  -38.5250    2.7850 C.2       1 VAL         0.2041
     18 O         -22.7410  -38.4810    3.0840 O.2       1 VAL        -0.3944
     19 CB        -24.1530  -36.6310    1.1720 C.3       1 VAL        -0.0063
     20 CG1       -23.8570  -35.1530    1.3720 C.3       1 VAL        -0.0584
     21 CG2       -22.9050  -37.3750    0.7210 C.3       1 VAL        -0.0584
     22 N         -24.6230  -39.6600    2.7180 N.am      1 ALC        -0.2637
     23 CA        -24.0070  -40.9420    2.9980 C.3       1 ALC         0.1312
     24 C         -23.1380  -41.3590    1.8180 C.2       1 ALC         0.2041
     25 O         -23.4960  -40.9830    0.4840 O.2       1 ALC        -0.3944
     26 CB        -25.0920  -41.9770    3.2710 C.3       1 ALC        -0.0096
     27 CG        -26.0210  -41.5130    4.3860 C.3       1 ALC        -0.0368
     28 CD2       -26.5260  -42.7230    5.1630 C.3       1 ALC        -0.0500
     29 CE2       -27.5670  -42.3100    6.1960 C.3       1 ALC        -0.0528
     30 CZ        -27.1050  -41.0760    6.9610 C.3       1 ALC        -0.0530
     31 CE1       -25.6070  -40.8600    6.7830 C.3       1 ALC        -0.0528
     32 CD1       -25.2620  -40.5810    5.3240 C.3       1 ALC        -0.0500
     33 N         -22.0560  -42.0760    2.1050 N.am      1 HSV        -0.2637
     34 CA        -21.1440  -42.5360    1.0650 C.3       1 HSV         0.1187
     35 CB        -19.7840  -41.8490    1.2030 C.3       1 HSV         0.0132
     36 CG        -19.7830  -40.4180    0.7630 C.2       1 HSV        -0.0026
     37 ND1       -18.6990  -39.5850    0.9410 N.2       1 HSV        -0.3252
     38 CD2       -20.7330  -39.6720    0.1520 C.2       1 HSV         0.0291
     39 CE1       -18.9820  -38.3880    0.4590 C.2       1 HSV         0.0907
     40 NE2       -20.2110  -38.4140   -0.0260 N.pl3     1 HSV        -0.2752
     41 C         -20.9720  -44.0510    1.1130 C.2       1 HSV         0.1259
     42 O         -21.3430  -44.7570    0.1750 O.2       1 HSV        -0.3723
     43 H         -28.1699  -27.7273    5.0604 H         1 ACE         0.0467
     44 H         -26.4711  -28.1982    4.8085 H         1 ACE         0.0467
     45 H         -27.6681  -28.4577    3.5158 H         1 ACE         0.0467
     46 H         -27.8893  -30.9119    3.4045 H         1 SER         0.1883
     47 H         -28.0271  -32.0006    6.1978 H         1 SER         0.0823
     48 H         -29.9050  -32.2936    4.2196 H         1 SER         0.0606
     49 H         -29.6713  -33.4311    5.5918 H         1 SER         0.0606
     50 H         -28.2835  -34.6334    4.2085 H         1 SER         0.2097
     51 H         -27.3342  -34.3847    6.3020 H         1 ALA         0.1883
     52 H         -24.5914  -34.4597    5.2353 H         1 ALA         0.0797
     53 H         -24.9847  -35.0513    7.5779 H         1 ALA         0.0277
     54 H         -26.0780  -36.3646    7.0769 H         1 ALA         0.0277
     55 H         -24.3443  -36.4488    6.6791 H         1 ALA         0.0277
     56 H         -23.7529  -35.8296    3.7691 H         1 VAL         0.1883
     57 H         -25.7601  -37.4885    2.3218 H         1 VAL         0.0802
     58 H         -24.9080  -36.7250    0.3915 H         1 VAL         0.0343
     59 H         -24.7748  -34.6342    1.6489 H         1 VAL         0.0234
     60 H         -23.1184  -35.0357    2.1650 H         1 VAL         0.0234
     61 H         -23.4664  -34.7333    0.4450 H         1 VAL         0.0234
     62 H         -22.1442  -37.3106    1.4989 H         1 VAL         0.0234
     63 H         -23.1528  -38.4207    0.5391 H         1 VAL         0.0234
     64 H         -22.5270  -36.9248   -0.1969 H         1 VAL         0.0234
     65 H         -25.6101  -39.6279    2.4631 H         1 ALC         0.1883
     66 H         -23.3726  -40.8654    3.8810 H         1 ALC         0.0800
     67 H         -24.6171  -42.9092    3.5768 H         1 ALC         0.0315
     68 H         -25.6783  -42.1169    2.3628 H         1 ALC         0.0315
     69 H         -26.8694  -40.9805    3.9562 H         1 ALC         0.0303
     70 H         -25.6841  -43.1846    5.6790 H         1 ALC         0.0268
     71 H         -26.9843  -43.4223    4.4637 H         1 ALC         0.0268
     72 H         -27.7089  -43.1293    6.9008 H         1 ALC         0.0265
     73 H         -28.5003  -42.0780    5.6830 H         1 ALC         0.0265
     74 H         -27.3165  -41.2192    8.0207 H         1 ALC         0.0265
     75 H         -27.6345  -40.2045    6.5759 H         1 ALC         0.0265
     76 H         -25.0845  -41.7631    7.0984 H         1 ALC         0.0265
     77 H         -25.3046  -40.0018    7.3831 H         1 ALC         0.0265
     78 H         -25.5415  -39.5532    5.0922 H         1 ALC         0.0268
     79 H         -24.1933  -40.7430    5.1835 H         1 ALC         0.0268
     80 H         -21.8589  -42.3103    3.0780 H         1 HSV         0.1886
     81 H         -21.5782  -42.2721    0.1007 H         1 HSV         0.0807
     82 H         -19.0822  -42.3859    0.5648 H         1 HSV         0.0421
     83 H         -19.5176  -41.8645    2.2598 H         1 HSV         0.0421
     84 H         -21.7271  -40.0072   -0.1437 H         1 HSV         0.0729
     85 H         -18.3153  -37.5257    0.4610 H         1 HSV         0.1199
     86 H         -20.6934  -37.6279   -0.4616 H         1 HSV         0.2361
     87 H1        -20.5158  -44.5134    1.9870 H         1 HSV         0.1375
@<TRIPOS>BOND
     1    1    2 2  
     2    1    3 1  
     3    1    4 am 
     4    4    5 1  
     5    5    6 1  
     6    5    8 1  
     7    6    7 2  
     8    6   10 am 
     9    8    9 1  
    10   10   11 1  
    11   11   12 1  
    12   11   14 1  
    13   12   13 2  
    14   12   15 am 
    15   15   16 1  
    16   16   17 1  
    17   16   19 1  
    18   17   18 2  
    19   17   22 am 
    20   19   20 1  
    21   19   21 1  
    22   22   23 1  
    23   23   24 1  
    24   23   26 1  
    25   24   25 2  
    26   24   33 am 
    27   26   27 1  
    28   27   28 1  
    29   27   32 1  
    30   28   29 1  
    31   29   30 1  
    32   30   31 1  
    33   31   32 1  
    34   33   34 1  
    35   34   35 1  
    36   34   41 1  
    37   35   36 1  
    38   36   37 1  
    39   36   38 2  
    40   37   39 2  
    41   38   40 1  
    42   39   40 1  
    43   41   42 2  
    44    3   43 1  
    45    3   44 1  
    46    3   45 1  
    47    4   46 1  
    48    5   47 1  
    49    8   48 1  
    50    8   49 1  
    51    9   50 1  
    52   10   51 1  
    53   11   52 1  
    54   14   53 1  
    55   14   54 1  
    56   14   55 1  
    57   15   56 1  
    58   16   57 1  
    59   19   58 1  
    60   20   59 1  
    61   20   60 1  
    62   20   61 1  
    63   21   62 1  
    64   21   63 1  
    65   21   64 1  
    66   22   65 1  
    67   23   66 1  
    68   26   67 1  
    69   26   68 1  
    70   27   69 1  
    71   28   70 1  
    72   28   71 1  
    73   29   72 1  
    74   29   73 1  
    75   30   74 1  
    76   30   75 1  
    77   31   76 1  
    78   31   77 1  
    79   32   78 1  
    80   32   79 1  
    81   33   80 1  
    82   34   81 1  
    83   35   82 1  
    84   35   83 1  
    85   38   84 1  
    86   39   85 1  
    87   40   86 1  
    88   41   87 1  
@<TRIPOS>SUBSTRUCTURE
     1 ACE         1

