### 
### Created by X-TOOL on Mon Sep 10 21:13:07 2018
### 

@<TRIPOS>MOLECULE
3aw0_ligand
   80    80     1     0     0
SMALL
GAST_HUCK


@<TRIPOS>ATOM
      1 C         -27.3610  -30.1340    5.7140 C.2       1 ACE         0.1752
      2 O         -27.2580  -30.1760    6.9490 O.2       1 ACE        -0.3972
      3 CH3       -27.5350  -28.8320    4.9450 C.3       1 ACE         0.0258
      4 N         -27.5090  -31.2680    5.0110 N.am      1 SER        -0.2637
      5 CA        -27.4930  -32.6210    5.5990 C.3       1 SER         0.1538
      6 C         -26.1150  -33.3010    5.5080 C.2       1 SER         0.2062
      7 O         -25.3150  -33.0490    4.5900 O.2       1 SER        -0.3943
      8 CB        -28.5570  -33.5370    4.9270 C.3       1 SER         0.0843
      9 OG        -29.8800  -33.2670    5.3760 O.3       1 SER        -0.3903
     10 N         -25.8580  -34.1830    6.4670 N.am      1 ALA        -0.2639
     11 CA        -24.8080  -35.1900    6.3170 C.3       1 ALA         0.1282
     12 C         -25.2010  -36.1950    5.2090 C.2       1 ALA         0.2036
     13 O         -26.3970  -36.3810    4.9220 O.2       1 ALA        -0.3944
     14 CB        -24.5810  -35.8930    7.6300 C.3       1 ALA        -0.0244
     15 N         -24.2020  -36.8140    4.5770 N.am      1 VAL        -0.2635
     16 CA        -24.4390  -37.8110    3.5290 C.3       1 VAL         0.1332
     17 C         -23.6720  -39.0880    3.8930 C.2       1 VAL         0.2041
     18 O         -22.4500  -39.1000    3.9890 O.2       1 VAL        -0.3944
     19 CB        -24.0740  -37.2800    2.0710 C.3       1 VAL        -0.0063
     20 CG1       -24.0590  -38.4200    1.0050 C.3       1 VAL        -0.0584
     21 CG2       -25.0050  -36.1150    1.6370 C.3       1 VAL        -0.0584
     22 N         -24.4030  -40.1790    4.0930 N.am      1 LEU        -0.2637
     23 CA        -23.7730  -41.4540    4.4180 C.3       1 LEU         0.1312
     24 C         -23.2920  -42.1570    3.1510 C.2       1 LEU         0.2034
     25 O         -24.1020  -42.5780    2.3260 O.2       1 LEU        -0.3944
     26 CB        -24.7450  -42.3540    5.1830 C.3       1 LEU        -0.0101
     27 CG        -25.3030  -41.7890    6.4910 C.3       1 LEU        -0.0425
     28 CD1       -26.1440  -42.8320    7.2120 C.3       1 LEU        -0.0625
     29 CD2       -24.1780  -41.2900    7.3850 C.3       1 LEU        -0.0625
     30 N         -21.9760  -42.2830    2.9950 N.am      1 HSV        -0.2682
     31 CA        -21.4250  -42.9160    1.7940 C.3       1 HSV         0.1004
     32 CB        -19.9510  -42.5330    1.6080 C.3       1 HSV         0.0090
     33 CG        -19.7420  -41.1060    1.1920 C.2       1 HSV        -0.0033
     34 ND1       -18.8110  -40.2850    1.7870 N.2       1 HSV        -0.3253
     35 CD2       -20.3290  -40.3620    0.2230 C.2       1 HSV         0.0291
     36 CE1       -18.8240  -39.1030    1.1990 C.2       1 HSV         0.0907
     37 NE2       -19.7380  -39.1220    0.2480 N.pl3     1 HSV        -0.2752
     38 C         -21.6850  -44.4520    1.8610 C.2       1 HSV         0.0615
     39 O         -20.8920  -45.2900    1.4270 O.co2     1 HSV        -0.5665
     40 O1        -22.7577  -44.8562    2.3841 O.co2     1 HSV        -0.5665
     41 H1        -27.6030  -29.0482    3.8686 H         1 ACE         0.0467
     42 H2        -26.6719  -28.1766    5.1335 H         1 ACE         0.0467
     43 H3        -28.4559  -28.3303    5.2770 H         1 ACE         0.0467
     44 H4        -27.6388  -31.1905    4.0225 H         1 SER         0.1883
     45 H5        -27.7493  -32.5205    6.6640 H         1 SER         0.0823
     46 H6        -28.3147  -34.5849    5.1577 H         1 SER         0.0606
     47 H7        -28.5169  -33.3823    3.8387 H         1 SER         0.0606
     48 H8        -30.4875  -33.8507    4.9370 H         1 SER         0.2097
     49 H9        -26.3944  -34.1581    7.3106 H         1 ALA         0.1883
     50 H10       -23.8745  -34.6889    6.0215 H         1 ALA         0.0797
     51 H11       -23.7905  -36.6484    7.5096 H         1 ALA         0.0277
     52 H12       -25.5121  -36.3843    7.9487 H         1 ALA         0.0277
     53 H13       -24.2745  -35.1596    8.3904 H         1 ALA         0.0277
     54 H14       -23.2599  -36.5902    4.8268 H         1 VAL         0.1883
     55 H15       -25.5129  -38.0490    3.5267 H         1 VAL         0.0802
     56 H16       -23.0521  -36.8763    2.1240 H         1 VAL         0.0343
     57 H17       -23.8025  -37.9991    0.0216 H         1 VAL         0.0234
     58 H18       -25.0529  -38.8886    0.9552 H         1 VAL         0.0234
     59 H19       -23.3110  -39.1757    1.2868 H         1 VAL         0.0234
     60 H20       -24.9935  -35.3300    2.4075 H         1 VAL         0.0234
     61 H21       -26.0309  -36.4921    1.5131 H         1 VAL         0.0234
     62 H22       -24.6500  -35.6978    0.6831 H         1 VAL         0.0234
     63 H23       -25.3989  -40.1256    4.0198 H         1 LEU         0.1883
     64 H24       -22.9014  -41.2569    5.0595 H         1 LEU         0.0800
     65 H25       -24.2194  -43.2909    5.4195 H         1 LEU         0.0315
     66 H26       -25.5962  -42.5684    4.5201 H         1 LEU         0.0315
     67 H27       -25.9514  -40.9347    6.2469 H         1 LEU         0.0298
     68 H28       -26.5343  -42.4053    8.1477 H         1 LEU         0.0232
     69 H29       -25.5223  -43.7101    7.4408 H         1 LEU         0.0232
     70 H30       -26.9835  -43.1346    6.5688 H         1 LEU         0.0232
     71 H31       -23.5850  -40.5385    6.8432 H         1 LEU         0.0232
     72 H32       -23.5312  -42.1341    7.6662 H         1 LEU         0.0232
     73 H33       -24.6041  -40.8365    8.2920 H         1 LEU         0.0232
     74 H34       -21.3581  -41.9426    3.7037 H         1 HSV         0.1877
     75 H35       -21.9719  -42.5282    0.9219 H         1 HSV         0.0743
     76 H36       -19.5181  -43.1859    0.8358 H         1 HSV         0.0413
     77 H37       -19.4276  -42.6961    2.5617 H         1 HSV         0.0413
     78 H38       -21.1213  -40.6866   -0.4499 H         1 HSV         0.0729
     79 H39       -18.1885  -38.2566    1.4554 H         1 HSV         0.1199
     80 H40       -19.9707  -38.3351   -0.3746 H         1 HSV         0.2361
@<TRIPOS>BOND
     1    1    2 2  
     2    1    3 1  
     3    1    4 am 
     4    4    5 1  
     5    5    6 1  
     6    5    8 1  
     7    6    7 2  
     8    6   10 am 
     9    8    9 1  
    10   10   11 1  
    11   11   12 1  
    12   11   14 1  
    13   12   13 2  
    14   12   15 am 
    15   15   16 1  
    16   16   17 1  
    17   16   19 1  
    18   17   18 2  
    19   17   22 am 
    20   19   20 1  
    21   19   21 1  
    22   22   23 1  
    23   23   24 1  
    24   23   26 1  
    25   24   25 2  
    26   24   30 am 
    27   26   27 1  
    28   27   28 1  
    29   27   29 1  
    30   30   31 1  
    31   31   32 1  
    32   31   38 1  
    33   32   33 1  
    34   33   34 1  
    35   33   35 2  
    36   34   36 2  
    37   35   37 1  
    38   36   37 1  
    39   38   39 ar 
    40   38   40 ar 
    41    3   41 1  
    42    3   42 1  
    43    3   43 1  
    44    4   44 1  
    45    5   45 1  
    46    8   46 1  
    47    8   47 1  
    48    9   48 1  
    49   10   49 1  
    50   11   50 1  
    51   14   51 1  
    52   14   52 1  
    53   14   53 1  
    54   15   54 1  
    55   16   55 1  
    56   19   56 1  
    57   20   57 1  
    58   20   58 1  
    59   20   59 1  
    60   21   60 1  
    61   21   61 1  
    62   21   62 1  
    63   22   63 1  
    64   23   64 1  
    65   26   65 1  
    66   26   66 1  
    67   27   67 1  
    68   28   68 1  
    69   28   69 1  
    70   28   70 1  
    71   29   71 1  
    72   29   72 1  
    73   29   73 1  
    74   30   74 1  
    75   31   75 1  
    76   32   76 1  
    77   32   77 1  
    78   35   78 1  
    79   36   79 1  
    80   37   80 1  
@<TRIPOS>SUBSTRUCTURE
     1 ACE         1

