### 
### Created by X-TOOL on Mon Sep 10 21:13:06 2018
### 

@<TRIPOS>MOLECULE
3axz_ligand
   32    34     1     0     0
SMALL
GAST_HUCK


@<TRIPOS>ATOM
      1 O5'        44.3170    6.4750   11.1420 O.3       1 ADN        -0.3924
      2 C5'        43.0150    6.0440   11.5470 C.3       1 ADN         0.0730
      3 C4'        42.9610    4.5150   11.5440 C.3       1 ADN         0.1135
      4 O4'        43.3390    4.0240   10.2440 O.3       1 ADN        -0.3368
      5 C3'        43.9540    3.9250   12.5490 C.3       1 ADN         0.1146
      6 O3'        43.5070    2.6620   13.0490 O.3       1 ADN        -0.3864
      7 C2'        45.1890    3.7470   11.6700 C.3       1 ADN         0.1385
      8 O2'        46.1090    2.7990   12.2170 O.3       1 ADN        -0.3836
      9 C1'        44.5480    3.2550   10.3730 C.3       1 ADN         0.2010
     10 N9         45.4730    3.4530    9.2340 N.pl3     1 ADN        -0.1919
     11 C8         45.8520    4.6280    8.7350 C.2       1 ADN         0.1123
     12 N7         46.7220    4.4330    7.7450 N.2       1 ADN        -0.2958
     13 C5         46.8990    3.1220    7.6100 C.ar      1 ADN         0.1045
     14 C6         47.6720    2.3300    6.7700 C.ar      1 ADN         0.1298
     15 N6         48.4640    2.8800    5.8540 N.pl3     1 ADN        -0.3152
     16 N1         47.6140    0.9980    6.9010 N.ar      1 ADN        -0.2698
     17 C2         46.8360    0.4360    7.8110 C.ar      1 ADN         0.0533
     18 N3         46.0900    1.1580    8.6270 N.ar      1 ADN        -0.2714
     19 C4         46.0980    2.4960    8.5550 C.ar      1 ADN         0.1613
     20 H1         44.4981    6.1526   10.2669 H         1 ADN         0.2095
     21 H2         42.2637    6.4389   10.8473 H         1 ADN         0.0584
     22 H3         42.8040    6.4165   12.5603 H         1 ADN         0.0584
     23 H4         41.9407    4.1866   11.7913 H         1 ADN         0.0647
     24 H5         44.1421    4.6127   13.3867 H         1 ADN         0.0648
     25 H6         43.4119    2.0524   12.3266 H         1 ADN         0.2100
     26 H7         45.7104    4.7035   11.5175 H         1 ADN         0.0676
     27 H8         45.6807    1.9551   12.2996 H         1 ADN         0.2101
     28 H9         44.3040    2.1851   10.4492 H         1 ADN         0.0996
     29 H10        45.5041    5.5995    9.0829 H         1 ADN         0.1349
     30 H11        49.0318    2.2812    5.2377 H         1 ADN         0.1820
     31 H12        48.5095    3.9048    5.7609 H         1 ADN         0.1820
     32 H13        46.8101   -0.6449    7.8890 H         1 ADN         0.0996
@<TRIPOS>BOND
     1    1    2 1  
     2    2    3 1  
     3    3    4 1  
     4    3    5 1  
     5    4    9 1  
     6    5    6 1  
     7    5    7 1  
     8    7    8 1  
     9    7    9 1  
    10    9   10 1  
    11   10   11 1  
    12   10   19 1  
    13   11   12 2  
    14   12   13 1  
    15   13   14 ar 
    16   13   19 ar 
    17   14   15 1  
    18   14   16 ar 
    19   16   17 ar 
    20   17   18 ar 
    21   18   19 ar 
    22    1   20 1  
    23    2   21 1  
    24    2   22 1  
    25    3   23 1  
    26    5   24 1  
    27    6   25 1  
    28    7   26 1  
    29    8   27 1  
    30    9   28 1  
    31   11   29 1  
    32   15   30 1  
    33   15   31 1  
    34   17   32 1  
@<TRIPOS>SUBSTRUCTURE
     1 ADN         1

