### 
### Created by X-TOOL on Mon Sep 10 21:13:07 2018
### 

@<TRIPOS>MOLECULE
3ay0_ligand
   32    34     1     0     0
SMALL
GAST_HUCK


@<TRIPOS>ATOM
      1 O5'       -53.1560   -6.8460  -39.0590 O.3       1 ADN        -0.3924
      2 C5'       -52.7630   -5.4900  -39.2840 C.3       1 ADN         0.0730
      3 C4'       -53.9070   -4.7400  -39.9680 C.3       1 ADN         0.1135
      4 O4'       -55.0600   -4.7130  -39.1090 O.3       1 ADN        -0.3368
      5 C3'       -53.4980   -3.2780  -40.1710 C.3       1 ADN         0.1146
      6 O3'       -53.5710   -2.9250  -41.5540 O.3       1 ADN        -0.3864
      7 C2'       -54.5550   -2.5080  -39.3820 C.3       1 ADN         0.1385
      8 O2'       -54.8440   -1.2400  -39.9760 O.3       1 ADN        -0.3836
      9 C1'       -55.7270   -3.4850  -39.4370 C.3       1 ADN         0.2010
     10 N9        -56.7810   -3.1250  -38.4610 N.pl3     1 ADN        -0.1919
     11 C8        -56.6160   -2.9630  -37.1490 C.2       1 ADN         0.1123
     12 N7        -57.7800   -2.6640  -36.5780 N.2       1 ADN        -0.2958
     13 C5        -58.7020   -2.6330  -37.5370 C.ar      1 ADN         0.1045
     14 C6        -60.0680   -2.3880  -37.5570 C.ar      1 ADN         0.1298
     15 N6        -60.7250   -2.1150  -36.4330 N.pl3     1 ADN        -0.3152
     16 N1        -60.7200   -2.4420  -38.7260 N.ar      1 ADN        -0.2698
     17 C2        -60.0820   -2.7240  -39.8480 C.ar      1 ADN         0.0533
     18 N3        -58.7830   -2.9630  -39.8670 N.ar      1 ADN        -0.2714
     19 C4        -58.0670   -2.9260  -38.7350 C.ar      1 ADN         0.1613
     20 H         -53.9342   -6.8634  -38.4971 H         1 ADN         0.2095
     21 H         -51.8788   -5.4669  -39.9210 H         1 ADN         0.0584
     22 H         -52.5323   -5.0137  -38.3311 H         1 ADN         0.0584
     23 H         -54.1276   -5.2395  -40.9114 H         1 ADN         0.0647
     24 H         -52.4771   -3.0725  -39.8491 H         1 ADN         0.0648
     25 H         -54.4709   -3.0438  -41.8664 H         1 ADN         0.2100
     26 H         -54.2638   -2.2383  -38.3668 H         1 ADN         0.0676
     27 H         -55.1717   -1.3732  -40.8685 H         1 ADN         0.2101
     28 H         -56.2620   -3.5133  -40.3862 H         1 ADN         0.0996
     29 H         -55.6674   -3.0610  -36.6212 H         1 ADN         0.1349
     30 H         -60.2249   -2.0841  -35.5446 H         1 ADN         0.1820
     31 H         -61.7289   -1.9366  -36.4596 H         1 ADN         0.1820
     32 H         -60.6421   -2.7604  -40.7824 H         1 ADN         0.0996
@<TRIPOS>BOND
     1    1    2 1  
     2    2    3 1  
     3    3    4 1  
     4    3    5 1  
     5    4    9 1  
     6    5    6 1  
     7    5    7 1  
     8    7    8 1  
     9    7    9 1  
    10    9   10 1  
    11   10   11 1  
    12   10   19 1  
    13   11   12 2  
    14   12   13 1  
    15   13   14 ar 
    16   13   19 ar 
    17   14   15 1  
    18   14   16 ar 
    19   16   17 ar 
    20   17   18 ar 
    21   18   19 ar 
    22    1   20 1  
    23    2   21 1  
    24    2   22 1  
    25    3   23 1  
    26    5   24 1  
    27    6   25 1  
    28    7   26 1  
    29    8   27 1  
    30    9   28 1  
    31   11   29 1  
    32   15   30 1  
    33   15   31 1  
    34   17   32 1  
@<TRIPOS>SUBSTRUCTURE
     1 ADN         1

