### 
### Created by X-TOOL on Mon Sep 10 21:13:07 2018
### 

@<TRIPOS>MOLECULE
3aya_ligand
   65    66     1     0     0
SMALL
GAST_HUCK


@<TRIPOS>ATOM
      1 N           7.1670   -2.5680  -38.8930 N.4       1 THR         0.2345
      2 CA          6.3780   -3.0370  -40.0400 C.3       1 THR         0.0548
      3 C           6.1650   -1.8720  -41.0090 C.2       1 THR         0.0870
      4 O           7.1480   -1.5360  -41.7070 O.co2     1 THR        -0.5642
      5 CB          5.0360   -3.5800  -39.5390 C.3       1 THR         0.1131
      6 OG1         4.4350   -2.6430  -38.6330 O.3       1 THR        -0.3386
      7 CG2         5.2590   -4.9170  -38.8310 C.3       1 THR        -0.0316
      8 OXT         5.0330   -1.3450  -41.0410 O.co2     1 THR        -0.5642
      9 O           2.1420   -2.9660  -39.0760 O.3       1 A2G        -0.3408
     10 C1          3.2530   -2.0650  -39.2050 C.3       1 A2G         0.1856
     11 C2          2.9500   -0.7480  -38.4880 C.3       1 A2G         0.1213
     12 N2          4.1240    0.1310  -38.6040 N.am      1 A2G        -0.2766
     13 C3          2.6610   -1.0040  -37.0080 C.3       1 A2G         0.1176
     14 O3          2.3020    0.2420  -36.3930 O.3       1 A2G        -0.3403
     15 C4          1.5170   -2.0160  -36.9240 C.3       1 A2G         0.1120
     16 O4          0.3250   -1.4440  -37.4700 O.3       1 A2G        -0.3865
     17 C5          1.8790   -3.2840  -37.7000 C.3       1 A2G         0.1130
     18 C6          0.7090   -4.2690  -37.6300 C.3       1 A2G         0.0730
     19 O6          1.0380   -5.4550  -38.3580 O.3       1 A2G        -0.3924
     20 C7          4.0170    1.4380  -38.8190 C.2       1 A2G         0.1733
     21 O7          2.7890    2.0110  -38.9380 O.2       1 A2G        -0.3974
     22 C8          5.1630    2.2180  -38.9290 C.3       1 A2G         0.0257
     23 C1          2.3250    0.1530  -34.9610 C.3       1 GAL         0.1884
     24 C2          2.6930    1.5390  -34.4260 C.3       1 GAL         0.1341
     25 C3          2.5930    1.5840  -32.9010 C.3       1 GAL         0.1141
     26 C4          1.2080    1.0930  -32.4800 C.3       1 GAL         0.1119
     27 C5          0.9720   -0.3060  -33.0530 C.3       1 GAL         0.1130
     28 C6         -0.3970   -0.8130  -32.5940 C.3       1 GAL         0.0730
     29 O2          4.0190    1.8860  -34.8320 O.3       1 GAL        -0.3841
     30 O3          2.7800    2.9270  -32.4490 O.3       1 GAL        -0.3864
     31 O4          0.2140    1.9850  -32.9920 O.3       1 GAL        -0.3865
     32 O5          1.0310   -0.2590  -34.4880 O.3       1 GAL        -0.3405
     33 O6         -0.5940   -2.1510  -33.0570 O.3       1 GAL        -0.3924
     34 H           8.0616   -2.2056  -39.2227 H         1 THR         0.2011
     35 H           6.6564   -1.8287  -38.4101 H         1 THR         0.2011
     36 H           7.3289   -3.3452  -38.2526 H         1 THR         0.2011
     37 H           6.9042   -3.8361  -40.5622 H         1 THR         0.1050
     38 H           4.3685   -3.7272  -40.3881 H         1 THR         0.0670
     39 H           5.9186   -4.7684  -37.9760 H         1 THR         0.0258
     40 H           4.3015   -5.3097  -38.4889 H         1 THR         0.0258
     41 H           5.7154   -5.6226  -39.5252 H         1 THR         0.0258
     42 H           3.4168   -1.8773  -40.2661 H         1 THR         0.0935
     43 H           2.0761   -0.2816  -38.9428 H         1 THR         0.0633
     44 H           5.0543   -0.2778  -38.5162 H         1 THR         0.1857
     45 H           3.5304   -1.4059  -36.4877 H         1 THR         0.0649
     46 H           1.3495   -2.2739  -35.8783 H         1 THR         0.0647
     47 H          -0.3894   -2.0828  -37.4149 H         1 THR         0.2100
     48 H           2.7712   -3.7278  -37.2582 H         1 THR         0.0647
     49 H          -0.1782   -3.8100  -38.0663 H         1 THR         0.0584
     50 H           0.5124   -4.5253  -36.5890 H         1 THR         0.0584
     51 H           1.2114   -5.2287  -39.2747 H         1 THR         0.2095
     52 H           5.1865    2.6904  -39.9110 H         1 THR         0.0467
     53 H           5.1541    2.9856  -38.1552 H         1 THR         0.0467
     54 H           6.0434    1.5872  -38.8067 H         1 THR         0.0467
     55 H           3.0532   -0.5813  -34.6166 H         1 THR         0.0938
     56 H           1.9865    2.2587  -34.8395 H         1 THR         0.0671
     57 H           3.3608    0.9469  -32.4621 H         1 THR         0.0648
     58 H           1.1466    1.0600  -31.3922 H         1 THR         0.0647
     59 H           1.7446   -0.9863  -32.6948 H         1 THR         0.0647
     60 H          -1.1765   -0.1702  -33.0030 H         1 THR         0.0584
     61 H          -0.4423   -0.7967  -31.5051 H         1 THR         0.0584
     62 H           4.0772    1.8565  -35.7897 H         1 THR         0.2101
     63 H           2.1078    3.4911  -32.8385 H         1 THR         0.2100
     64 H           0.3595    2.8638  -32.6342 H         1 THR         0.2100
     65 H          -0.5533   -2.1658  -34.0160 H         1 THR         0.2095
@<TRIPOS>BOND
     1    1    2 1  
     2    2    3 1  
     3    2    5 1  
     4    3    4 ar 
     5    3    8 ar 
     6    5    6 1  
     7    5    7 1  
     8    6   10 1  
     9   10    9 1  
    10    9   17 1  
    11   10   11 1  
    12   11   12 1  
    13   11   13 1  
    14   12   20 am 
    15   13   14 1  
    16   13   15 1  
    17   14   23 1  
    18   15   16 1  
    19   15   17 1  
    20   17   18 1  
    21   18   19 1  
    22   20   21 2  
    23   20   22 1  
    24   23   24 1  
    25   23   32 1  
    26   24   25 1  
    27   24   29 1  
    28   25   26 1  
    29   25   30 1  
    30   26   27 1  
    31   26   31 1  
    32   27   28 1  
    33   27   32 1  
    34   28   33 1  
    35    1   34 1  
    36    1   35 1  
    37    1   36 1  
    38    2   37 1  
    39    5   38 1  
    40    7   39 1  
    41    7   40 1  
    42    7   41 1  
    43   10   42 1  
    44   11   43 1  
    45   12   44 1  
    46   13   45 1  
    47   15   46 1  
    48   16   47 1  
    49   17   48 1  
    50   18   49 1  
    51   18   50 1  
    52   19   51 1  
    53   22   52 1  
    54   22   53 1  
    55   22   54 1  
    56   23   55 1  
    57   24   56 1  
    58   25   57 1  
    59   26   58 1  
    60   27   59 1  
    61   28   60 1  
    62   28   61 1  
    63   29   62 1  
    64   30   63 1  
    65   31   64 1  
    66   33   65 1  
@<TRIPOS>SUBSTRUCTURE
     1 THR         1

