### 
### Created by X-TOOL on Mon Sep 10 21:13:06 2018
### 

@<TRIPOS>MOLECULE
3ayd_ligand
   63    65     1     0     0
SMALL
GAST_HUCK


@<TRIPOS>ATOM
      1 C1        -22.0540   19.4680   28.8190 C.ar      1 NPO         0.1882
      2 C2        -23.0920   19.9870   28.0530 C.ar      1 NPO        -0.0271
      3 C3        -23.4370   19.3930   26.8440 C.ar      1 NPO        -0.0239
      4 C4        -22.7360   18.2790   26.3940 C.ar      1 NPO         0.1016
      5 C5        -21.6800   17.7770   27.1480 C.ar      1 NPO        -0.0239
      6 C6        -21.3410   18.3650   28.3610 C.ar      1 NPO        -0.0271
      7 OH        -23.0400   17.6700   25.2160 O.3       1 NPO        -0.2808
      8 N1        -21.8030   19.9560   30.0310 N.2       1 NPO         0.3062
      9 O2        -22.5520   21.0690   30.4980 O.2       1 NPO         0.1732
     10 O3        -20.8080   19.3270   30.8280 O.2       1 NPO         0.1732
     11 O         -24.0030   19.2650   23.7290 O.3       1 A2G        -0.3369
     12 C1        -24.2480   18.1540   24.6080 C.3       1 A2G         0.2080
     13 C2        -24.8520   17.0030   23.8210 C.3       1 A2G         0.1260
     14 N2        -25.0500   15.8450   24.7050 N.am      1 A2G        -0.2762
     15 C3        -23.8740   16.5870   22.7370 C.3       1 A2G         0.1180
     16 O3        -24.4680   15.5020   22.0110 O.3       1 A2G        -0.3403
     17 C4        -23.6050   17.7830   21.8360 C.3       1 A2G         0.1120
     18 O4        -24.8130   18.1800   21.1690 O.3       1 A2G        -0.3865
     19 C5        -23.0760   18.9330   22.6820 C.3       1 A2G         0.1134
     20 C6        -22.9030   20.1680   21.7950 C.3       1 A2G         0.0730
     21 O6        -22.4530   21.2670   22.5920 O.3       1 A2G        -0.3924
     22 C7        -26.1060   15.7320   25.5200 C.2       1 A2G         0.1734
     23 O7        -27.1170   16.6340   25.6470 O.2       1 A2G        -0.3974
     24 C8        -26.1030   14.5500   26.4910 C.3       1 A2G         0.0257
     25 C1        -23.5020   14.7890   21.2270 C.3       1 GAL         0.1884
     26 C2        -24.0200   13.3720   21.0330 C.3       1 GAL         0.1341
     27 C3        -23.1230   12.6060   20.0760 C.3       1 GAL         0.1141
     28 C4        -23.0210   13.3860   18.7770 C.3       1 GAL         0.1119
     29 C5        -22.4830   14.7730   19.0880 C.3       1 GAL         0.1130
     30 C6        -22.3510   15.5870   17.7990 C.3       1 GAL         0.0730
     31 O2        -24.0670   12.6930   22.2960 O.3       1 GAL        -0.3841
     32 O3        -23.7080   11.3200   19.8220 O.3       1 GAL        -0.3864
     33 O4        -24.3260   13.5000   18.1920 O.3       1 GAL        -0.3865
     34 O5        -23.3970   15.4540   19.9590 O.3       1 GAL        -0.3405
     35 O6        -21.8610   16.8900   18.1250 O.3       1 GAL        -0.3924
     36 H         -23.6378   20.8636   28.4019 H         1 NPO         0.0666
     37 H         -24.2554   19.7996   26.2499 H         1 NPO         0.0561
     38 H         -21.1154   16.9179   26.7855 H         1 NPO         0.0561
     39 H         -20.5182   17.9626   28.9520 H         1 NPO         0.0666
     40 H         -24.9244   18.5084   25.3858 H         1 NPO         0.0993
     41 H         -25.8036   17.3221   23.3960 H         1 NPO         0.0638
     42 H         -24.3553   15.0982   24.6970 H         1 NPO         0.1857
     43 H         -22.9212   16.2588   23.1524 H         1 NPO         0.0649
     44 H         -22.8655   17.5121   21.0825 H         1 NPO         0.0647
     45 H         -24.6320   18.9346   20.6038 H         1 NPO         0.2100
     46 H         -22.1263   18.6277   23.1213 H         1 NPO         0.0647
     47 H         -23.8574   20.4205   21.3330 H         1 NPO         0.0584
     48 H         -22.1683   19.9575   21.0178 H         1 NPO         0.0584
     49 H         -21.6124   21.0433   22.9981 H         1 NPO         0.2095
     50 H         -26.0379   14.9217   27.5136 H         1 NPO         0.0467
     51 H         -27.0231   13.9786   26.3686 H         1 NPO         0.0467
     52 H         -25.2459   13.9105   26.2802 H         1 NPO         0.0467
     53 H         -22.5248   14.7590   21.7089 H         1 NPO         0.0938
     54 H         -25.0236   13.4234   20.6109 H         1 NPO         0.0671
     55 H         -22.1296   12.4758   20.5053 H         1 NPO         0.0648
     56 H         -22.3560   12.8752   18.0806 H         1 NPO         0.0647
     57 H         -21.5069   14.6715   19.5624 H         1 NPO         0.0647
     58 H         -23.3231   15.6689   17.3127 H         1 NPO         0.0584
     59 H         -21.6585   15.0915   17.1186 H         1 NPO         0.0584
     60 H         -24.6345   13.1793   22.8986 H         1 NPO         0.2101
     61 H         -23.1578   10.8363   19.2016 H         1 NPO         0.2100
     62 H         -24.6652   12.6236   17.9958 H         1 NPO         0.2100
     63 H         -22.4765   17.3221   18.7216 H         1 NPO         0.2095
@<TRIPOS>BOND
     1    1    2 ar 
     2    1    6 ar 
     3    1    8 1  
     4    2    3 ar 
     5    3    4 ar 
     6    4    5 ar 
     7    4    7 1  
     8    5    6 ar 
     9    7   12 1  
    10    8    9 2  
    11    8   10 2  
    12   12   11 1  
    13   11   19 1  
    14   12   13 1  
    15   13   14 1  
    16   13   15 1  
    17   14   22 am 
    18   15   16 1  
    19   15   17 1  
    20   16   25 1  
    21   17   18 1  
    22   17   19 1  
    23   19   20 1  
    24   20   21 1  
    25   22   23 2  
    26   22   24 1  
    27   25   26 1  
    28   25   34 1  
    29   26   27 1  
    30   26   31 1  
    31   27   28 1  
    32   27   32 1  
    33   28   29 1  
    34   28   33 1  
    35   29   30 1  
    36   29   34 1  
    37   30   35 1  
    38    2   36 1  
    39    3   37 1  
    40    5   38 1  
    41    6   39 1  
    42   12   40 1  
    43   13   41 1  
    44   14   42 1  
    45   15   43 1  
    46   17   44 1  
    47   18   45 1  
    48   19   46 1  
    49   20   47 1  
    50   20   48 1  
    51   21   49 1  
    52   24   50 1  
    53   24   51 1  
    54   24   52 1  
    55   25   53 1  
    56   26   54 1  
    57   27   55 1  
    58   28   56 1  
    59   29   57 1  
    60   30   58 1  
    61   30   59 1  
    62   31   60 1  
    63   32   61 1  
    64   33   62 1  
    65   35   63 1  
@<TRIPOS>SUBSTRUCTURE
     1 NPO         1

