### 
### Created by X-TOOL on Mon Sep 10 21:13:11 2018
### 

@<TRIPOS>MOLECULE
3az8_ligand
   24    24     1     0     0
SMALL
GAST_HUCK


@<TRIPOS>ATOM
      1 C1         23.3340  -27.8550   51.3430 C.ar      1 S21        -0.0354
      2 C2         23.7440  -28.7580   52.3340 C.ar      1 S21        -0.0135
      3 C3         22.8540  -29.7080   52.8440 C.ar      1 S21         0.2037
      4 C4         21.5540  -29.7560   52.3680 C.ar      1 S21        -0.0135
      5 C5         21.1510  -28.8540   51.3860 C.ar      1 S21        -0.0354
      6 C6         22.0210  -27.8950   50.8650 C.ar      1 S21         0.0398
      7 C7         21.5230  -26.9550   49.7910 C.2       1 S21         0.1538
      8 O8         20.6230  -27.3050   49.0280 O.2       1 S21        -0.3729
      9 C9         22.1440  -25.5920   49.6000 C.3       1 S21         0.1065
     10 C10        21.6100  -24.5240   50.5170 C.2       1 S21         0.2470
     11 O11        22.1580  -24.2840   51.5720 O.2       1 S21        -0.3199
     12 C12        20.4170  -23.7270   50.0990 C.3       1 S21         0.4597
     13 N13        23.2440  -30.6250   53.8260 N.2       1 S21         0.3176
     14 F1C        20.5410  -23.5170   48.7910 F         1 S21        -0.1719
     15 O1N        23.3380  -31.8340   53.5400 O.2       1 S21         0.1796
     16 F2C        19.3160  -24.4170   50.3310 F         1 S21        -0.1719
     17 O2N        23.4860  -30.2160   54.9710 O.2       1 S21         0.1796
     18 F3C        20.3920  -22.5880   50.7840 F         1 S21        -0.1719
     19 H          24.0376  -27.1233   50.9461 H         1 S21         0.0684
     20 H          24.7662  -28.7190   52.7104 H         1 S21         0.0702
     21 H          20.8525  -30.4932   52.7585 H         1 S21         0.0702
     22 H          20.1274  -28.8984   51.0140 H         1 S21         0.0684
     23 H          21.9156  -25.2790   48.5812 H         1 S21         0.0708
     24 H          23.2073  -25.6943   49.8170 H         1 S21         0.0708
@<TRIPOS>BOND
     1    1    2 ar 
     2    1    6 ar 
     3    2    3 ar 
     4    3    4 ar 
     5    3   13 1  
     6    4    5 ar 
     7    5    6 ar 
     8    6    7 1  
     9    7    8 2  
    10    7    9 1  
    11    9   10 1  
    12   10   11 2  
    13   10   12 1  
    14   12   14 1  
    15   12   16 1  
    16   12   18 1  
    17   13   15 2  
    18   13   17 2  
    19    1   19 1  
    20    2   20 1  
    21    4   21 1  
    22    5   22 1  
    23    9   23 1  
    24    9   24 1  
@<TRIPOS>SUBSTRUCTURE
     1 S21         1

