### 
### Created by X-TOOL on Mon Sep 10 21:13:11 2018
### 

@<TRIPOS>MOLECULE
3az9_ligand
   29    31     1     0     0
SMALL
GAST_HUCK


@<TRIPOS>ATOM
      1 C1        -14.2410   33.6030   35.4290 C.ar      1 K91         0.1225
      2 C2        -13.0730   32.9290   35.7100 C.ar      1 K91        -0.0395
      3 C3        -11.9970   32.8950   34.8370 C.ar      1 K91        -0.0669
      4 C4        -12.1000   33.5370   33.6350 C.ar      1 K91         0.0211
      5 C5        -13.2640   34.2180   33.3300 C.ar      1 K91        -0.0221
      6 C6        -14.3370   34.2630   34.2210 C.ar      1 K91         0.1483
      7 O7        -15.4960   34.9660   33.9300 O.3       1 K91        -0.2543
      8 C8        -15.4640   36.3350   34.0080 C.ar      1 K91         0.1414
      9 C9        -15.3760   37.1810   32.8920 C.ar      1 K91        -0.0240
     10 C10       -15.3540   38.5690   33.0430 C.ar      1 K91        -0.0546
     11 C11       -15.3990   39.1320   34.3060 C.ar      1 K91         0.0413
     12 C12       -15.4630   38.2760   35.3940 C.ar      1 K91         0.0134
     13 C13       -15.4880   36.8920   35.2430 C.ar      1 K91         0.0868
     14 N14       -15.5490   36.0490   36.2840 N.ar      1 K91        -0.2936
     15 C15       -15.5930   36.5280   37.5300 C.ar      1 K91         0.0088
     16 C16       -15.5620   37.8990   37.7300 C.ar      1 K91        -0.0345
     17 C17       -15.5070   38.7940   36.6620 C.ar      1 K91        -0.0386
     18 CL18      -15.3570   40.9310   34.5110 Cl        1 K91        -0.0796
     19 O19       -15.2530   33.6010   36.3610 O.3       1 K91        -0.3353
     20 CL20      -10.6840   33.4510   32.5220 Cl        1 K91        -0.0836
     21 H         -12.9915   32.3998   36.6594 H         1 K91         0.0513
     22 H         -11.0832   32.3646   35.1049 H         1 K91         0.0510
     23 H         -13.3453   34.7313   32.3719 H         1 K91         0.0528
     24 H         -15.3241   36.7485   31.8928 H         1 K91         0.0542
     25 H         -15.3012   39.2107   32.1635 H         1 K91         0.0611
     26 H         -15.6526   35.8482   38.3800 H         1 K91         0.0838
     27 H         -15.5811   38.2877   38.7482 H         1 K91         0.0690
     28 H         -15.4993   39.8709   36.8303 H         1 K91         0.0747
     29 H         -15.4389   34.5030   36.6318 H         1 K91         0.2450
@<TRIPOS>BOND
     1    1    2 ar 
     2    1    6 ar 
     3    1   19 1  
     4    2    3 ar 
     5    3    4 ar 
     6    4    5 ar 
     7    4   20 1  
     8    5    6 ar 
     9    6    7 1  
    10    7    8 1  
    11    8    9 ar 
    12    8   13 ar 
    13    9   10 ar 
    14   10   11 ar 
    15   11   12 ar 
    16   11   18 1  
    17   12   13 ar 
    18   12   17 ar 
    19   13   14 ar 
    20   14   15 ar 
    21   15   16 ar 
    22   16   17 ar 
    23    2   21 1  
    24    3   22 1  
    25    5   23 1  
    26    9   24 1  
    27   10   25 1  
    28   15   26 1  
    29   16   27 1  
    30   17   28 1  
    31   19   29 1  
@<TRIPOS>SUBSTRUCTURE
     1 K91         1

