### 
### Created by X-TOOL on Mon Sep 10 21:13:11 2018
### 

@<TRIPOS>MOLECULE
3aza_ligand
   31    33     1     0     0
SMALL
GAST_HUCK


@<TRIPOS>ATOM
      1 C1         -4.5750   27.8180   17.5800 C.ar      1 KM0        -0.0577
      2 C2         -3.8640   26.6140   17.6650 C.ar      1 KM0        -0.0685
      3 C3         -3.1720   26.1170   16.5610 C.ar      1 KM0        -0.0687
      4 C4         -3.1960   26.8440   15.3680 C.ar      1 KM0        -0.0685
      5 C5         -3.9060   28.0470   15.2860 C.ar      1 KM0        -0.0577
      6 C6         -4.5990   28.5400   16.3900 C.ar      1 KM0        -0.0124
      7 C7         -5.3800   29.8370   16.3410 C.3       1 KM0         0.1066
      8 O8         -5.0970   30.6300   15.1670 O.3       1 KM0        -0.2983
      9 C9         -4.0810   31.5510   15.1800 C.ar      1 KM0         0.1224
     10 C10        -3.2370   31.7130   14.0900 C.ar      1 KM0        -0.0276
     11 C11        -2.2130   32.6590   14.1250 C.ar      1 KM0        -0.0552
     12 C12        -2.0080   33.4410   15.2580 C.ar      1 KM0         0.0410
     13 C13        -2.8590   33.2720   16.3430 C.ar      1 KM0         0.0130
     14 C14        -3.8880   32.3330   16.3010 C.ar      1 KM0         0.0835
     15 N15        -4.7180   32.1530   17.3480 N.ar      1 KM0        -0.2938
     16 C16        -4.5880   32.8690   18.4590 C.ar      1 KM0         0.0089
     17 C17        -3.5760   33.8110   18.5400 C.ar      1 KM0        -0.0344
     18 C18        -2.6970   34.0290   17.4880 C.ar      1 KM0        -0.0386
     19 CL19       -0.6770   34.6540   15.3160 Cl        1 KM0        -0.0800
     20 H          -5.1129   28.1919   18.4512 H         1 KM0         0.0557
     21 H          -3.8515   26.0600   18.6036 H         1 KM0         0.0599
     22 H          -2.6222   25.1782   16.6275 H         1 KM0         0.0559
     23 H          -2.6584   26.4718   14.4959 H         1 KM0         0.0599
     24 H          -3.9171   28.6041   14.3492 H         1 KM0         0.0557
     25 H          -5.0957   30.4260   17.2130 H         1 KM0         0.0784
     26 H          -6.4398   29.5830   16.3195 H         1 KM0         0.0784
     27 H          -3.3754   31.0971   13.2014 H         1 KM0         0.0534
     28 H          -1.5668   32.7873   13.2566 H         1 KM0         0.0611
     29 H          -5.2691   32.7172   19.2964 H         1 KM0         0.0839
     30 H          -3.4670   34.3961   19.4531 H         1 KM0         0.0690
     31 H          -1.9043   34.7734   17.5625 H         1 KM0         0.0747
@<TRIPOS>BOND
     1    1    2 ar 
     2    1    6 ar 
     3    2    3 ar 
     4    3    4 ar 
     5    4    5 ar 
     6    5    6 ar 
     7    6    7 1  
     8    7    8 1  
     9    8    9 1  
    10    9   10 ar 
    11    9   14 ar 
    12   10   11 ar 
    13   11   12 ar 
    14   12   13 ar 
    15   12   19 1  
    16   13   14 ar 
    17   13   18 ar 
    18   14   15 ar 
    19   15   16 ar 
    20   16   17 ar 
    21   17   18 ar 
    22    1   20 1  
    23    2   21 1  
    24    3   22 1  
    25    4   23 1  
    26    5   24 1  
    27    7   25 1  
    28    7   26 1  
    29   10   27 1  
    30   11   28 1  
    31   16   29 1  
    32   17   30 1  
    33   18   31 1  
@<TRIPOS>SUBSTRUCTURE
     1 KM0         1

