### 
### Created by X-TOOL on Mon Sep 10 21:13:11 2018
### 

@<TRIPOS>MOLECULE
3azb_ligand
   31    33     1     0     0
SMALL
GAST_HUCK


@<TRIPOS>ATOM
      1 C1         21.2490  -26.0430    7.6690 C.ar      1 KM1        -0.0576
      2 C2         21.3670  -27.3910    7.4160 C.ar      1 KM1        -0.0680
      3 C3         22.0570  -28.2110    8.3160 C.ar      1 KM1        -0.0548
      4 C4         22.6350  -27.7260    9.4750 C.ar      1 KM1         0.0339
      5 C5         22.5150  -26.3750    9.7240 C.ar      1 KM1        -0.0439
      6 C6         21.8330  -25.5590    8.8300 C.ar      1 KM1        -0.0119
      7 C7         21.7150  -24.1360    9.1290 C.3       1 KM1         0.1066
      8 O8         21.0070  -23.2960    8.2010 O.3       1 KM1        -0.2984
      9 C9         21.0000  -21.9670    8.4930 C.ar      1 KM1         0.1224
     10 C10        22.1880  -21.2960    8.7830 C.ar      1 KM1        -0.0276
     11 C11        22.1880  -19.9340    9.0890 C.ar      1 KM1        -0.0552
     12 C12        20.9830  -19.2450    9.1110 C.ar      1 KM1         0.0410
     13 C13        19.7990  -19.9240    8.8350 C.ar      1 KM1         0.0130
     14 C14        19.8040  -21.2830    8.5280 C.ar      1 KM1         0.0835
     15 N15        18.6680  -21.9550    8.2620 N.ar      1 KM1        -0.2938
     16 C16        17.5060  -21.3020    8.2880 C.ar      1 KM1         0.0089
     17 C17        17.4470  -19.9440    8.5880 C.ar      1 KM1        -0.0344
     18 C18        18.6040  -19.2380    8.8610 C.ar      1 KM1        -0.0386
     19 CL19       20.9480  -17.4890    9.4950 Cl        1 KM1        -0.0800
     20 CL20       23.5100  -28.8090   10.6290 Cl        1 KM1        -0.0725
     21 H          20.7176  -25.3823    6.9840 H         1 KM1         0.0559
     22 H          20.9240  -27.8188    6.5166 H         1 KM1         0.0599
     23 H          22.1423  -29.2749    8.0946 H         1 KM1         0.0565
     24 H          22.9561  -25.9465   10.6240 H         1 KM1         0.0563
     25 H          22.7379  -23.7595    9.1308 H         1 KM1         0.0784
     26 H          21.1406  -24.0860   10.0540 H         1 KM1         0.0784
     27 H          23.1305  -21.8434    8.7705 H         1 KM1         0.0534
     28 H          23.1227  -19.4178    9.3080 H         1 KM1         0.0611
     29 H          16.5845  -21.8418    8.0702 H         1 KM1         0.0839
     30 H          16.4836  -19.4345    8.6078 H         1 KM1         0.0690
     31 H          18.5720  -18.1727    9.0895 H         1 KM1         0.0747
@<TRIPOS>BOND
     1    1    2 ar 
     2    1    6 ar 
     3    2    3 ar 
     4    3    4 ar 
     5    4    5 ar 
     6    4   20 1  
     7    5    6 ar 
     8    6    7 1  
     9    7    8 1  
    10    8    9 1  
    11    9   10 ar 
    12    9   14 ar 
    13   10   11 ar 
    14   11   12 ar 
    15   12   13 ar 
    16   12   19 1  
    17   13   14 ar 
    18   13   18 ar 
    19   14   15 ar 
    20   15   16 ar 
    21   16   17 ar 
    22   17   18 ar 
    23    1   21 1  
    24    2   22 1  
    25    3   23 1  
    26    5   24 1  
    27    7   25 1  
    28    7   26 1  
    29   10   27 1  
    30   11   28 1  
    31   16   29 1  
    32   17   30 1  
    33   18   31 1  
@<TRIPOS>SUBSTRUCTURE
     1 KM1         1

