### 
### Created by X-TOOL on Mon Sep 10 21:13:07 2018
### 

@<TRIPOS>MOLECULE
3b0w_ligand
  119   126     1     0     0
SMALL
GAST_HUCK


@<TRIPOS>ATOM
      1 C1         25.4880   18.9970   -1.4820 C.3       1 DGX        -0.0448
      2 C2         25.5040   19.4360   -2.9610 C.3       1 DGX        -0.0260
      3 C3         26.5860   20.4940   -3.2030 C.3       1 DGX         0.0620
      4 O3         27.8720   19.9200   -2.9540 O.3       1 DGX        -0.3480
      5 C4         26.3410   21.6990   -2.2700 C.3       1 DGX        -0.0232
      6 C5         26.2840   21.3090   -0.7680 C.3       1 DGX        -0.0330
      7 C6         25.9780   22.5680    0.0850 C.3       1 DGX        -0.0493
      8 C7         24.5330   23.0700   -0.1130 C.3       1 DGX        -0.0470
      9 C8         23.5000   21.9500    0.1490 C.3       1 DGX        -0.0079
     10 C9         23.8060   20.7110   -0.7390 C.3       1 DGX        -0.0276
     11 C10        25.2380   20.1850   -0.5190 C.3       1 DGX        -0.0258
     12 C11        22.7430   19.5850   -0.5680 C.3       1 DGX        -0.0223
     13 C12        21.3630   20.1500   -0.9110 C.3       1 DGX         0.0664
     14 O12        20.3770   19.1090   -0.8930 O.3       1 DGX        -0.3909
     15 C13        20.9740   21.3030    0.0600 C.3       1 DGX         0.0405
     16 C14        22.0460   22.4370    0.0000 C.3       1 DGX         0.0799
     17 O14        21.8000   23.4240    1.0060 O.3       1 DGX        -0.3874
     18 C15        21.7390   23.1450   -1.3380 C.3       1 DGX        -0.0200
     19 C16        20.2000   23.1850   -1.3860 C.3       1 DGX        -0.0318
     20 C17        19.7020   21.9640   -0.5630 C.3       1 DGX         0.0177
     21 C18        20.7700   20.7700    1.4860 C.3       1 DGX        -0.0516
     22 C19        25.4200   19.6170    0.9020 C.3       1 DGX        -0.0590
     23 C1X        29.0030   20.6740   -3.4180 C.3       1 DGX         0.1624
     24 C1Y        33.5800   21.3390   -6.0770 C.3       1 DGX         0.1626
     25 C1Z        38.6700   19.7950   -6.4360 C.3       1 DGX         0.1626
     26 C20        18.6120   22.4290    0.3850 C.2       1 DGX        -0.0063
     27 C21        17.3070   21.7190    0.7130 C.3       1 DGX         0.1204
     28 O21        16.5270   22.6590    1.5240 O.3       1 DGX        -0.2665
     29 C22        18.5810   23.5790    1.0500 C.2       1 DGX         0.0017
     30 C23        17.3360   23.6900    1.8140 C.2       1 DGX         0.2187
     31 O23        17.0770   24.6100    2.5750 O.2       1 DGX        -0.3870
     32 C2X        30.2800   20.0070   -2.9150 C.3       1 DGX         0.0270
     33 C2Y        34.7390   22.3430   -6.0050 C.3       1 DGX         0.0270
     34 C2Z        39.7060   19.9740   -7.5620 C.3       1 DGX         0.0270
     35 C3X        31.5360   20.6690   -3.5170 C.3       1 DGX         0.0884
     36 O3X        31.7640   21.9650   -2.9650 O.3       1 DGX        -0.3890
     37 C3Y        35.9100   21.7880   -6.8320 C.3       1 DGX         0.0884
     38 O3Y        35.5200   21.7590   -8.2110 O.3       1 DGX        -0.3890
     39 C3Z        41.0840   20.3500   -6.9960 C.3       1 DGX         0.0881
     40 O3Z        41.6030   19.2410   -6.2510 O.3       1 DGX        -0.3890
     41 C4X        31.4530   20.8750   -5.0360 C.3       1 DGX         0.1134
     42 O4X        32.4560   21.8480   -5.3540 O.3       1 DGX        -0.3429
     43 C4Y        36.2950   20.3810   -6.3110 C.3       1 DGX         0.1134
     44 O4Y        37.3750   19.8050   -7.0690 O.3       1 DGX        -0.3429
     45 C4Z        40.9640   21.5980   -6.0970 C.3       1 DGX         0.1070
     46 O4Z        42.2570   22.0020   -5.6170 O.3       1 DGX        -0.3867
     47 C5X        30.0950   21.4760   -5.4320 C.3       1 DGX         0.0875
     48 O5X        29.0370   20.7100   -4.8550 O.3       1 DGX        -0.3456
     49 C5Y        35.0560   19.4650   -6.3170 C.3       1 DGX         0.0875
     50 O5Y        34.0280   20.0940   -5.5340 O.3       1 DGX        -0.3456
     51 C5Z        40.0170   21.2840   -4.9220 C.3       1 DGX         0.0871
     52 O5Z        38.7440   20.8280   -5.4180 O.3       1 DGX        -0.3456
     53 C6X        29.9510   21.5050   -6.9540 C.3       1 DGX        -0.0361
     54 C6Y        35.4000   18.0940   -5.7270 C.3       1 DGX        -0.0361
     55 C6Z        39.8100   22.5490   -4.0750 C.3       1 DGX        -0.0361
     56 H1         26.4590   18.5417   -1.2375 H         1 DGX         0.0271
     57 H2         24.6890   18.2540   -1.3421 H         1 DGX         0.0271
     58 H3         24.5224   19.8578   -3.2226 H         1 DGX         0.0290
     59 H4         25.7077   18.5604   -3.5949 H         1 DGX         0.0290
     60 H5         26.5383   20.8323   -4.2486 H         1 DGX         0.0597
     61 H6         25.3842   22.1661   -2.5463 H         1 DGX         0.0293
     62 H7         27.1570   22.4228   -2.4123 H         1 DGX         0.0293
     63 H8         27.2714   20.9245   -0.4729 H         1 DGX         0.0307
     64 H9         26.6739   23.3693   -0.2041 H         1 DGX         0.0268
     65 H10        26.1244   22.3205    1.1467 H         1 DGX         0.0268
     66 H11        24.4177   23.4270   -1.1470 H         1 DGX         0.0269
     67 H12        24.3446   23.8995    0.5845 H         1 DGX         0.0269
     68 H13        23.6221   21.6361    1.1961 H         1 DGX         0.0332
     69 H14        23.7469   21.0475   -1.7846 H         1 DGX         0.0310
     70 H15        22.7475   19.2278    0.4724 H         1 DGX         0.0293
     71 H16        22.9782   18.7494   -1.2436 H         1 DGX         0.0293
     72 H17        21.4060   20.5631   -1.9295 H         1 DGX         0.0602
     73 H18        20.3455   18.7191   -0.0272 H         1 DGX         0.2098
     74 H19        22.4626   24.1025    0.9511 H         1 DGX         0.2102
     75 H20        22.1430   22.5728   -2.1862 H         1 DGX         0.0295
     76 H21        22.1582   24.1619   -1.3488 H         1 DGX         0.0295
     77 H22        19.8500   23.1106   -2.4262 H         1 DGX         0.0301
     78 H23        19.8299   24.1202   -0.9405 H         1 DGX         0.0301
     79 H24        19.2464   21.2285   -1.2423 H         1 DGX         0.0550
     80 H25        21.7078   20.3234    1.8481 H         1 DGX         0.0239
     81 H26        19.9779   20.0068    1.4824 H         1 DGX         0.0239
     82 H27        20.4784   21.5981    2.1488 H         1 DGX         0.0239
     83 H28        26.4508   19.2522    1.0218 H         1 DGX         0.0235
     84 H29        24.7166   18.7858    1.0575 H         1 DGX         0.0235
     85 H30        25.2226   20.4075    1.6410 H         1 DGX         0.0235
     86 H31        28.9413   21.7009   -3.0285 H         1 DGX         0.0910
     87 H32        33.2892   21.1900   -7.1273 H         1 DGX         0.0910
     88 H33        38.8347   18.8220   -5.9501 H         1 DGX         0.0910
     89 H34        17.5054   20.7980    1.2808 H         1 DGX         0.0859
     90 H35        16.7646   21.4704   -0.2111 H         1 DGX         0.0859
     91 H36        19.3683   24.3312    1.0299 H         1 DGX         0.0295
     92 H37        30.2646   18.9445   -3.1992 H         1 DGX         0.0340
     93 H38        30.3208   20.0929   -1.8191 H         1 DGX         0.0340
     94 H39        35.0522   22.4753   -4.9589 H         1 DGX         0.0340
     95 H40        34.4186   23.3113   -6.4171 H         1 DGX         0.0340
     96 H41        39.3662   20.7722   -8.2384 H         1 DGX         0.0340
     97 H42        39.7935   19.0313   -8.1220 H         1 DGX         0.0340
     98 H43        32.3964   20.0217   -3.2919 H         1 DGX         0.0622
     99 H44        32.5428   22.3424   -3.3569 H         1 DGX         0.2099
    100 H45        36.7794   22.4529   -6.7226 H         1 DGX         0.0622
    101 H46        36.2357   21.4175   -8.7342 H         1 DGX         0.2099
    102 H47        41.7672   20.5752   -7.8282 H         1 DGX         0.0621
    103 H48        42.4554   19.4687   -5.8988 H         1 DGX         0.2099
    104 H49        31.6257   19.9281   -5.5686 H         1 DGX         0.0649
    105 H50        36.6364   20.4863   -5.2707 H         1 DGX         0.0649
    106 H51        40.5367   22.4221   -6.6871 H         1 DGX         0.0645
    107 H52        42.6416   21.2947   -5.1127 H         1 DGX         0.2100
    108 H53        30.0378   22.5062   -5.0506 H         1 DGX         0.0621
    109 H54        34.7028   19.3335   -7.3504 H         1 DGX         0.0621
    110 H55        40.4650   20.4971   -4.2975 H         1 DGX         0.0621
    111 H56        28.9755   21.9371   -7.2218 H         1 DGX         0.0255
    112 H57        30.0188   20.4804   -7.3483 H         1 DGX         0.0255
    113 H58        30.7550   22.1184   -7.3868 H         1 DGX         0.0255
    114 H59        34.5051   17.4545   -5.7394 H         1 DGX         0.0255
    115 H60        35.7480   18.2175   -4.6909 H         1 DGX         0.0255
    116 H61        36.1938   17.6253   -6.3271 H         1 DGX         0.0255
    117 H62        39.1340   22.3227   -3.2372 H         1 DGX         0.0255
    118 H63        39.3684   23.3399   -4.6990 H         1 DGX         0.0255
    119 H64        40.7792   22.8900   -3.6822 H         1 DGX         0.0255
@<TRIPOS>BOND
     1    2    1 1  
     2    1   11 1  
     3    3    2 1  
     4    4    3 1  
     5    3    5 1  
     6   23    4 1  
     7    5    6 1  
     8    6    7 1  
     9    6   11 1  
    10    7    8 1  
    11    8    9 1  
    12   10    9 1  
    13    9   16 1  
    14   11   10 1  
    15   10   12 1  
    16   11   22 1  
    17   12   13 1  
    18   13   14 1  
    19   13   15 1  
    20   16   15 1  
    21   15   20 1  
    22   15   21 1  
    23   16   17 1  
    24   16   18 1  
    25   18   19 1  
    26   20   19 1  
    27   20   26 1  
    28   32   23 1  
    29   23   48 1  
    30   33   24 1  
    31   24   42 1  
    32   24   50 1  
    33   25   34 1  
    34   44   25 1  
    35   25   52 1  
    36   26   27 1  
    37   26   29 2  
    38   27   28 1  
    39   30   28 1  
    40   29   30 1  
    41   30   31 2  
    42   35   32 1  
    43   37   33 1  
    44   34   39 1  
    45   35   36 1  
    46   41   35 1  
    47   37   38 1  
    48   43   37 1  
    49   39   40 1  
    50   39   45 1  
    51   42   41 1  
    52   41   47 1  
    53   43   44 1  
    54   43   49 1  
    55   45   46 1  
    56   45   51 1  
    57   47   48 1  
    58   47   53 1  
    59   49   50 1  
    60   49   54 1  
    61   51   52 1  
    62   51   55 1  
    63    1   56 1  
    64    1   57 1  
    65    2   58 1  
    66    2   59 1  
    67    3   60 1  
    68    5   61 1  
    69    5   62 1  
    70    6   63 1  
    71    7   64 1  
    72    7   65 1  
    73    8   66 1  
    74    8   67 1  
    75    9   68 1  
    76   10   69 1  
    77   12   70 1  
    78   12   71 1  
    79   13   72 1  
    80   14   73 1  
    81   17   74 1  
    82   18   75 1  
    83   18   76 1  
    84   19   77 1  
    85   19   78 1  
    86   20   79 1  
    87   21   80 1  
    88   21   81 1  
    89   21   82 1  
    90   22   83 1  
    91   22   84 1  
    92   22   85 1  
    93   23   86 1  
    94   24   87 1  
    95   25   88 1  
    96   27   89 1  
    97   27   90 1  
    98   29   91 1  
    99   32   92 1  
   100   32   93 1  
   101   33   94 1  
   102   33   95 1  
   103   34   96 1  
   104   34   97 1  
   105   35   98 1  
   106   36   99 1  
   107   37  100 1  
   108   38  101 1  
   109   39  102 1  
   110   40  103 1  
   111   41  104 1  
   112   43  105 1  
   113   45  106 1  
   114   46  107 1  
   115   47  108 1  
   116   49  109 1  
   117   51  110 1  
   118   53  111 1  
   119   53  112 1  
   120   53  113 1  
   121   54  114 1  
   122   54  115 1  
   123   54  116 1  
   124   55  117 1  
   125   55  118 1  
   126   55  119 1  
@<TRIPOS>SUBSTRUCTURE
     1 DGX         1

