### 
### Created by X-TOOL on Mon Sep 10 21:13:05 2018
### 

@<TRIPOS>MOLECULE
3b24_ligand
   21    21     1     0     0
SMALL
GAST_HUCK


@<TRIPOS>ATOM
      1 C1         33.1270   37.9480   51.7240 C.3       1 B2J        -0.0532
      2 C2         32.4970   36.7920   52.5120 C.3       1 B2J         0.0123
      3 S3         33.6450   35.3630   52.4470 S.3       1 B2J        -0.0531
      4 C4         33.2200   34.6180   50.9370 C.ar      1 B2J         0.1529
      5 N5         34.2160   34.1190   50.2040 N.ar      1 B2J        -0.2256
      6 N6         31.9440   34.5230   50.5140 N.ar      1 B2J        -0.2463
      7 C7         31.6740   33.9270   49.3430 C.ar      1 B2J         0.0901
      8 C8         30.2030   33.7930   48.8770 C.3       1 B2J         0.0039
      9 N9         32.6890   33.4320   48.5990 N.ar      1 B2J        -0.2376
     10 C10        33.9650   33.5690   49.0140 C.ar      1 B2J         0.1849
     11 N11        34.9910   33.1870   48.2730 N.pl3     1 B2J        -0.2999
     12 H1         32.4546   38.8182   51.7492 H         1 B2J         0.0240
     13 H2         33.2855   37.6372   50.6808 H         1 B2J         0.0240
     14 H3         34.0924   38.2174   52.1771 H         1 B2J         0.0240
     15 H4         31.5325   36.5158   52.0610 H         1 B2J         0.0409
     16 H5         32.3394   37.0960   53.5573 H         1 B2J         0.0409
     17 H6         29.5391   34.2583   49.6204 H         1 B2J         0.0484
     18 H7         29.9470   32.7283   48.7723 H         1 B2J         0.0484
     19 H8         30.0781   34.2972   47.9074 H         1 B2J         0.0484
     20 H9         35.9522   33.3073   48.6230 H         1 B2J         0.1863
     21 H10        34.8292   32.7690   47.3456 H         1 B2J         0.1863
@<TRIPOS>BOND
     1    1    2 1  
     2    2    3 1  
     3    3    4 1  
     4    4    5 ar 
     5    4    6 ar 
     6    5   10 ar 
     7    6    7 ar 
     8    7    8 1  
     9    7    9 ar 
    10    9   10 ar 
    11   10   11 1  
    12    1   12 1  
    13    1   13 1  
    14    1   14 1  
    15    2   15 1  
    16    2   16 1  
    17    8   17 1  
    18    8   18 1  
    19    8   19 1  
    20   11   20 1  
    21   11   21 1  
@<TRIPOS>SUBSTRUCTURE
     1 B2J         1

