### 
### Created by X-TOOL on Mon Sep 10 21:13:06 2018
### 

@<TRIPOS>MOLECULE
3b25_ligand
   31    32     1     0     0
SMALL
GAST_HUCK


@<TRIPOS>ATOM
      1 C1         63.7690   13.5020   25.2690 C.ar      1 B2K        -0.0431
      2 C2         63.1950   14.7200   24.9000 C.ar      1 B2K        -0.0588
      3 C3         62.1550   14.7630   23.9570 C.ar      1 B2K        -0.0460
      4 C4         61.5710   16.1120   23.5430 C.3       1 B2K        -0.0311
      5 C5         61.6720   13.5830   23.3850 C.ar      1 B2K        -0.0588
      6 C6         62.2190   12.3600   23.8020 C.ar      1 B2K        -0.0431
      7 C7         63.2840   12.3250   24.7120 C.ar      1 B2K         0.0897
      8 S8         64.0120   10.7840   25.1820 S.o2      1 B2K         0.0376
      9 O9         63.1540    9.6790   24.6380 O.2       1 B2K        -0.1622
     10 O10        64.0950   10.7180   26.6780 O.2       1 B2K        -0.1622
     11 C11        65.6530   10.7280   24.5230 C.ar      1 B2K         0.1598
     12 N12        66.6820   11.2610   25.2270 N.ar      1 B2K        -0.2366
     13 C13        65.8780   10.2000   23.2470 C.ar      1 B2K         0.0029
     14 C14        67.1860   10.1630   22.7690 C.ar      1 B2K         0.0297
     15 C15        67.4740    9.5680   21.3810 C.3       1 B2K        -0.0123
     16 N16        68.1910   10.7140   23.4910 N.ar      1 B2K        -0.2555
     17 C17        67.9480   11.2170   24.7230 C.ar      1 B2K         0.1814
     18 N18        68.9740   11.6660   25.4190 N.pl3     1 B2K        -0.3044
     19 H1         64.5845   13.4748   25.9826 H         1 B2K         0.0618
     20 H2         63.5551   15.6405   25.3451 H         1 B2K         0.0557
     21 H3         60.7729   15.9543   22.8027 H         1 B2K         0.0391
     22 H4         62.3631   16.7345   23.1012 H         1 B2K         0.0391
     23 H5         61.1563   16.6189   24.4268 H         1 B2K         0.0391
     24 H6         60.8905   13.6119   22.6343 H         1 B2K         0.0557
     25 H7         61.8132   11.4319   23.4159 H         1 B2K         0.0618
     26 H8         65.0557    9.8293   22.6458 H         1 B2K         0.0624
     27 H9         68.5531    9.6236   21.1750 H         1 B2K         0.0444
     28 H10        66.9250   10.1376   20.6167 H         1 B2K         0.0444
     29 H11        67.1501    8.5170   21.3582 H         1 B2K         0.0444
     30 H12        68.8263   12.0559   26.3608 H         1 B2K         0.1825
     31 H13        69.9231   11.6268   25.0208 H         1 B2K         0.1825
@<TRIPOS>BOND
     1    1    2 ar 
     2    1    7 ar 
     3    2    3 ar 
     4    3    4 1  
     5    3    5 ar 
     6    5    6 ar 
     7    6    7 ar 
     8    7    8 1  
     9    8    9 2  
    10    8   10 2  
    11    8   11 1  
    12   11   12 ar 
    13   11   13 ar 
    14   12   17 ar 
    15   13   14 ar 
    16   14   15 1  
    17   14   16 ar 
    18   16   17 ar 
    19   17   18 1  
    20    1   19 1  
    21    2   20 1  
    22    4   21 1  
    23    4   22 1  
    24    4   23 1  
    25    5   24 1  
    26    6   25 1  
    27   13   26 1  
    28   15   27 1  
    29   15   28 1  
    30   15   29 1  
    31   18   30 1  
    32   18   31 1  
@<TRIPOS>SUBSTRUCTURE
     1 B2K         1

