### 
### Created by X-TOOL on Mon Sep 10 21:13:05 2018
### 

@<TRIPOS>MOLECULE
3b26_ligand
   36    39     1     0     0
SMALL
GAST_HUCK


@<TRIPOS>ATOM
      1 C1         -3.1480   11.3090    1.5130 C.3       1 B2L         0.0896
      2 O2         -3.9000   10.1970    2.0890 O.3       1 B2L        -0.3514
      3 C3         -3.7490    9.0130    1.2290 C.3       1 B2L         0.0875
      4 C4         -2.4470    8.6980    0.7920 C.ar      1 B2L        -0.0053
      5 C5         -2.1160    7.3820    0.4490 C.ar      1 B2L        -0.0584
      6 C6         -0.8210    7.0850    0.0110 C.ar      1 B2L        -0.0709
      7 C7          0.1570    8.0860   -0.0230 C.ar      1 B2L        -0.0635
      8 C8         -0.1450    9.4190    0.3380 C.ar      1 B2L        -0.0176
      9 C9         -1.4700    9.7200    0.7420 C.ar      1 B2L         0.0032
     10 C10        -1.8300   11.0480    1.0700 C.ar      1 B2L        -0.0015
     11 C11        -0.8660   12.0680    1.0440 C.ar      1 B2L        -0.0526
     12 C12         0.4330   11.7720    0.6130 C.ar      1 B2L        -0.0567
     13 C13         0.8170   10.4610    0.2730 C.ar      1 B2L        -0.0029
     14 C14         2.1390   10.2860   -0.1670 C.ar      1 B2L         0.0365
     15 N15         3.1580   10.7770    0.5790 N.ar      1 B2L        -0.2670
     16 C16         2.4300    9.7690   -1.4440 C.ar      1 B2L        -0.0219
     17 C17         3.7660    9.6930   -1.8470 C.ar      1 B2L         0.0230
     18 C18         4.1410    9.0490   -3.1980 C.3       1 B2L        -0.0139
     19 N19         4.7400   10.1540   -1.0280 N.ar      1 B2L        -0.2618
     20 C20         4.4390   10.7120    0.1600 C.ar      1 B2L         0.1725
     21 N21         5.4180   11.1680    0.9380 N.pl3     1 B2L        -0.3058
     22 H1         -3.0881   12.0972    2.2779 H         1 B2L         0.0756
     23 H2         -3.7185   11.6795    0.6486 H         1 B2L         0.0756
     24 H3         -4.3691    9.1721    0.3345 H         1 B2L         0.0744
     25 H4         -4.1291    8.1460    1.7893 H         1 B2L         0.0744
     26 H5         -2.8596    6.5967    0.5224 H         1 B2L         0.0520
     27 H6         -0.5743    6.0772   -0.3029 H         1 B2L         0.0604
     28 H7          1.1651    7.8342   -0.3320 H         1 B2L         0.0532
     29 H8         -1.1244   13.0740    1.3542 H         1 B2L         0.0535
     30 H9          1.1608   12.5720    0.5393 H         1 B2L         0.0651
     31 H10         1.6342    9.4368   -2.1009 H         1 B2L         0.0581
     32 H11         5.2323    9.0855   -3.3312 H         1 B2L         0.0440
     33 H12         3.6533    9.6007   -4.0151 H         1 B2L         0.0440
     34 H13         3.8049    8.0017   -3.2108 H         1 B2L         0.0440
     35 H14         5.1956   11.5961    1.8480 H         1 B2L         0.1823
     36 H15         6.3980   11.0928    0.6300 H         1 B2L         0.1823
@<TRIPOS>BOND
     1    1    2 1  
     2    1   10 1  
     3    2    3 1  
     4    3    4 1  
     5    4    5 ar 
     6    4    9 ar 
     7    5    6 ar 
     8    6    7 ar 
     9    7    8 ar 
    10    8    9 ar 
    11    8   13 ar 
    12    9   10 ar 
    13   10   11 ar 
    14   11   12 ar 
    15   12   13 ar 
    16   13   14 1  
    17   14   15 ar 
    18   14   16 ar 
    19   15   20 ar 
    20   16   17 ar 
    21   17   18 1  
    22   17   19 ar 
    23   19   20 ar 
    24   20   21 1  
    25    1   22 1  
    26    1   23 1  
    27    3   24 1  
    28    3   25 1  
    29    5   26 1  
    30    6   27 1  
    31    7   28 1  
    32   11   29 1  
    33   12   30 1  
    34   16   31 1  
    35   18   32 1  
    36   18   33 1  
    37   18   34 1  
    38   21   35 1  
    39   21   36 1  
@<TRIPOS>SUBSTRUCTURE
     1 B2L         1

