### 
### Created by X-TOOL on Mon Sep 10 21:13:05 2018
### 

@<TRIPOS>MOLECULE
3b28_ligand
   36    39     1     0     0
SMALL
GAST_HUCK


@<TRIPOS>ATOM
      1 C1        -23.9080   23.2670  -22.9890 C.3       1 B2X         0.0907
      2 O2        -24.5700   23.9950  -24.0910 O.3       1 B2X        -0.3509
      3 C3        -25.5380   23.0720  -24.6350 C.3       1 B2X         0.0878
      4 C4        -26.5460   22.6340  -23.6990 C.ar      1 B2X        -0.0045
      5 C5        -27.8780   22.3890  -24.0700 C.ar      1 B2X        -0.0579
      6 C6        -28.8340   22.0500  -23.0900 C.ar      1 B2X        -0.0704
      7 C7        -28.4580   21.9560  -21.7480 C.ar      1 B2X        -0.0628
      8 C8        -27.1320   22.1980  -21.3490 C.ar      1 B2X        -0.0138
      9 C9        -26.1830   22.5640  -22.3360 C.ar      1 B2X         0.0053
     10 C10       -24.8500   22.8500  -21.9760 C.ar      1 B2X         0.0012
     11 C11       -24.4670   22.7890  -20.6430 C.ar      1 B2X        -0.0359
     12 C12       -25.3820   22.4130  -19.6680 C.ar      1 B2X         0.0514
     13 CL13      -24.7470   22.2560  -18.0450 Cl        1 B2X        -0.0629
     14 C14       -26.7200   22.1360  -19.9860 C.ar      1 B2X         0.0308
     15 C15       -27.6260   21.7480  -18.9440 C.ar      1 B2X         0.1058
     16 N16       -28.2540   20.5590  -18.9950 N.ar      1 B2X        -0.2485
     17 N17       -27.8410   22.5450  -17.8770 N.ar      1 B2X        -0.2396
     18 C18       -28.6480   22.1580  -16.8690 C.ar      1 B2X         0.1868
     19 N19       -28.8040   22.9630  -15.8310 N.pl3     1 B2X        -0.2997
     20 N22       -29.2520   20.9640  -16.9110 N.ar      1 B2X        -0.2226
     21 C23       -29.0880   20.2340  -17.9880 C.ar      1 B2X         0.1550
     22 S24       -29.8700   18.6920  -18.0000 S.3       1 B2X        -0.0559
     23 C25       -29.7550   18.1800  -19.7110 C.3       1 B2X         0.0034
     24 H         -23.1817   23.9350  -22.5260 H         1 B2X         0.0761
     25 H         -23.4352   22.3765  -23.4032 H         1 B2X         0.0761
     26 H         -24.9887   22.1842  -24.9483 H         1 B2X         0.0745
     27 H         -26.0569   23.5938  -25.4391 H         1 B2X         0.0745
     28 H         -28.1735   22.4609  -25.1167 H         1 B2X         0.0521
     29 H         -29.8675   21.8611  -23.3802 H         1 B2X         0.0609
     30 H         -29.2041   21.6910  -20.9988 H         1 B2X         0.0532
     31 H         -23.4440   23.0372  -20.3604 H         1 B2X         0.0546
     32 H         -28.3177   23.8592  -15.8030 H         1 B2X         0.1861
     33 H         -29.4106   22.6875  -15.0586 H         1 B2X         0.1861
     34 H         -30.2636   18.9089  -20.3420 H         1 B2X         0.0376
     35 H         -28.7060   18.1164  -20.0001 H         1 B2X         0.0376
     36 H         -30.2257   17.2040  -19.8293 H         1 B2X         0.0376
@<TRIPOS>BOND
     1    1    2 1  
     2    1   10 1  
     3    2    3 1  
     4    3    4 1  
     5    4    5 ar 
     6    4    9 ar 
     7    5    6 ar 
     8    6    7 ar 
     9    7    8 ar 
    10    8    9 ar 
    11    8   14 ar 
    12    9   10 ar 
    13   10   11 ar 
    14   11   12 ar 
    15   12   13 1  
    16   12   14 ar 
    17   14   15 1  
    18   15   16 ar 
    19   15   17 ar 
    20   16   21 ar 
    21   17   18 ar 
    22   18   19 1  
    23   18   20 ar 
    24   20   21 ar 
    25   21   22 1  
    26   22   23 1  
    27    1   24 1  
    28    1   25 1  
    29    3   26 1  
    30    3   27 1  
    31    5   28 1  
    32    6   29 1  
    33    7   30 1  
    34   11   31 1  
    35   19   32 1  
    36   19   33 1  
    37   23   34 1  
    38   23   35 1  
    39   23   36 1  
@<TRIPOS>SUBSTRUCTURE
     1 B2X         1

