### 
### Created by X-TOOL on Mon Sep 10 21:12:56 2018
### 

@<TRIPOS>MOLECULE
3b2w_ligand
   75    79     1     0     0
SMALL
GAST_HUCK


@<TRIPOS>ATOM
      1 C1         19.7580    3.5410   19.8200 C.3       1 9NH        -0.0139
      2 C2         17.9380    1.4070   16.4560 C.ar      1 9NH        -0.0526
      3 C3         20.9130    4.8100   18.1490 C.3       1 9NH        -0.0139
      4 N6         14.7510   -5.7290   14.2800 N.am      1 9NH        -0.2371
      5 C7          7.6060   -8.7440   11.3190 C.ar      1 9NH        -0.0138
      6 C8          6.5610   -8.8180   10.3370 C.ar      1 9NH        -0.0495
      7 C9          6.9020   -8.7700    8.9420 C.ar      1 9NH        -0.0481
      8 C10         8.2740   -8.6490    8.5090 C.ar      1 9NH         0.0684
      9 C11         9.2810   -8.5820    9.5520 C.ar      1 9NH         0.1889
     10 C12        12.8290   -6.6190   13.1900 C.ar      1 9NH        -0.0274
     11 C13        13.9260   -6.7880   14.0710 C.ar      1 9NH         0.0736
     12 C14         8.6800   -8.5810    7.0250 C.3       1 9NH         0.3715
     13 C15        14.1540   -8.0490   14.7320 C.ar      1 9NH        -0.0192
     14 C16        15.3390   -8.1580   15.6400 C.3       1 9NH        -0.0328
     15 C19        16.4360   -3.4860   14.7090 C.ar      1 9NH         0.1893
     16 C20        18.3240   -2.3820   14.0540 C.ar      1 9NH         0.2005
     17 C21        15.2130   -2.5220   16.4890 C.3       1 9NH         0.0674
     18 C22        13.2950   -9.2120   14.5530 C.ar      1 9NH        -0.0675
     19 C24        11.9580   -7.7510   12.9840 C.ar      1 9NH         0.0351
     20 C27        15.8140   -5.5530   13.4730 C.2       1 9NH         0.2293
     21 C30        20.4920    1.4520   16.0360 C.ar      1 9NH        -0.0526
     22 C31        19.0780   -0.2210   14.9330 C.ar      1 9NH         0.0541
     23 C23        12.1750   -9.0510   13.6580 C.ar      1 9NH        -0.0633
     24 C25        10.8430   -7.5340   12.0170 C.2       1 9NH         0.2232
     25 N3          9.9160   -8.5310   11.9460 N.am      1 9NH        -0.2283
     26 C26         8.9790   -8.6240   10.9480 C.ar      1 9NH         0.1311
     27 F1          7.6230   -8.7210    6.2490 F         1 9NH        -0.2241
     28 F3          9.5020   -9.6040    6.7670 F         1 9NH        -0.2241
     29 F2          9.2900   -7.3990    6.7540 F         1 9NH        -0.2241
     30 N1         18.6700   -3.3050   13.1440 N.ar      1 9NH        -0.2597
     31 C17        17.8930   -4.3660   12.9690 C.ar      1 9NH         0.0249
     32 C18        16.7150   -4.4750   13.7660 C.ar      1 9NH         0.1221
     33 N4         17.2330   -2.4520   14.8440 N.ar      1 9NH        -0.2202
     34 N7         19.1220   -1.3010   14.0840 N.pl3     1 9NH        -0.2487
     35 F4         10.5520   -8.4690    9.2270 F         1 9NH        -0.1655
     36 O1         16.0150   -6.2550   12.5000 O.2       1 9NH        -0.3812
     37 O2         10.7770   -6.5320   11.3110 O.2       1 9NH        -0.3768
     38 O3         15.3690   -3.5760   15.5370 O.3       1 9NH        -0.2916
     39 C28        17.8560    0.3060   15.5740 C.ar      1 9NH        -0.0485
     40 C29        19.2670    1.9490   16.6610 C.ar      1 9NH         0.0299
     41 C5         20.3850    0.3380   15.1480 C.ar      1 9NH        -0.0485
     42 N2         19.9790    4.9220   19.3120 N.4       1 9NH         0.2297
     43 C4         20.0920    4.2150   17.0130 C.3       1 9NH         0.0649
     44 N5         19.3620    3.0120   17.4910 N.pl3     1 9NH        -0.3044
     45 C6         18.7520    2.9650   18.8430 C.3       1 9NH         0.0649
     46 H1         19.3499    3.5577   20.8413 H         1 9NH         0.0833
     47 H2         20.6937    2.9627   19.8084 H         1 9NH         0.0833
     48 H3         17.0642    1.8195   16.9473 H         1 9NH         0.0490
     49 H4         21.7571    4.1501   18.3979 H         1 9NH         0.0833
     50 H5         21.2942    5.8025   17.8669 H         1 9NH         0.0833
     51 H6         14.5705   -5.0872   15.0253 H         1 9NH         0.2226
     52 H7          7.3451   -8.7803   12.3705 H         1 9NH         0.0727
     53 H8          5.5256   -8.9091   10.6449 H         1 9NH         0.0629
     54 H9          6.1136   -8.8257    8.2001 H         1 9NH         0.0705
     55 H10        12.6507   -5.6742   12.6893 H         1 9NH         0.0529
     56 H11        15.3812   -9.1705   16.0678 H         1 9NH         0.0372
     57 H12        15.2484   -7.4207   16.4512 H         1 9NH         0.0372
     58 H13        16.2583   -7.9630   15.0682 H         1 9NH         0.0372
     59 H14        14.3165   -2.7082   17.0986 H         1 9NH         0.0592
     60 H15        15.1043   -1.5635   15.9604 H         1 9NH         0.0592
     61 H16        16.0980   -2.4828   17.1410 H         1 9NH         0.0592
     62 H17        13.4871  -10.1481   15.0648 H         1 9NH         0.0527
     63 H18        21.4510    1.9143   16.2400 H         1 9NH         0.0490
     64 H19        11.4962   -9.8773   13.4801 H         1 9NH         0.0525
     65 H20         9.9191   -9.2319   12.6593 H         1 9NH         0.2242
     66 H21        18.1461   -5.1283   12.2411 H         1 9NH         0.0913
     67 H22        19.8680   -1.2789   13.3742 H         1 9NH         0.2160
     68 H23        16.8955   -0.1522   15.3676 H         1 9NH         0.0508
     69 H24        21.2586   -0.0714   14.6537 H         1 9NH         0.0508
     70 H25        20.3891    5.4954   20.0325 H         1 9NH         0.2015
     71 H26        19.1045    5.3274   19.0170 H         1 9NH         0.2015
     72 H27        20.7626    3.9308   16.1887 H         1 9NH         0.0562
     73 H28        19.3683    4.9625   16.6559 H         1 9NH         0.0562
     74 H29        17.8289    3.5629   18.8589 H         1 9NH         0.0562
     75 H30        18.5196    1.9245   19.1136 H         1 9NH         0.0562
@<TRIPOS>BOND
     1   42    1 1  
     2    1   45 1  
     3    2   39 ar 
     4   40    2 ar 
     5    3   42 1  
     6   43    3 1  
     7    4   11 1  
     8   20    4 am 
     9    5    6 ar 
    10   26    5 ar 
    11    6    7 ar 
    12    8    7 ar 
    13    9    8 ar 
    14    8   12 1  
    15   26    9 ar 
    16    9   35 1  
    17   11   10 ar 
    18   10   19 ar 
    19   11   13 ar 
    20   12   27 1  
    21   12   28 1  
    22   12   29 1  
    23   13   14 1  
    24   13   18 ar 
    25   15   32 ar 
    26   33   15 ar 
    27   15   38 1  
    28   16   30 ar 
    29   16   33 ar 
    30   34   16 1  
    31   38   17 1  
    32   18   23 ar 
    33   19   23 ar 
    34   19   24 1  
    35   32   20 1  
    36   20   36 2  
    37   40   21 ar 
    38   21   41 ar 
    39   22   34 1  
    40   39   22 ar 
    41   41   22 ar 
    42   24   25 am 
    43   24   37 2  
    44   25   26 1  
    45   30   31 ar 
    46   31   32 ar 
    47   44   40 1  
    48   43   44 1  
    49   44   45 1  
    50    1   46 1  
    51    1   47 1  
    52    2   48 1  
    53    3   49 1  
    54    3   50 1  
    55    4   51 1  
    56    5   52 1  
    57    6   53 1  
    58    7   54 1  
    59   10   55 1  
    60   14   56 1  
    61   14   57 1  
    62   14   58 1  
    63   17   59 1  
    64   17   60 1  
    65   17   61 1  
    66   18   62 1  
    67   21   63 1  
    68   23   64 1  
    69   25   65 1  
    70   31   66 1  
    71   34   67 1  
    72   39   68 1  
    73   41   69 1  
    74   42   70 1  
    75   42   71 1  
    76   43   72 1  
    77   43   73 1  
    78   45   74 1  
    79   45   75 1  
@<TRIPOS>SUBSTRUCTURE
     1 9NH         1

