### 
### Created by X-TOOL on Mon Sep 10 21:12:56 2018
### 

@<TRIPOS>MOLECULE
3b3x_ligand
   20    19     1     0     0
SMALL
GAST_HUCK


@<TRIPOS>ATOM
      1 C1         52.2260   45.7470  -18.0300 C.2       1 A33         0.0401
      2 C2         50.7880   46.0730  -18.4720 C.3       1 A33         0.0529
      3 C3         50.0200   47.1040  -17.6030 C.3       1 A33         0.0552
      4 C4         50.6530   48.4980  -17.5640 C.3       1 A33         0.0529
      5 C5         49.7930   49.6530  -18.1230 C.2       1 A33         0.0401
      6 O92        49.9880   46.9750  -15.1810 O.co2     1 A33        -0.5420
      7 C9         49.9220   46.3950  -16.2880 C.2       1 A33         0.0995
      8 O91        49.7790   45.1720  -16.4100 O.co2     1 A33        -0.5420
      9 O12        52.4630   45.4090  -16.8270 O.co2     1 A33        -0.5689
     10 O11        53.1630   45.8180  -18.8850 O.co2     1 A33        -0.5689
     11 NZ         48.6510   47.3150  -18.0410 N.4       1 A33         0.2254
     12 O51        49.5400   49.6980  -19.3480 O.co2     1 A33        -0.5689
     13 O52        49.3730   50.5800  -17.3860 O.co2     1 A33        -0.5689
     14 H1         50.2140   45.1347  -18.4648 H         1 A33         0.0483
     15 H2         50.8337   46.4671  -19.4980 H         1 A33         0.0483
     16 H3         51.5845   48.4602  -18.1478 H         1 A33         0.0483
     17 H4         50.8870   48.7312  -16.5148 H         1 A33         0.0483
     18 H5         48.1731   46.4288  -18.0887 H         1 A33         0.2001
     19 H6         48.6524   47.7454  -18.9525 H         1 A33         0.2001
     20 H7         48.1776   47.9172  -17.3858 H         1 A33         0.2001
@<TRIPOS>BOND
     1    1    2 1  
     2    1    9 ar 
     3    1   10 ar 
     4    2    3 1  
     5    3    4 1  
     6    3    7 1  
     7    3   11 1  
     8    4    5 1  
     9    5   12 ar 
    10    5   13 ar 
    11    7    6 ar 
    12    7    8 ar 
    13    2   14 1  
    14    2   15 1  
    15    4   16 1  
    16    4   17 1  
    17   11   18 1  
    18   11   19 1  
    19   11   20 1  
@<TRIPOS>SUBSTRUCTURE
     1 A33         1

