### 
### Created by X-TOOL on Mon Sep 10 21:12:58 2018
### 

@<TRIPOS>MOLECULE
3b4f_ligand
   38    40     1     0     0
SMALL
GAST_HUCK


@<TRIPOS>ATOM
      1 CAE        -2.4140    1.6580   11.2490 C.ar      1 TUO        -0.0608
      2 CAA        -1.9940    0.4340   10.7000 C.ar      1 TUO        -0.0659
      3 CAB        -2.8160   -0.6950   10.7670 C.ar      1 TUO        -0.0659
      4 CAC        -4.0750   -0.6110   11.3640 C.ar      1 TUO        -0.0659
      5 CAG        -4.4930    0.6050   11.8950 C.ar      1 TUO        -0.0608
      6 CAF        -3.6840    1.7580   11.8330 C.ar      1 TUO        -0.0319
      7 CAN        -4.1570    2.9510   12.4100 C.2       1 TUO         0.0101
      8 CAM        -4.7460    2.9690   13.6630 C.ar      1 TUO        -0.0043
      9 CAL        -5.0200    1.9580   14.5960 C.ar      1 TUO        -0.0427
     10 CAK        -5.6280    2.3050   15.7980 C.ar      1 TUO         0.0942
     11 SAJ        -6.1020    1.2520   17.1160 S.o2      1 TUO         0.0607
     12 OAS        -5.2090    0.8740   18.2180 O.2       1 TUO        -0.1518
     13 OAD        -7.5510    1.0130   17.0290 O.2       1 TUO        -0.1518
     14 NAI        -5.6520   -0.1380   16.4070 N.am      1 TUO        -0.2620
     15 CAT        -5.9790    3.6350   16.0300 C.ar      1 TUO        -0.0467
     16 CAU        -5.7020    4.6350   15.1040 C.ar      1 TUO        -0.0374
     17 CAV        -5.0820    4.3000   13.9150 C.ar      1 TUO         0.0711
     18 NAW        -4.7130    5.0600   12.8800 N.pl3     1 TUO        -0.2627
     19 CAO        -4.1610    4.2810   11.9520 C.2       1 TUO         0.1506
     20 CAP        -3.6340    4.9130   10.6450 C.2       1 TUO         0.2666
     21 OAH        -3.1760    6.0570   10.6680 O.2       1 TUO        -0.3785
     22 NAQ        -3.7040    4.2100    9.5330 N.am      1 TUO        -0.2554
     23 NAR        -4.2070    2.9650    9.4790 N.4       1 TUO         0.3583
     24 H1         -1.7584    2.5208   11.2208 H         1 TUO         0.0583
     25 H2         -1.0243    0.3648   10.2205 H         1 TUO         0.0606
     26 H3         -2.4749   -1.6376   10.3544 H         1 TUO         0.0583
     27 H4         -4.7186   -1.4819   11.4132 H         1 TUO         0.0606
     28 H5         -5.4660    0.6676   12.3687 H         1 TUO         0.0583
     29 H6         -4.7629    0.9264   14.3844 H         1 TUO         0.0581
     30 H7         -5.7760   -1.0068   16.8864 H         1 TUO         0.1634
     31 H8         -5.2509   -0.1251   15.4910 H         1 TUO         0.1634
     32 H9         -6.4802    3.8956   16.9552 H         1 TUO         0.0573
     33 H10        -5.9691    5.6647   15.3122 H         1 TUO         0.0553
     34 H11        -4.8354    6.0804   12.8113 H         1 TUO         0.2286
     35 H12        -3.3662    4.6232    8.6874 H         1 TUO         0.2370
     36 H13        -4.1600    2.6245    8.5314 H         1 TUO         0.2245
     37 H14        -5.1675    2.9771    9.7844 H         1 TUO         0.2245
     38 H15        -3.6707    2.3595   10.0806 H         1 TUO         0.2245
@<TRIPOS>BOND
     1    1    2 ar 
     2    1    6 ar 
     3    2    3 ar 
     4    3    4 ar 
     5    4    5 ar 
     6    5    6 ar 
     7    6    7 1  
     8    7    8 1  
     9    7   19 2  
    10    8    9 ar 
    11    8   17 ar 
    12    9   10 ar 
    13   10   11 1  
    14   10   15 ar 
    15   11   12 2  
    16   11   13 2  
    17   11   14 am 
    18   15   16 ar 
    19   16   17 ar 
    20   17   18 1  
    21   18   19 1  
    22   19   20 1  
    23   20   21 2  
    24   20   22 am 
    25   22   23 1  
    26    1   24 1  
    27    2   25 1  
    28    3   26 1  
    29    4   27 1  
    30    5   28 1  
    31    9   29 1  
    32   14   30 1  
    33   14   31 1  
    34   15   32 1  
    35   16   33 1  
    36   18   34 1  
    37   22   35 1  
    38   23   36 1  
    39   23   37 1  
    40   23   38 1  
@<TRIPOS>SUBSTRUCTURE
     1 TUO         1

