### 
### Created by X-TOOL on Mon Sep 10 21:12:57 2018
### 

@<TRIPOS>MOLECULE
3b4p_ligand
   32    33     1     0     0
SMALL
GAST_HUCK


@<TRIPOS>ATOM
      1 CAJ        41.7840    0.0650   92.8670 C.3       1 3B4        -0.0304
      2 CAH        42.2500   -1.3750   92.7860 C.3       1 3B4        -0.0510
      3 CAG        41.1000   -2.2780   92.2790 C.3       1 3B4        -0.0529
      4 CAI        40.5000   -1.8310   91.0180 C.3       1 3B4        -0.0510
      5 CAK        40.2170   -0.3180   91.0040 C.3       1 3B4        -0.0304
      6 CAP        41.4200    0.5530   91.5720 C.3       1 3B4         0.0360
      7 NAL        40.8630    1.9650   91.6760 N.pl3     1 3B4        -0.3170
      8 CAN        41.5550    2.9200   92.4130 C.ar      1 3B4         0.0533
      9 CAE        42.8640    3.1700   92.0240 C.ar      1 3B4        -0.0405
     10 CAC        43.5890    4.1180   92.6800 C.ar      1 3B4        -0.0709
     11 CAD        43.0420    4.8160   93.7290 C.ar      1 3B4        -0.0714
     12 CAF        41.7200    4.6100   94.1170 C.ar      1 3B4        -0.0592
     13 CAO        40.9560    3.6270   93.4680 C.ar      1 3B4         0.0273
     14 CAM        39.5210    3.3710   93.8690 C.2       1 3B4         0.0559
     15 OAB        39.1530    3.8620   94.9270 O.co2     1 3B4        -0.5650
     16 OAA        38.7870    2.7530   93.1230 O.co2     1 3B4        -0.5650
     17 H1         42.5975    0.6855   93.2710 H         1 3B4         0.0287
     18 H2         40.9112    0.1250   93.5338 H         1 3B4         0.0287
     19 H3         42.5644   -1.7125   93.7846 H         1 3B4         0.0266
     20 H4         43.1000   -1.4439   92.0912 H         1 3B4         0.0266
     21 H5         40.3132   -2.2997   93.0474 H         1 3B4         0.0265
     22 H6         41.4970   -3.2933   92.1319 H         1 3B4         0.0265
     23 H7         39.5521   -2.3686   90.8682 H         1 3B4         0.0266
     24 H8         41.1903   -2.0684   90.1951 H         1 3B4         0.0266
     25 H9         39.3253   -0.1240   91.6182 H         1 3B4         0.0287
     26 H10        40.0219   -0.0090   89.9665 H         1 3B4         0.0287
     27 H11        42.2884    0.5207   90.8976 H         1 3B4         0.0550
     28 H12        39.9810    2.2115   91.2046 H         1 3B4         0.1774
     29 H13        43.3057    2.6149   91.2044 H         1 3B4         0.0523
     30 H14        44.6076    4.3237   92.3714 H         1 3B4         0.0604
     31 H15        43.6485    5.5384   94.2632 H         1 3B4         0.0513
     32 H16        41.2850    5.2035   94.9130 H         1 3B4         0.0616
@<TRIPOS>BOND
     1    1    2 1  
     2    1    6 1  
     3    2    3 1  
     4    3    4 1  
     5    4    5 1  
     6    5    6 1  
     7    6    7 1  
     8    7    8 1  
     9    8    9 ar 
    10    8   13 ar 
    11    9   10 ar 
    12   10   11 ar 
    13   11   12 ar 
    14   12   13 ar 
    15   13   14 1  
    16   14   15 ar 
    17   14   16 ar 
    18    1   17 1  
    19    1   18 1  
    20    2   19 1  
    21    2   20 1  
    22    3   21 1  
    23    3   22 1  
    24    4   23 1  
    25    4   24 1  
    26    5   25 1  
    27    5   26 1  
    28    6   27 1  
    29    7   28 1  
    30    9   29 1  
    31   10   30 1  
    32   11   31 1  
    33   12   32 1  
@<TRIPOS>SUBSTRUCTURE
     1 3B4         1

