### 
### Created by X-TOOL on Mon Sep 10 21:12:55 2018
### 

@<TRIPOS>MOLECULE
3b50_ligand
   39    39     1     0     0
SMALL
GAST_HUCK


@<TRIPOS>ATOM
      1 C1          7.7790   -9.5130  -11.1610 C.2       1 SLB         0.1039
      2 C2          9.0520   -9.2390  -11.9040 C.3       1 SLB         0.2179
      3 C3         10.1800   -8.7400  -11.0090 C.3       1 SLB         0.0351
      4 C4         11.3590   -8.2780  -11.8590 C.3       1 SLB         0.0850
      5 C5         10.8240   -7.1970  -12.8110 C.3       1 SLB         0.0964
      6 C6          9.7250   -7.8030  -13.6960 C.3       1 SLB         0.1143
      7 C7          9.1030   -6.7920  -14.6600 C.3       1 SLB         0.1114
      8 C8          7.9550   -7.4210  -15.4450 C.3       1 SLB         0.1065
      9 C9          7.3850   -6.4740  -16.4860 C.3       1 SLB         0.0727
     10 C10        12.4520   -5.4880  -13.5230 C.2       1 SLB         0.1733
     11 C11        13.5640   -5.1490  -14.4890 C.3       1 SLB         0.0257
     12 N5         11.9210   -6.7250  -13.6610 N.am      1 SLB        -0.2790
     13 O1A         7.3530  -10.6830  -11.1010 O.co2     1 SLB        -0.5426
     14 O1B         7.1790   -8.5230  -10.6660 O.co2     1 SLB        -0.5426
     15 O2          9.4450  -10.3810  -12.6470 O.3       1 SLB        -0.3631
     16 O4         12.3790   -7.8060  -10.9690 O.3       1 SLB        -0.3893
     17 O6          8.6920   -8.2590  -12.8420 O.3       1 SLB        -0.3385
     18 O7          8.6140   -5.6730  -13.9380 O.3       1 SLB        -0.3865
     19 O8          8.3910   -8.6280  -16.0380 O.3       1 SLB        -0.3869
     20 O9          8.3560   -5.9950  -17.4350 O.3       1 SLB        -0.3924
     21 O10        12.0820   -4.6860  -12.6420 O.2       1 SLB        -0.3974
     22 H1         10.5066   -9.5553  -10.3467 H         1 SLB         0.0336
     23 H2          9.8171   -7.8975  -10.4020 H         1 SLB         0.0336
     24 H3         11.7578   -9.1157  -12.4500 H         1 SLB         0.0618
     25 H4         10.4141   -6.3576  -12.2301 H         1 SLB         0.0608
     26 H5         10.1450   -8.6414  -14.2710 H         1 SLB         0.0646
     27 H6          9.8758   -6.4552  -15.3666 H         1 SLB         0.0647
     28 H7          7.1496   -7.6595  -14.7348 H         1 SLB         0.0643
     29 H8          6.9531   -5.6067  -15.9653 H         1 SLB         0.0584
     30 H9          6.5933   -7.0021  -17.0377 H         1 SLB         0.0584
     31 H10        13.9223   -4.1278  -14.2919 H         1 SLB         0.0467
     32 H11        13.1860   -5.2123  -15.5201 H         1 SLB         0.0467
     33 H12        14.3930   -5.8600  -14.3580 H         1 SLB         0.0467
     34 H13        12.2877   -7.3350  -14.3634 H         1 SLB         0.1856
     35 H14         8.7177  -10.6742  -13.1834 H         1 SLB         0.2112
     36 H15        13.1154   -7.4838  -11.4755 H         1 SLB         0.2099
     37 H16         7.9341   -5.9570  -13.3383 H         1 SLB         0.2100
     38 H17         9.0661   -8.4388  -16.6790 H         1 SLB         0.2100
     39 H18         8.7318   -6.7324  -17.9014 H         1 SLB         0.2095
@<TRIPOS>BOND
     1    2    1 1  
     2    1   13 ar 
     3    1   14 ar 
     4    3    2 1  
     5    2   15 1  
     6   17    2 1  
     7    4    3 1  
     8    5    4 1  
     9    4   16 1  
    10    5    6 1  
    11   12    5 1  
    12    6    7 1  
    13    6   17 1  
    14    7    8 1  
    15    7   18 1  
    16    8    9 1  
    17    8   19 1  
    18    9   20 1  
    19   10   11 1  
    20   10   12 am 
    21   10   21 2  
    22    3   22 1  
    23    3   23 1  
    24    4   24 1  
    25    5   25 1  
    26    6   26 1  
    27    7   27 1  
    28    8   28 1  
    29    9   29 1  
    30    9   30 1  
    31   11   31 1  
    32   11   32 1  
    33   11   33 1  
    34   12   34 1  
    35   15   35 1  
    36   16   36 1  
    37   18   37 1  
    38   19   38 1  
    39   20   39 1  
@<TRIPOS>SUBSTRUCTURE
     1 SLB         1

