### 
### Created by X-TOOL on Mon Sep 10 21:12:59 2018
### 

@<TRIPOS>MOLECULE
3b5r_ligand
   41    42     1     0     0
SMALL
GAST_HUCK


@<TRIPOS>ATOM
      1 C21        29.5630   -0.6500    8.0000 C.ar      1 B5R         0.0007
      2 C20        29.5860   -0.8310    9.3790 C.ar      1 B5R         0.1381
      3 F20        29.7060   -2.0930    9.8420 F         1 B5R        -0.1855
      4 C19        29.4810    0.2740   10.2230 C.ar      1 B5R         0.0615
      5 CL19       29.4480    0.1230   11.9470 Cl        1 B5R        -0.0824
      6 C18        29.3670    1.5500    9.6770 C.ar      1 B5R        -0.0583
      7 C17        29.3430    1.7330    8.2980 C.ar      1 B5R        -0.0364
      8 C16        29.4300    0.6260    7.4590 C.ar      1 B5R         0.0896
      9 O14        29.1890    0.7630    6.1290 O.3       1 B5R        -0.3170
     10 C13        30.3680    0.9100    5.3260 C.3       1 B5R         0.1065
     11 C11        29.8990    0.8780    3.8800 C.3       1 B5R         0.1760
     12 O11        30.8690    1.5460    3.0700 O.3       1 B5R        -0.3816
     13 C12        29.7260   -0.5710    3.4190 C.3       1 B5R        -0.0261
     14 C10        28.5650    1.6230    3.7980 C.2       1 B5R         0.2598
     15 O10        27.5010    1.0160    3.9160 O.2       1 B5R        -0.3299
     16 N9         28.6810    2.9400    3.6410 N.am      1 B5R        -0.2188
     17 C6         27.6780    3.8130    3.5630 C.ar      1 B5R         0.1074
     18 C5         26.3380    3.4700    3.7330 C.ar      1 B5R         0.0010
     19 C1         28.0190    5.1500    3.3910 C.ar      1 B5R        -0.0005
     20 C2         27.0230    6.1190    3.3990 C.ar      1 B5R        -0.0119
     21 C3         25.6890    5.7640    3.5760 C.ar      1 B5R         0.1068
     22 C8         24.7430    6.8380    3.5720 C.1       1 B5R         0.1050
     23 N8         24.0010    7.7010    3.5600 N.1       1 B5R        -0.3259
     24 C4         25.3200    4.4270    3.7470 C.ar      1 B5R         0.0666
     25 C7         23.8660    3.9940    4.0180 C.3       1 B5R         0.3787
     26 F2         22.9710    4.6510    3.2850 F         1 B5R        -0.2186
     27 F1         23.6550    2.7090    3.7480 F         1 B5R        -0.2186
     28 F3         23.5610    4.1870    5.2970 F         1 B5R        -0.2186
     29 H1         29.6491   -1.5076    7.3426 H         1 B5R         0.0527
     30 H2         29.2962    2.4098   10.3334 H         1 B5R         0.0586
     31 H3         29.2572    2.7297    7.8805 H         1 B5R         0.0510
     32 H4         31.0671    0.0830    5.5191 H         1 B5R         0.0628
     33 H5         30.8629    1.8675    5.5458 H         1 B5R         0.0628
     34 H6         31.7053    1.1024    3.1488 H         1 B5R         0.2080
     35 H7         29.3868   -0.5848    2.3727 H         1 B5R         0.0244
     36 H8         28.9791   -1.0709    4.0532 H         1 B5R         0.0244
     37 H9         30.6877   -1.0988    3.4996 H         1 B5R         0.0244
     38 H10        29.6083    3.3084    3.5755 H         1 B5R         0.2319
     39 H11        26.0766    2.4255    3.8586 H         1 B5R         0.0781
     40 H12        29.0556    5.4347    3.2515 H         1 B5R         0.0767
     41 H13        27.2877    7.1617    3.2661 H         1 B5R         0.0766
@<TRIPOS>BOND
     1    1    2 ar 
     2    1    8 ar 
     3    2    3 1  
     4    2    4 ar 
     5    4    5 1  
     6    4    6 ar 
     7    6    7 ar 
     8    7    8 ar 
     9    8    9 1  
    10    9   10 1  
    11   10   11 1  
    12   11   12 1  
    13   11   13 1  
    14   11   14 1  
    15   14   15 2  
    16   14   16 am 
    17   16   17 1  
    18   17   18 ar 
    19   17   19 ar 
    20   18   24 ar 
    21   19   20 ar 
    22   20   21 ar 
    23   21   22 1  
    24   21   24 ar 
    25   22   23 3  
    26   24   25 1  
    27   25   26 1  
    28   25   27 1  
    29   25   28 1  
    30    1   29 1  
    31    6   30 1  
    32    7   31 1  
    33   10   32 1  
    34   10   33 1  
    35   12   34 1  
    36   13   35 1  
    37   13   36 1  
    38   13   37 1  
    39   16   38 1  
    40   18   39 1  
    41   19   40 1  
    42   20   41 1  
@<TRIPOS>SUBSTRUCTURE
     1 B5R         1

