### 
### Created by X-TOOL on Mon Sep 10 21:12:59 2018
### 

@<TRIPOS>MOLECULE
3b65_ligand
   39    40     1     0     0
SMALL
GAST_HUCK


@<TRIPOS>ATOM
      1 C5         26.2140    3.3820    3.9210 C.ar      1 3B6        -0.0169
      2 C4         25.2350    4.3730    3.8580 C.ar      1 3B6         0.0314
      3 I7         23.2180    3.8780    4.1630 I         1 3B6        -0.0434
      4 C3         25.6120    5.6870    3.6050 C.ar      1 3B6         0.0897
      5 C8         24.6460    6.7400    3.5080 C.1       1 3B6         0.0861
      6 N8         23.8880    7.5820    3.4250 N.1       1 3B6        -0.3397
      7 C2         26.9540    6.0080    3.4220 C.ar      1 3B6        -0.0374
      8 C1         27.9250    5.0150    3.4860 C.ar      1 3B6        -0.0258
      9 C6         27.5590    3.6950    3.7360 C.ar      1 3B6         0.0818
     10 N9         28.5410    2.7940    3.7680 N.am      1 3B6        -0.2235
     11 C10        28.4020    1.4870    3.9760 C.2       1 3B6         0.2600
     12 O10        27.3320    0.9180    4.1860 O.2       1 3B6        -0.3296
     13 C11        29.7190    0.7060    3.9600 C.3       1 3B6         0.1765
     14 O11        30.7670    1.5730    3.5180 O.3       1 3B6        -0.3816
     15 C12        29.5970   -0.4990    3.0240 C.3       1 3B6        -0.0260
     16 C13        30.0200    0.2180    5.3690 C.3       1 3B6         0.1090
     17 O14        30.1290    1.3470    6.2520 O.3       1 3B6        -0.3094
     18 C16        29.8710    1.0640    7.5600 C.ar      1 3B6         0.1019
     19 C17        30.2320   -0.1510    8.1380 C.ar      1 3B6        -0.0208
     20 C18        29.9980   -0.3860    9.4900 C.ar      1 3B6        -0.0352
     21 C19        29.4010    0.5970   10.2720 C.ar      1 3B6         0.0840
     22 C22        29.2150    0.3850   11.6760 C.1       1 3B6         0.0889
     23 N22        29.0720    0.2250   12.7930 N.1       1 3B6        -0.3372
     24 C20        29.0320    1.8110    9.6980 C.ar      1 3B6        -0.0352
     25 C21        29.2670    2.0430    8.3460 C.ar      1 3B6        -0.0208
     26 H1         25.9251    2.3556    4.1163 H         1 3B6         0.0568
     27 H2         27.2428    7.0349    3.2291 H         1 3B6         0.0685
     28 H3         28.9688    5.2688    3.3410 H         1 3B6         0.0555
     29 H4         29.4705    3.1325    3.6218 H         1 3B6         0.2322
     30 H5         31.5879    1.0949    3.5055 H         1 3B6         0.2080
     31 H6         30.5459   -1.0554    3.0171 H         1 3B6         0.0244
     32 H7         29.3687   -0.1508    2.0058 H         1 3B6         0.0244
     33 H8         28.7888   -1.1568    3.3764 H         1 3B6         0.0244
     34 H9         30.9674   -0.3409    5.3693 H         1 3B6         0.0633
     35 H10        29.2067   -0.4387    5.7116 H         1 3B6         0.0633
     36 H11        30.6982   -0.9186    7.5309 H         1 3B6         0.0571
     37 H12        30.2808   -1.3342    9.9328 H         1 3B6         0.0692
     38 H13        28.5613    2.5760   10.3048 H         1 3B6         0.0692
     39 H14        28.9789    2.9893    7.9027 H         1 3B6         0.0571
@<TRIPOS>BOND
     1    1    2 ar 
     2    1    9 ar 
     3    2    3 1  
     4    2    4 ar 
     5    4    5 1  
     6    4    7 ar 
     7    5    6 3  
     8    7    8 ar 
     9    8    9 ar 
    10    9   10 1  
    11   10   11 am 
    12   11   12 2  
    13   11   13 1  
    14   13   14 1  
    15   13   15 1  
    16   13   16 1  
    17   16   17 1  
    18   17   18 1  
    19   18   19 ar 
    20   18   25 ar 
    21   19   20 ar 
    22   20   21 ar 
    23   21   22 1  
    24   21   24 ar 
    25   22   23 3  
    26   24   25 ar 
    27    1   26 1  
    28    7   27 1  
    29    8   28 1  
    30   10   29 1  
    31   14   30 1  
    32   15   31 1  
    33   15   32 1  
    34   15   33 1  
    35   16   34 1  
    36   16   35 1  
    37   19   36 1  
    38   20   37 1  
    39   24   38 1  
    40   25   39 1  
@<TRIPOS>SUBSTRUCTURE
     1 3B6         1

