### 
### Created by X-TOOL on Mon Sep 10 21:12:58 2018
### 

@<TRIPOS>MOLECULE
3b66_ligand
   43    44     1     0     0
SMALL
GAST_HUCK


@<TRIPOS>ATOM
      1 C17        28.9970    2.0250    8.0780 C.ar      1 B66        -0.0241
      2 C18        28.7690    1.8740    9.4420 C.ar      1 B66        -0.0271
      3 C21        29.4310    0.8790   10.1560 C.ar      1 B66         0.1882
      4 N19        29.1910    0.7140   11.4540 N.2       1 B66         0.3062
      5 O20        29.9060   -0.2640   12.1960 O.2       1 B66         0.1732
      6 O19        28.2450    1.5410   12.1200 O.2       1 B66         0.1732
      7 C20        30.3220    0.0360    9.4960 C.ar      1 B66        -0.0271
      8 C19        30.5480    0.1870    8.1310 C.ar      1 B66        -0.0241
      9 C16        29.8860    1.1820    7.4160 C.ar      1 B66         0.0980
     10 O14        30.1260    1.3920    6.0930 O.3       1 B66        -0.3119
     11 C13        30.1390    0.1900    5.3060 C.3       1 B66         0.1081
     12 C11        29.7610    0.5660    3.8830 C.3       1 B66         0.1762
     13 O11        30.7790    1.4060    3.3330 O.3       1 B66        -0.3816
     14 C12        29.6010   -0.7010    3.0400 C.3       1 B66        -0.0261
     15 C10        28.4450    1.3450    3.9240 C.2       1 B66         0.2599
     16 O10        27.3800    0.7850    4.1810 O.2       1 B66        -0.3299
     17 N9         28.5940    2.6500    3.7080 N.am      1 B66        -0.2188
     18 C6         27.6250    3.5650    3.6920 C.ar      1 B66         0.1074
     19 C5         26.2820    3.2660    3.9120 C.ar      1 B66         0.0010
     20 C1         27.9940    4.8830    3.4500 C.ar      1 B66        -0.0005
     21 C2         27.0230    5.8770    3.4310 C.ar      1 B66        -0.0119
     22 C3         25.6850    5.5650    3.6540 C.ar      1 B66         0.1068
     23 C8         24.7650    6.6620    3.6250 C.1       1 B66         0.1050
     24 N8         24.0390    7.5380    3.5940 N.1       1 B66        -0.3259
     25 C4         25.2890    4.2470    3.8990 C.ar      1 B66         0.0666
     26 C7         23.8300    3.8490    4.1950 C.3       1 B66         0.3787
     27 F2         23.5590    4.0570    5.4800 F         1 B66        -0.2186
     28 F3         22.9440    4.5270    3.4710 F         1 B66        -0.2186
     29 F1         23.5910    2.5650    3.9400 F         1 B66        -0.2186
     30 H1         28.4800    2.8028    7.5277 H         1 B66         0.0561
     31 H2         28.0741    2.5328    9.9502 H         1 B66         0.0666
     32 H3         30.8409   -0.7399   10.0471 H         1 B66         0.0666
     33 H4         31.2420   -0.4724    7.6224 H         1 B66         0.0561
     34 H5         29.4115   -0.5298    5.7092 H         1 B66         0.0631
     35 H6         31.1440   -0.2569    5.3211 H         1 B66         0.0631
     36 H7         31.6064    0.9392    3.3311 H         1 B66         0.2080
     37 H8         29.3275   -0.4246    2.0110 H         1 B66         0.0244
     38 H9         28.8105   -1.3319    3.4726 H         1 B66         0.0244
     39 H10        30.5499   -1.2572    3.0303 H         1 B66         0.0244
     40 H11        29.5246    2.9760    3.5413 H         1 B66         0.2319
     41 H12        25.9987    2.2366    4.0996 H         1 B66         0.0781
     42 H13        29.0342    5.1344    3.2769 H         1 B66         0.0767
     43 H14        27.3103    6.9048    3.2408 H         1 B66         0.0766
@<TRIPOS>BOND
     1    1    2 ar 
     2    1    9 ar 
     3    2    3 ar 
     4    3    4 1  
     5    3    7 ar 
     6    4    5 2  
     7    4    6 2  
     8    7    8 ar 
     9    8    9 ar 
    10    9   10 1  
    11   10   11 1  
    12   11   12 1  
    13   12   13 1  
    14   12   14 1  
    15   12   15 1  
    16   15   16 2  
    17   15   17 am 
    18   17   18 1  
    19   18   19 ar 
    20   18   20 ar 
    21   19   25 ar 
    22   20   21 ar 
    23   21   22 ar 
    24   22   23 1  
    25   22   25 ar 
    26   23   24 3  
    27   25   26 1  
    28   26   27 1  
    29   26   28 1  
    30   26   29 1  
    31    1   30 1  
    32    2   31 1  
    33    7   32 1  
    34    8   33 1  
    35   11   34 1  
    36   11   35 1  
    37   13   36 1  
    38   14   37 1  
    39   14   38 1  
    40   14   39 1  
    41   17   40 1  
    42   19   41 1  
    43   20   42 1  
    44   21   43 1  
@<TRIPOS>SUBSTRUCTURE
     1 B66         1

