### 
### Created by X-TOOL on Mon Sep 10 21:12:59 2018
### 

@<TRIPOS>MOLECULE
3b67_ligand
   42    43     1     0     0
SMALL
GAST_HUCK


@<TRIPOS>ATOM
      1 F1         23.7470    2.4230    4.4340 F         1 B67        -0.2146
      2 C7         23.8270    3.7490    4.5070 C.3       1 B67         0.4082
      3 F2         23.5120    4.0860    5.7540 F         1 B67        -0.2146
      4 F3         22.9060    4.2170    3.6700 F         1 B67        -0.2146
      5 C4         25.2420    4.2460    4.1560 C.ar      1 B67         0.1925
      6 C5         26.2920    3.3280    4.1510 C.ar      1 B67         0.1646
      7 C3         25.5280    5.5560    3.7640 C.ar      1 B67         0.2051
      8 N8         24.6900    6.5790    3.9270 N.2       1 B67        -0.1292
      9 O2         25.0450    7.8390    3.3770 O.2       1 B67        -0.4447
     10 O1         23.4250    6.4580    4.5610 O.2       1 B67        -0.4447
     11 C2         26.8160    5.8900    3.3570 C.ar      1 B67         0.0951
     12 C1         27.8490    4.9600    3.3530 C.ar      1 B67         0.1428
     13 C6         27.5890    3.6570    3.7650 C.ar      1 B67         0.3494
     14 N9         28.6020    2.7960    3.8380 N.am      1 B67        -0.0739
     15 C10        28.5010    1.5400    4.2710 C.2       1 B67         0.4188
     16 O10        27.4580    1.0070    4.6460 O.2       1 B67        -0.2202
     17 C11        29.8210    0.7650    4.2880 C.3       1 B67         0.2175
     18 O11        30.8560    1.5720    3.7200 O.3       1 B67        -0.3787
     19 C12        29.6730   -0.5380    3.5000 C.3       1 B67        -0.0220
     20 C13        30.1560    0.4360    5.7350 C.3       1 B67         0.1079
     21 O14        30.4670    1.6020    6.5180 O.3       1 B67        -0.3203
     22 C16        29.7840    1.6280    7.6980 C.ar      1 B67         0.1506
     23 C17        28.7310    2.5220    7.8790 C.ar      1 B67         0.1850
     24 F17        28.4000    3.3310    6.8500 F         1 B67        -0.1966
     25 C18        28.0500    2.5710    9.0970 C.ar      1 B67         0.1841
     26 F18        27.0690    3.4840    9.2820 F         1 B67        -0.1924
     27 C19        28.4160    1.7050   10.1290 C.ar      1 B67         0.1829
     28 F19        27.7200    1.7030   11.2880 F         1 B67        -0.1965
     29 C20        29.4750    0.8080    9.9520 C.ar      1 B67         0.1841
     30 F20        29.8010   -0.0670   10.9280 F         1 B67        -0.1924
     31 C21        30.1630    0.7850    8.7380 C.ar      1 B67         0.1850
     32 F21        31.2390   -0.0080    8.5390 F         1 B67        -0.1966
     33 H1         26.0888    2.3098    4.4624 H         1 B67         0.1807
     34 H2         27.0196    6.9045    3.0338 H         1 B67         0.1091
     35 H3         28.8443    5.2464    3.0330 H         1 B67         0.1438
     36 H4         29.5039    3.1151    3.5468 H         1 B67         0.4378
     37 H5         31.6744    1.0896    3.7313 H         1 B67         0.2081
     38 H6         30.6257   -1.0875    3.5179 H         1 B67         0.0246
     39 H7         29.4018   -0.3082    2.4590 H         1 B67         0.0246
     40 H8         28.8852   -1.1552    3.9565 H         1 B67         0.0246
     41 H9         31.0252   -0.2380    5.7493 H         1 B67         0.0625
     42 H10        29.2915   -0.0707    6.1887 H         1 B67         0.0625
@<TRIPOS>BOND
     1    1    2 1  
     2    2    3 1  
     3    2    4 1  
     4    2    5 1  
     5    5    6 ar 
     6    5    7 ar 
     7    6   13 ar 
     8    7    8 1  
     9    7   11 ar 
    10    8    9 2  
    11    8   10 2  
    12   11   12 ar 
    13   12   13 ar 
    14   13   14 1  
    15   14   15 am 
    16   15   16 2  
    17   15   17 1  
    18   17   18 1  
    19   17   19 1  
    20   17   20 1  
    21   20   21 1  
    22   21   22 1  
    23   22   23 ar 
    24   22   31 ar 
    25   23   24 1  
    26   23   25 ar 
    27   25   26 1  
    28   25   27 ar 
    29   27   28 1  
    30   27   29 ar 
    31   29   30 1  
    32   29   31 ar 
    33   31   32 1  
    34    6   33 1  
    35   11   34 1  
    36   12   35 1  
    37   14   36 1  
    38   18   37 1  
    39   19   38 1  
    40   19   39 1  
    41   19   40 1  
    42   20   41 1  
    43   20   42 1  
@<TRIPOS>SUBSTRUCTURE
     1 B67         1

