### 
### Created by X-TOOL on Mon Sep 10 21:12:57 2018
### 

@<TRIPOS>MOLECULE
3b7j_ligand
   19    20     1     0     0
SMALL
GAST_HUCK


@<TRIPOS>ATOM
      1 OAA        21.0810   12.7820  -12.5760 O.2       1 JUG        -0.3583
      2 CAJ        20.5930   13.8740  -12.2870 C.2       1 JUG         0.1641
      3 CAF        21.4160   14.9780  -12.0960 C.2       1 JUG         0.0149
      4 CAG        20.8530   16.2130  -11.7880 C.2       1 JUG         0.0130
      5 CAK        19.4740   16.3380  -11.6720 C.2       1 JUG         0.1607
      6 OAB        18.9820   17.4340  -11.3980 O.2       1 JUG        -0.3652
      7 CAM        18.6500   15.2320  -11.8590 C.ar      1 JUG         0.0799
      8 CAL        19.2140   13.9990  -12.1660 C.ar      1 JUG         0.0435
      9 CAH        18.4020   12.8800  -12.3250 C.ar      1 JUG        -0.0493
     10 CAD        17.0240   12.9940  -12.1750 C.ar      1 JUG        -0.0603
     11 CAE        16.4600   14.2270  -11.8680 C.ar      1 JUG        -0.0225
     12 CAI        17.2710   15.3470  -11.7120 C.ar      1 JUG         0.1125
     13 OAC        16.7080   16.5520  -11.4290 O.3       1 JUG        -0.3264
     14 H1         22.4965   14.8769  -12.1870 H         1 JUG         0.0802
     15 H2         21.4931   17.0812  -11.6380 H         1 JUG         0.0801
     16 H3         18.8435   11.9197  -12.5657 H         1 JUG         0.0593
     17 H4         16.3907   12.1227  -12.2973 H         1 JUG         0.0636
     18 H5         15.3861   14.3162  -11.7499 H         1 JUG         0.0592
     19 H6         17.3900   17.2091  -11.3540 H         1 JUG         0.2512
@<TRIPOS>BOND
     1    1    2 2  
     2    2    3 1  
     3    2    8 1  
     4    3    4 2  
     5    4    5 1  
     6    5    6 2  
     7    5    7 1  
     8    7    8 ar 
     9    7   12 ar 
    10    8    9 ar 
    11    9   10 ar 
    12   10   11 ar 
    13   11   12 ar 
    14   12   13 1  
    15    3   14 1  
    16    4   15 1  
    17    9   16 1  
    18   10   17 1  
    19   11   18 1  
    20   13   19 1  
@<TRIPOS>SUBSTRUCTURE
     1 JUG         1

