### 
### Created by X-TOOL on Mon Sep 10 21:12:57 2018
### 

@<TRIPOS>MOLECULE
3b7u_ligand
   38    38     1     0     0
SMALL
GAST_HUCK


@<TRIPOS>ATOM
      1 O1         34.2250    4.1510    3.2940 O.2       1 KEL        -0.3968
      2 C1         34.9880    4.2810    2.3510 C.2       1 KEL         0.2015
      3 N1         36.1930    3.7320    2.3050 N.am      1 KEL        -0.1641
      4 O2         36.5650    3.1010    3.2900 O.3       1 KEL        -0.2717
      5 C2         34.6280    5.1670    1.1870 C.3       1 KEL         0.0604
      6 C3         34.7120    6.6060    1.7070 C.3       1 KEL         0.0749
      7 C4         34.3180    7.5110    0.5820 C.2       1 KEL         0.1856
      8 O3         34.9820    7.5130   -0.4490 O.2       1 KEL        -0.3963
      9 N2         33.2310    8.2680    0.7570 N.am      1 KEL        -0.2641
     10 C5         32.7620    9.0820   -0.3280 C.3       1 KEL         0.1392
     11 C6         31.4610    9.7930    0.0080 C.3       1 KEL        -0.0230
     12 C7         33.8560   10.0410   -0.7530 C.2       1 KEL         0.2568
     13 O4         34.0600   10.2010   -1.9530 O.co2     1 KEL        -0.3680
     14 O5         34.5630   10.5940    0.0960 O.co2     1 KEL        -0.2910
     15 C8         36.1550    6.9510    2.1610 C.3       1 KEL         0.0027
     16 C9         36.2490    8.3270    2.8280 C.ar      1 KEL        -0.0404
     17 C10        36.1310    8.4110    4.2070 C.ar      1 KEL        -0.0602
     18 C11        36.2230    9.6680    4.8300 C.ar      1 KEL        -0.0686
     19 C12        36.4050   10.8440    4.1220 C.ar      1 KEL        -0.0687
     20 C13        36.5470   10.7640    2.7260 C.ar      1 KEL        -0.0686
     21 C14        36.4720    9.5150    2.0890 C.ar      1 KEL        -0.0602
     22 H1         36.7769    3.8280    1.4989 H         1 KEL         0.2216
     23 H2         37.4379    2.7596    3.1349 H         1 KEL         0.2490
     24 H3         33.6081    4.9455    0.8396 H         1 KEL         0.0531
     25 H4         35.3376    5.0179    0.3598 H         1 KEL         0.0531
     26 H5         34.0229    6.7352    2.5546 H         1 KEL         0.0585
     27 H6         32.7499    8.2674    1.6337 H         1 KEL         0.1884
     28 H7         32.5553    8.4163   -1.1789 H         1 KEL         0.0813
     29 H8         31.1434   10.4018   -0.8513 H         1 KEL         0.0278
     30 H9         31.6137   10.4435    0.8818 H         1 KEL         0.0278
     31 H10        30.6845    9.0482    0.2366 H         1 KEL         0.0278
     32 H12        36.8136    6.9407    1.2800 H         1 KEL         0.0455
     33 H13        36.4906    6.1879    2.8786 H         1 KEL         0.0455
     34 H14        35.9695    7.5170    4.7984 H         1 KEL         0.0557
     35 H15        36.1483    9.7187    5.9102 H         1 KEL         0.0599
     36 H16        36.4371   11.8007    4.6308 H         1 KEL         0.0559
     37 H17        36.7137   11.6629    2.1435 H         1 KEL         0.0599
     38 H18        36.5868    9.4587    1.0126 H         1 KEL         0.0557
@<TRIPOS>BOND
     1    1    2 2  
     2    2    3 am 
     3    2    5 1  
     4    3    4 1  
     5    5    6 1  
     6    6    7 1  
     7    6   15 1  
     8    7    8 2  
     9    7    9 am 
    10    9   10 1  
    11   10   11 1  
    12   10   12 1  
    13   12   13 ar 
    14   12   14 ar 
    15   15   16 1  
    16   16   17 ar 
    17   16   21 ar 
    18   17   18 ar 
    19   18   19 ar 
    20   19   20 ar 
    21   20   21 ar 
    22    3   22 1  
    23    4   23 1  
    24    5   24 1  
    25    5   25 1  
    26    6   26 1  
    27    9   27 1  
    28   10   28 1  
    29   11   29 1  
    30   11   30 1  
    31   11   31 1  
    32   15   32 1  
    33   15   33 1  
    34   17   34 1  
    35   18   35 1  
    36   19   36 1  
    37   20   37 1  
    38   21   38 1  
@<TRIPOS>SUBSTRUCTURE
     1 KEL         1

