### 
### Created by X-TOOL on Mon Sep 10 21:12:58 2018
### 

@<TRIPOS>MOLECULE
3b8q_ligand
   56    60     1     0     0
SMALL
GAST_HUCK


@<TRIPOS>ATOM
      1 C1         38.1640   30.8980   14.4080 C.ar      1 900         0.1241
      2 C2         36.7890   30.9680   14.0220 C.ar      1 900        -0.0209
      3 C3         36.2290   32.1870   13.5170 C.ar      1 900        -0.0215
      4 C4         37.0580   33.3860   13.3920 C.ar      1 900        -0.0062
      5 C5         38.4520   33.2890   13.8110 C.ar      1 900        -0.0533
      6 C6         38.9810   32.0690   14.3130 C.ar      1 900        -0.0210
      7 C10        34.8620   32.2130   13.1340 C.ar      1 900        -0.0539
      8 C11        34.2850   33.4020   12.6110 C.ar      1 900        -0.0576
      9 C12        35.0690   34.5780   12.4510 C.ar      1 900        -0.0435
     10 C13        36.4570   34.6100   12.8230 C.ar      1 900         0.0581
     11 O17        38.6460   29.6540   14.8490 O.3       1 900        -0.2443
     12 C18        39.3010   28.8990   13.8410 C.ar      1 900         0.1388
     13 C19        40.0940   27.7880   14.2350 C.ar      1 900         0.0277
     14 C20        40.8010   26.9730   13.2970 C.ar      1 900         0.0175
     15 N21        40.6630   27.2810   11.9610 N.ar      1 900        -0.3280
     16 C22        39.8980   28.3410   11.5740 C.ar      1 900        -0.0132
     17 C23        39.2050   29.1680   12.4840 C.ar      1 900        -0.0085
     18 C26        40.2090   27.4990   15.5890 C.ar      1 900        -0.0222
     19 C27        40.9740   26.4310   16.0540 C.ar      1 900         0.1284
     20 C28        41.6960   25.6140   15.1630 C.ar      1 900         0.1286
     21 C29        41.5930   25.8800   13.7690 C.ar      1 900        -0.0213
     22 O32        40.9480   26.2870   17.4440 O.3       1 900        -0.3208
     23 C33        41.9720   26.8800   18.1980 C.3       1 900         0.0581
     24 O37        42.4650   24.5670   15.7070 O.3       1 900        -0.3183
     25 C38        43.7110   24.9600   16.3000 C.3       1 900         0.0593
     26 C42        37.2430   35.8540   12.5900 C.2       1 900         0.2307
     27 N43        36.5560   37.0230   12.4530 N.am      1 900        -0.2333
     28 C44        37.1190   38.2650   12.1910 C.ar      1 900         0.0664
     29 C45        36.8210   39.3750   13.0020 C.ar      1 900        -0.0405
     30 C46        37.4040   40.6300   12.7270 C.ar      1 900        -0.0615
     31 C47        38.3010   40.7660   11.6160 C.ar      1 900         0.0240
     32 C48        38.6220   39.6820   10.7800 C.ar      1 900        -0.0615
     33 C49        38.0300   38.4250   11.0660 C.ar      1 900        -0.0405
     34 CL54       39.0140   42.2980   11.2950 Cl        1 900        -0.0848
     35 O55        38.4510   35.8190   12.4660 O.2       1 900        -0.3743
     36 H1         36.1623   30.0882   14.1124 H         1 900         0.0526
     37 H2         39.0935   34.1598   13.7385 H         1 900         0.0617
     38 H3         40.0173   32.0250   14.6281 H         1 900         0.0611
     39 H4         34.2551   31.3212   13.2411 H         1 900         0.0642
     40 H5         33.2377   33.4127   12.3315 H         1 900         0.0623
     41 H6         34.6097   35.4695   12.0395 H         1 900         0.0658
     42 H7         39.8180   28.5595   10.5153 H         1 900         0.0772
     43 H8         38.6077   29.9996   12.1280 H         1 900         0.0550
     44 H9         39.6878   28.1233   16.3057 H         1 900         0.0520
     45 H10        42.1183   25.2500   13.0603 H         1 900         0.0485
     46 H11        41.8065   26.6753   19.2660 H         1 900         0.0575
     47 H12        41.9699   27.9668   18.0284 H         1 900         0.0575
     48 H13        42.9423   26.4628   17.8908 H         1 900         0.0575
     49 H14        44.2275   24.0710   16.6910 H         1 900         0.0578
     50 H15        43.5195   25.6643   17.1229 H         1 900         0.0578
     51 H16        44.3414   25.4459   15.5407 H         1 900         0.0578
     52 H17        35.5615   36.9829   12.5494 H         1 900         0.2254
     53 H18        36.1420   39.2659   13.8400 H         1 900         0.0504
     54 H19        37.1755   41.4861   13.3514 H         1 900         0.0584
     55 H20        39.3005   39.8030    9.9433 H         1 900         0.0584
     56 H21        38.2589   37.5714   10.4383 H         1 900         0.0504
@<TRIPOS>BOND
     1    1    2 ar 
     2    1    6 ar 
     3    1   11 1  
     4    2    3 ar 
     5    3    4 ar 
     6    3    7 ar 
     7    4    5 ar 
     8    4   10 ar 
     9    5    6 ar 
    10    7    8 ar 
    11    8    9 ar 
    12    9   10 ar 
    13   10   26 1  
    14   11   12 1  
    15   12   13 ar 
    16   12   17 ar 
    17   13   14 ar 
    18   13   18 ar 
    19   14   15 ar 
    20   14   21 ar 
    21   15   16 ar 
    22   16   17 ar 
    23   18   19 ar 
    24   19   20 ar 
    25   19   22 1  
    26   20   21 ar 
    27   20   24 1  
    28   22   23 1  
    29   24   25 1  
    30   26   27 am 
    31   26   35 2  
    32   27   28 1  
    33   28   29 ar 
    34   28   33 ar 
    35   29   30 ar 
    36   30   31 ar 
    37   31   32 ar 
    38   31   34 1  
    39   32   33 ar 
    40    2   36 1  
    41    5   37 1  
    42    6   38 1  
    43    7   39 1  
    44    8   40 1  
    45    9   41 1  
    46   16   42 1  
    47   17   43 1  
    48   18   44 1  
    49   21   45 1  
    50   23   46 1  
    51   23   47 1  
    52   23   48 1  
    53   25   49 1  
    54   25   50 1  
    55   25   51 1  
    56   27   52 1  
    57   29   53 1  
    58   30   54 1  
    59   32   55 1  
    60   33   56 1  
@<TRIPOS>SUBSTRUCTURE
     1 900         1

