### 
### Created by X-TOOL on Mon Sep 10 21:12:58 2018
### 

@<TRIPOS>MOLECULE
3b8r_ligand
   53    57     1     0     0
SMALL
GAST_HUCK


@<TRIPOS>ATOM
      1 C1          9.6630   -0.9740   57.7900 C.ar      1 887         0.1241
      2 C2          8.2800   -0.9800   57.4030 C.ar      1 887        -0.0209
      3 C3          7.6460    0.2470   57.0080 C.ar      1 887        -0.0215
      4 C4          8.3930    1.5060   57.0020 C.ar      1 887        -0.0067
      5 C5          9.7940    1.4620   57.4040 C.ar      1 887        -0.0533
      6 C6         10.4050    0.2470   57.7900 C.ar      1 887        -0.0210
      7 C10         6.2790    0.2260   56.6280 C.ar      1 887        -0.0539
      8 C11         5.6380    1.4310   56.2390 C.ar      1 887        -0.0576
      9 C12         6.3430    2.6620   56.2200 C.ar      1 887        -0.0440
     10 C13         7.7130    2.7420   56.5880 C.ar      1 887         0.0519
     11 O17        10.3100   -2.1490   58.1880 O.3       1 887        -0.2443
     12 C18        10.9850   -2.9670   57.2490 C.ar      1 887         0.1388
     13 C19        11.8120   -4.0190   57.7660 C.ar      1 887         0.0277
     14 C20        12.5220   -4.8930   56.8690 C.ar      1 887         0.0175
     15 N21        12.3780   -4.7020   55.5000 N.ar      1 887        -0.3280
     16 C22        11.5960   -3.7000   54.9880 C.ar      1 887        -0.0132
     17 C23        10.8780   -2.8110   55.8210 C.ar      1 887        -0.0085
     18 C26        11.9530   -4.2000   59.1780 C.ar      1 887        -0.0222
     19 C27        12.7810   -5.2430   59.7160 C.ar      1 887         0.1284
     20 C28        13.4880   -6.1150   58.8180 C.ar      1 887         0.1286
     21 C29        13.3340   -5.9210   57.4020 C.ar      1 887        -0.0213
     22 O32        12.8410   -5.3400   61.1450 O.3       1 887        -0.3208
     23 O33        14.3000   -7.1330   59.3790 O.3       1 887        -0.3183
     24 C34        14.7210   -8.2170   58.5470 C.3       1 887         0.0593
     25 C38        12.9530   -4.1590   61.9420 C.3       1 887         0.0581
     26 C42         8.3820    4.0670   56.5320 C.2       1 887         0.2033
     27 N43         7.5770    5.1570   56.8120 N.am      1 887        -0.2836
     28 C44         8.0770    6.5130   56.8010 C.3       1 887         0.0415
     29 O45         9.5720    4.2070   56.2470 O.2       1 887        -0.3860
     30 C46         8.0550    6.8510   55.3300 C.3       1 887        -0.0279
     31 C47         7.2930    7.6450   56.3380 C.3       1 887        -0.0279
     32 H1          7.7170   -1.9063   57.4089 H         1 887         0.0526
     33 H2         10.3766    2.3761   57.4069 H         1 887         0.0617
     34 H3         11.4469    0.2417   58.0890 H         1 887         0.0611
     35 H4          5.7265   -0.7066   56.6348 H         1 887         0.0643
     36 H5          4.5929    1.4105   55.9518 H         1 887         0.0623
     37 H6          5.8235    3.5640   55.9172 H         1 887         0.0658
     38 H7         11.5257   -3.5854   53.9124 H         1 887         0.0772
     39 H8         10.2604   -2.0290   55.3941 H         1 887         0.0550
     40 H9         11.4251   -3.5376   59.8545 H         1 887         0.0520
     41 H10        13.8566   -6.5834   56.7214 H         1 887         0.0485
     42 H11        15.3388   -8.9118   59.1348 H         1 887         0.0578
     43 H12        15.3101   -7.8254   57.7047 H         1 887         0.0578
     44 H13        13.8380   -8.7478   58.1616 H         1 887         0.0578
     45 H14        12.9846   -4.4364   63.0060 H         1 887         0.0575
     46 H15        12.0849   -3.5089   61.7582 H         1 887         0.0575
     47 H16        13.8757   -3.6228   61.6753 H         1 887         0.0575
     48 H17         6.6136    5.0008   57.0300 H         1 887         0.1846
     49 H18         8.9101    6.6748   57.5008 H         1 887         0.0555
     50 H19         7.5248    6.2011   54.6183 H         1 887         0.0288
     51 H20         8.9451    7.2773   54.8443 H         1 887         0.0288
     52 H21         7.6148    8.6680   56.5829 H         1 887         0.0288
     53 H22         6.1945    7.5918   56.3568 H         1 887         0.0288
@<TRIPOS>BOND
     1    1    2 ar 
     2    1    6 ar 
     3    1   11 1  
     4    2    3 ar 
     5    3    4 ar 
     6    3    7 ar 
     7    4    5 ar 
     8    4   10 ar 
     9    5    6 ar 
    10    7    8 ar 
    11    8    9 ar 
    12    9   10 ar 
    13   10   26 1  
    14   11   12 1  
    15   12   13 ar 
    16   12   17 ar 
    17   13   14 ar 
    18   13   18 ar 
    19   14   15 ar 
    20   14   21 ar 
    21   15   16 ar 
    22   16   17 ar 
    23   18   19 ar 
    24   19   20 ar 
    25   19   22 1  
    26   20   21 ar 
    27   20   23 1  
    28   22   25 1  
    29   23   24 1  
    30   26   27 am 
    31   26   29 2  
    32   27   28 1  
    33   28   30 1  
    34   28   31 1  
    35   30   31 1  
    36    2   32 1  
    37    5   33 1  
    38    6   34 1  
    39    7   35 1  
    40    8   36 1  
    41    9   37 1  
    42   16   38 1  
    43   17   39 1  
    44   18   40 1  
    45   21   41 1  
    46   24   42 1  
    47   24   43 1  
    48   24   44 1  
    49   25   45 1  
    50   25   46 1  
    51   25   47 1  
    52   27   48 1  
    53   28   49 1  
    54   30   50 1  
    55   30   51 1  
    56   31   52 1  
    57   31   53 1  
@<TRIPOS>SUBSTRUCTURE
     1 887         1

