### 
### Created by X-TOOL on Mon Sep 10 21:12:56 2018
### 

@<TRIPOS>MOLECULE
3b92_ligand
   34    34     1     0     0
SMALL
GAST_HUCK


@<TRIPOS>ATOM
      1 C          -0.3850   60.4140   86.2240 C.ar      1 440        -0.0313
      2 C1         -0.6390   59.1310   85.7370 C.ar      1 440        -0.0458
      3 C2          1.2060   59.3620   84.1460 C.ar      1 440        -0.0458
      4 C3          1.4570   60.6490   84.6430 C.ar      1 440        -0.0313
      5 C4          0.6600   61.1780   85.6780 C.ar      1 440         0.0925
      6 O           0.8750   62.5030   86.0710 O.3       1 440        -0.3055
      7 C5         -0.2580   63.2200   86.5630 C.3       1 440         0.1308
      8 C6         -3.0410   64.8880   83.7500 C.3       1 440        -0.0025
      9 C7         -2.0160   64.2960   84.7230 C.1       1 440        -0.1029
     10 C8         -1.2300   63.8330   85.4910 C.1       1 440        -0.0692
     11 C9          0.1540   58.6160   84.7000 C.ar      1 440         0.0770
     12 O1         -1.6420   56.8910   83.9960 O.2       1 440        -0.1707
     13 O2          0.5820   56.8300   82.8780 O.2       1 440        -0.1707
     14 S          -0.2180   57.0230   84.0700 S.o2      1 440        -0.0078
     15 C10         0.3050   55.9790   85.4240 C.3       1 440         0.0702
     16 C11         1.6920   56.3580   85.9060 C.3       1 440        -0.0245
     17 C12         2.7660   55.7160   85.0470 C.3       1 440        -0.0078
     18 S1          4.3340   56.5520   85.3070 S.3       1 440        -0.1782
     19 H1         -0.9938   60.8209   87.0233 H         1 440         0.0542
     20 H2         -1.4427   58.5368   86.1566 H         1 440         0.0608
     21 H3          1.8136   58.9506   83.3481 H         1 440         0.0608
     22 H4          2.2669   61.2391   84.2297 H         1 440         0.0542
     23 H5          0.1159   64.0471   87.1844 H         1 440         0.0752
     24 H6         -0.8440   62.5287   87.1865 H         1 440         0.0752
     25 H7         -2.5355   65.1795   82.8175 H         1 440         0.0362
     26 H8         -3.5099   65.7729   84.2049 H         1 440         0.0362
     27 H9         -3.8133   64.1366   83.5289 H         1 440         0.0362
     28 H10         0.3164   54.9323   85.0861 H         1 440         0.0503
     29 H11        -0.4060   56.0879   86.2562 H         1 440         0.0503
     30 H12         1.8151   56.0209   86.9458 H         1 440         0.0289
     31 H13         1.8016   57.4515   85.8597 H         1 440         0.0289
     32 H14         2.4816   55.7948   83.9873 H         1 440         0.0374
     33 H15         2.8677   54.6557   85.3215 H         1 440         0.0374
     34 H16         4.2413   57.5235   85.0547 H         1 440         0.1016
@<TRIPOS>BOND
     1    1    2 ar 
     2    5    1 ar 
     3    2   11 ar 
     4    4    3 ar 
     5    3   11 ar 
     6    5    4 ar 
     7    6    5 1  
     8    7    6 1  
     9   10    7 1  
    10    9    8 1  
    11    9   10 3  
    12   11   14 1  
    13   14   12 2  
    14   14   13 2  
    15   14   15 1  
    16   15   16 1  
    17   16   17 1  
    18   17   18 1  
    19    1   19 1  
    20    2   20 1  
    21    3   21 1  
    22    4   22 1  
    23    7   23 1  
    24    7   24 1  
    25    8   25 1  
    26    8   26 1  
    27    8   27 1  
    28   15   28 1  
    29   15   29 1  
    30   16   30 1  
    31   16   31 1  
    32   17   32 1  
    33   17   33 1  
    34   18   34 1  
@<TRIPOS>SUBSTRUCTURE
     1 440         1

