### 
### Created by X-TOOL on Mon Sep 10 21:12:57 2018
### 

@<TRIPOS>MOLECULE
3b9g_ligand
   34    36     1     0     0
SMALL
GAST_HUCK


@<TRIPOS>ATOM
      1 O5'        25.4280   21.5930    6.8840 O.3       1 IMH        -0.3894
      2 C5'        24.4720   20.6210    7.3160 C.3       1 IMH         0.0894
      3 C4'        23.3680   21.3000    8.1480 C.3       1 IMH         0.0313
      4 N4'        22.7820   22.4480    7.4260 N.4       1 IMH         0.2435
      5 C3'        22.1970   20.3580    8.4330 C.3       1 IMH         0.1317
      6 O3'        21.6420   20.6910    9.7160 O.3       1 IMH        -0.3832
      7 C2'        21.1720   20.6240    7.3180 C.3       1 IMH         0.1327
      8 O2'        19.8300   20.6740    7.8510 O.3       1 IMH        -0.3821
      9 C1'        21.5510   21.9910    6.7300 C.3       1 IMH         0.0244
     10 C9         21.8190   21.8700    5.2170 C.2       1 IMH         0.0057
     11 C8         23.0230   21.8460    4.6510 C.2       1 IMH         0.0223
     12 N7         22.8750   21.7360    3.3320 N.pl3     1 IMH        -0.2895
     13 C5         21.5770   21.7000    3.0380 C.2       1 IMH         0.1348
     14 C6         20.8980   21.5950    1.8340 C.2       1 IMH         0.2413
     15 O6         21.5240   21.5180    0.7790 O.2       1 IMH        -0.4013
     16 N1         19.4980   21.5780    1.8490 N.am      1 IMH        -0.2067
     17 C2         18.8320   21.6690    3.0870 C.2       1 IMH         0.1146
     18 N3         19.5140   21.7600    4.2210 N.2       1 IMH        -0.3199
     19 C4         20.8570   21.7860    4.2240 C.2       1 IMH         0.0184
     20 H1         25.8196   22.0094    7.6429 H         1 IMH         0.2097
     21 H2         24.9771   19.8621    7.9316 H         1 IMH         0.0614
     22 H3         24.0204   20.1386    6.4366 H         1 IMH         0.0614
     23 H4         23.8069   21.6412    9.0972 H         1 IMH         0.0900
     24 H5         23.4436   22.7984    6.7511 H         1 IMH         0.2029
     25 H6         22.5507   23.1788    8.0806 H         1 IMH         0.2029
     26 H7         22.5214   19.3070    8.4216 H         1 IMH         0.0680
     27 H8         20.9129   20.1119    9.9043 H         1 IMH         0.2102
     28 H9         21.2324   19.8412    6.5476 H         1 IMH         0.0693
     29 H10        19.7712   21.3718    8.4929 H         1 IMH         0.2103
     30 H11        20.7354   22.7094    6.8993 H         1 IMH         0.0961
     31 H12        23.9733   21.9064    5.1795 H         1 IMH         0.0779
     32 H13        23.6432   21.6866    2.6476 H         1 IMH         0.2273
     33 H14        18.9805   21.5027    0.9967 H         1 IMH         0.2519
     34 H15        17.7433   21.6646    3.1133 H         1 IMH         0.1426
@<TRIPOS>BOND
     1    1    2 1  
     2    2    3 1  
     3    3    4 1  
     4    3    5 1  
     5    4    9 1  
     6    5    6 1  
     7    5    7 1  
     8    7    8 1  
     9    7    9 1  
    10    9   10 1  
    11   10   11 2  
    12   10   19 1  
    13   11   12 1  
    14   12   13 1  
    15   13   14 1  
    16   13   19 2  
    17   14   15 2  
    18   14   16 am 
    19   16   17 1  
    20   17   18 2  
    21   18   19 1  
    22    1   20 1  
    23    2   21 1  
    24    2   22 1  
    25    3   23 1  
    26    4   24 1  
    27    4   25 1  
    28    5   26 1  
    29    6   27 1  
    30    7   28 1  
    31    8   29 1  
    32    9   30 1  
    33   11   31 1  
    34   12   32 1  
    35   16   33 1  
    36   17   34 1  
@<TRIPOS>SUBSTRUCTURE
     1 IMH         1

