### 
### Created by X-TOOL on Mon Sep 10 21:12:58 2018
### 

@<TRIPOS>MOLECULE
3b9s_ligand
   20    21     1     0     0
SMALL
GAST_HUCK


@<TRIPOS>ATOM
      1 C2        -31.5230   19.6580  -15.1380 C.ar      1 RW1         0.0871
      2 N3        -31.2420   20.1240  -13.9340 N.ar      1 RW1        -0.2654
      3 C4        -30.4410   19.4610  -13.1200 C.ar      1 RW1         0.0277
      4 C5        -29.8740   18.2640  -13.5330 C.ar      1 RW1        -0.0032
      5 N1        -31.0150   18.5200  -15.5770 N.ar      1 RW1        -0.2591
      6 C6        -30.1900   17.8030  -14.8030 C.ar      1 RW1         0.0697
      7 C7        -29.6820   16.5820  -15.2300 C.ar      1 RW1         0.0079
      8 C8        -30.3780   15.8350  -16.1720 C.ar      1 RW1        -0.0478
      9 C12       -28.4670   16.1310  -14.7300 C.ar      1 RW1        -0.0478
     10 C11       -27.9400   14.9250  -15.1760 C.ar      1 RW1        -0.0575
     11 C10       -28.6370   14.1770  -16.1190 C.ar      1 RW1        -0.0585
     12 C9        -29.8540   14.6260  -16.6160 C.ar      1 RW1        -0.0575
     13 H1        -32.1870   20.2235  -15.7818 H         1 RW1         0.1126
     14 H2        -30.2270   19.8510  -12.1315 H         1 RW1         0.0930
     15 H3        -29.2064   17.7075  -12.8852 H         1 RW1         0.0778
     16 H4        -31.3252   16.1929  -16.5591 H         1 RW1         0.0655
     17 H5        -27.9311   16.7186  -13.9934 H         1 RW1         0.0655
     18 H6        -26.9911   14.5692  -14.7912 H         1 RW1         0.0627
     19 H7        -28.2273   13.2363  -16.4688 H         1 RW1         0.0645
     20 H8        -30.3935   14.0356  -17.3477 H         1 RW1         0.0627
@<TRIPOS>BOND
     1    1    2 ar 
     2    1    5 ar 
     3    2    3 ar 
     4    3    4 ar 
     5    4    6 ar 
     6    5    6 ar 
     7    6    7 1  
     8    7    8 ar 
     9    7    9 ar 
    10    8   12 ar 
    11    9   10 ar 
    12   10   11 ar 
    13   11   12 ar 
    14    1   13 1  
    15    3   14 1  
    16    4   15 1  
    17    8   16 1  
    18    9   17 1  
    19   10   18 1  
    20   11   19 1  
    21   12   20 1  
@<TRIPOS>SUBSTRUCTURE
     1 RW1         1

