### 
### Created by X-TOOL on Mon Sep 10 21:12:59 2018
### 

@<TRIPOS>MOLECULE
3bbt_ligand
   42    45     1     0     0
SMALL
GAST_HUCK


@<TRIPOS>ATOM
      1 C14       -43.1070   47.9300   15.8280 C.ar      1 FMM        -0.0547
      2 C15       -43.9820   47.9690   14.7410 C.ar      1 FMM        -0.0557
      3 C16       -43.6240   48.6640   13.5860 C.ar      1 FMM        -0.0403
      4 C17       -42.3920   49.3150   13.5180 C.ar      1 FMM         0.0444
      5 N18       -42.0420   49.9880   12.3970 N.ar      1 FMM        -0.2938
      6 C19       -40.8590   50.6190   12.3220 C.ar      1 FMM         0.0606
      7 N20       -39.9960   50.5980   13.3520 N.ar      1 FMM        -0.2519
      8 C21       -40.2880   49.9410   14.5040 C.ar      1 FMM         0.1607
      9 N22       -39.4090   49.9240   15.5490 N.pl3     1 FMM        -0.2509
     10 C23       -38.1570   50.5660   15.5280 C.ar      1 FMM         0.0593
     11 C24       -36.9880   49.8070   15.5430 C.ar      1 FMM        -0.0442
     12 C25       -35.7460   50.4420   15.5290 C.ar      1 FMM        -0.0400
     13 C26       -35.6630   51.8380   15.5070 C.ar      1 FMM         0.0978
     14 O27       -34.4460   52.4780   15.4850 O.3       1 FMM        -0.3113
     15 C28       -33.4190   52.2220   16.4440 C.3       1 FMM         0.1015
     16 C29       -32.1190   51.8930   15.7400 C.ar      1 FMM        -0.0151
     17 C30       -31.8750   52.3430   14.4400 C.ar      1 FMM        -0.0618
     18 C31       -30.6750   52.0340   13.8010 C.ar      1 FMM        -0.0703
     19 C32       -29.7120   51.2730   14.4620 C.ar      1 FMM        -0.0352
     20 C33       -29.9530   50.8230   15.7590 C.ar      1 FMM         0.1259
     21 F34       -29.0240   50.0900   16.3960 F         1 FMM        -0.1853
     22 C35       -31.1520   51.1340   16.3980 C.ar      1 FMM        -0.0245
     23 C36       -36.8270   52.5950   15.4930 C.ar      1 FMM         0.0604
     24 CL3       -36.7320   54.3900   15.4600 Cl        1 FMM        -0.0812
     25 C38       -38.0700   51.9610   15.5080 C.ar      1 FMM        -0.0306
     26 C39       -41.5140   49.2770   14.6050 C.ar      1 FMM         0.0575
     27 C40       -41.8750   48.5820   15.7630 C.ar      1 FMM        -0.0401
     28 H1        -43.3857   47.3910   16.7263 H         1 FMM         0.0626
     29 H2        -44.9377   47.4602   14.7945 H         1 FMM         0.0673
     30 H3        -44.3028   48.6983   12.7415 H         1 FMM         0.0626
     31 H4        -40.5960   51.1537   11.4165 H         1 FMM         0.1060
     32 H5        -39.6778   49.4120   16.4013 H         1 FMM         0.2204
     33 H6        -37.0439   48.7247   15.5655 H         1 FMM         0.0522
     34 H7        -34.8385   49.8491   15.5352 H         1 FMM         0.0519
     35 H8        -33.7154   51.3721   17.0762 H         1 FMM         0.0775
     36 H9        -33.2770   53.1140   17.0718 H         1 FMM         0.0775
     37 H10       -32.6227   52.9356   13.9254 H         1 FMM         0.0523
     38 H11       -30.4911   52.3849   12.7920 H         1 FMM         0.0589
     39 H12       -28.7776   51.0317   13.9683 H         1 FMM         0.0546
     40 H13       -31.3330   50.7852   17.4083 H         1 FMM         0.0543
     41 H14       -38.9763   52.5557   15.5041 H         1 FMM         0.0524
     42 H15       -41.1986   48.5496   16.6095 H         1 FMM         0.0684
@<TRIPOS>BOND
     1    1    2 ar 
     2    1   27 ar 
     3    2    3 ar 
     4    3    4 ar 
     5    4    5 ar 
     6    4   26 ar 
     7    5    6 ar 
     8    6    7 ar 
     9    7    8 ar 
    10    8    9 1  
    11    8   26 ar 
    12    9   10 1  
    13   10   11 ar 
    14   10   25 ar 
    15   11   12 ar 
    16   12   13 ar 
    17   13   14 1  
    18   13   23 ar 
    19   14   15 1  
    20   15   16 1  
    21   16   17 ar 
    22   16   22 ar 
    23   17   18 ar 
    24   18   19 ar 
    25   19   20 ar 
    26   20   21 1  
    27   20   22 ar 
    28   23   24 1  
    29   23   25 ar 
    30   26   27 ar 
    31    1   28 1  
    32    2   29 1  
    33    3   30 1  
    34    6   31 1  
    35    9   32 1  
    36   11   33 1  
    37   12   34 1  
    38   15   35 1  
    39   15   36 1  
    40   17   37 1  
    41   18   38 1  
    42   19   39 1  
    43   22   40 1  
    44   25   41 1  
    45   27   42 1  
@<TRIPOS>SUBSTRUCTURE
     1 FMM         1

