### 
### Created by X-TOOL on Mon Sep 10 21:12:57 2018
### 

@<TRIPOS>MOLECULE
3bc4_ligand
   33    34     1     0     0
SMALL
GAST_HUCK


@<TRIPOS>ATOM
      1 N1          6.0100    6.0100    0.0000 N.4       1 LLG         0.2204
      2 C4          7.1890    7.9650   -0.5420 C.3       1 LLG         0.1164
      3 C5          5.7790    7.3850   -0.4520 C.3       1 LLG        -0.0069
      4 C6          8.5560    7.7540   -4.1180 C.3       1 LLG         0.0840
      5 C7          8.0530    8.2520   -2.7680 C.2       1 LLG         0.2465
      6 C10        12.3980    9.2940   -2.6080 C.ar      1 LLG        -0.0625
      7 C13        11.2140   10.4630   -4.9830 C.ar      1 LLG        -0.0239
      8 C15         9.3020    8.8590   -4.8970 C.ar      1 LLG        -0.0124
      9 C17         9.4100   10.6120   -6.6840 C.ar      1 LLG        -0.0701
     10 O6          7.6930    7.4250   -1.7700 O.3       1 LLG        -0.2699
     11 C16         8.7250    9.4870   -6.0140 C.ar      1 LLG        -0.0582
     12 C18        10.6360   11.0610   -6.2040 C.ar      1 LLG        -0.0627
     13 C14        10.5320    9.4430   -4.2820 C.ar      1 LLG        -0.0099
     14 C9         11.1810    8.8030   -3.1100 C.ar      1 LLG        -0.0546
     15 C11        13.0610   10.4180   -3.3060 C.ar      1 LLG        -0.0629
     16 C12        12.4960   10.9910   -4.4490 C.ar      1 LLG        -0.0568
     17 O8          7.9750    9.4520   -2.5810 O.2       1 LLG        -0.3670
     18 H1          5.1264    5.5337    0.0922 H         1 LLG         0.1995
     19 H2          6.4789    6.0239    0.8922 H         1 LLG         0.1995
     20 H3          6.5835    5.5267   -0.6735 H         1 LLG         0.1995
     21 H4          7.8029    7.6414    0.3114 H         1 LLG         0.0667
     22 H5          7.1609    9.0641   -0.5777 H         1 LLG         0.0667
     23 H6          5.1693    7.9418    0.2747 H         1 LLG         0.0839
     24 H7          5.2834    7.3993   -1.4339 H         1 LLG         0.0839
     25 H8          7.6964    7.4161   -4.7154 H         1 LLG         0.0687
     26 H9          9.2421    6.9102   -3.9528 H         1 LLG         0.0687
     27 H10        12.8446    8.8561   -1.7227 H         1 LLG         0.0602
     28 H11         8.9581   11.0863   -7.5476 H         1 LLG         0.0596
     29 H12         7.7676    9.1426   -6.3880 H         1 LLG         0.0535
     30 H13        11.1669   11.8492   -6.7255 H         1 LLG         0.0546
     31 H14        10.7112    7.9483   -2.6368 H         1 LLG         0.0628
     32 H15        13.9998   10.8031   -2.9248 H         1 LLG         0.0616
     33 H16        12.9917   11.8181   -4.9443 H         1 LLG         0.0609
@<TRIPOS>BOND
     1    3    1 1  
     2    2    3 1  
     3   10    2 1  
     4    4    5 1  
     5    8    4 1  
     6    5   10 1  
     7    5   17 2  
     8   14    6 ar 
     9    6   15 ar 
    10    7   12 ar 
    11   13    7 ar 
    12    7   16 ar 
    13    8   11 ar 
    14   13    8 ar 
    15   11    9 ar 
    16   12    9 ar 
    17   13   14 ar 
    18   15   16 ar 
    19    1   18 1  
    20    1   19 1  
    21    1   20 1  
    22    2   21 1  
    23    2   22 1  
    24    3   23 1  
    25    3   24 1  
    26    4   25 1  
    27    4   26 1  
    28    6   27 1  
    29    9   28 1  
    30   11   29 1  
    31   12   30 1  
    32   14   31 1  
    33   15   32 1  
    34   16   33 1  
@<TRIPOS>SUBSTRUCTURE
     1 LLG         1

