### 
### Created by X-TOOL on Mon Sep 10 21:12:58 2018
### 

@<TRIPOS>MOLECULE
3bc5_ligand
   62    66     1     0     0
SMALL
GAST_HUCK


@<TRIPOS>ATOM
      1 C13        56.4570   24.0590    5.4510 C.3       1 ZAA         0.0014
      2 C18        54.6030   29.4830    5.9670 C.ar      1 ZAA        -0.0769
      3 C17        54.9270   28.1340    5.8480 C.ar      1 ZAA        -0.0399
      4 C16        56.2230   27.6890    6.1180 C.ar      1 ZAA         0.0848
      5 C19        55.5810   30.3980    6.3670 C.ar      1 ZAA        -0.0697
      6 C20        56.8940   30.0130    6.6450 C.ar      1 ZAA        -0.0415
      7 C21        57.1540   28.6490    6.5090 C.ar      1 ZAA        -0.0305
      8 C22        58.0150   30.9630    7.0740 C.3       1 ZAA         0.0212
      9 C23        59.1470   30.9070    6.0820 C.2       1 ZAA         0.0668
     10 C24        59.3350   31.5310    4.8460 C.2       1 ZAA         0.0690
     11 C11        57.2960   23.4690   -1.0830 C.ar      1 ZAA        -0.0613
     12 C12        57.3250   23.6660    0.3020 C.ar      1 ZAA        -0.0496
     13 C34        58.5230   32.5040    4.0220 C.3       1 ZAA         0.0433
     14 C33        62.4000   28.4650    5.9840 C.ar      1 ZAA        -0.0244
     15 C1         59.8980   24.3010    5.7600 C.3       1 ZAA        -0.0015
     16 C2         58.9900   24.1130    4.5590 C.2       1 ZAA         0.1140
     17 C3         57.5990   24.0270    4.4460 C.2       1 ZAA         0.0156
     18 N4         57.3810   23.8720    3.1140 N.2       1 ZAA        -0.3129
     19 C5         58.5590   23.8800    2.4520 C.2       1 ZAA         0.1880
     20 O6         59.4840   24.0190    3.3570 O.3       1 ZAA        -0.2356
     21 C7         58.5600   23.7010    0.9690 C.ar      1 ZAA         0.0316
     22 C8         59.7740   23.5270    0.2760 C.ar      1 ZAA        -0.0496
     23 C9         59.7420   23.3280   -1.1080 C.ar      1 ZAA        -0.0613
     24 C10        58.5150   23.3070   -1.7800 C.ar      1 ZAA        -0.0620
     25 C14        55.8010   25.4240    5.5060 C.3       1 ZAA         0.0752
     26 O15        56.6730   26.4410    6.0430 O.3       1 ZAA        -0.3184
     27 N25        60.5070   31.0880    4.3750 N.2       1 ZAA        -0.1736
     28 N26        61.0840   30.2480    5.2290 N.pl3     1 ZAA        -0.0992
     29 N27        60.2440   30.1440    6.2410 N.2       1 ZAA        -0.1733
     30 C28        62.2280   29.5410    5.1190 C.ar      1 ZAA         0.1258
     31 C29        63.1510   29.8350    4.1090 C.ar      1 ZAA        -0.0244
     32 C30        64.2950   29.0470    4.0070 C.ar      1 ZAA        -0.0660
     33 C31        64.4960   27.9790    4.8800 C.ar      1 ZAA        -0.0689
     34 C32        63.5510   27.6900    5.8680 C.ar      1 ZAA        -0.0660
     35 C35        58.4980   33.8690    4.6700 C.2       1 ZAA         0.0456
     36 O36        57.6330   34.6820    4.3830 O.co2     1 ZAA        -0.5667
     37 O37        59.4140   34.2460    5.5710 O.co2     1 ZAA        -0.5667
     38 H1         56.8514   23.8120    6.4477 H         1 ZAA         0.0384
     39 H2         55.7037   23.3124    5.1594 H         1 ZAA         0.0384
     40 H3         53.5965   29.8222    5.7503 H         1 ZAA         0.0572
     41 H4         54.1672   27.4235    5.5433 H         1 ZAA         0.0487
     42 H5         55.3106   31.4432    6.4648 H         1 ZAA         0.0467
     43 H6         58.1605   28.3091    6.7247 H         1 ZAA         0.0481
     44 H7         58.3852   30.6649    8.0660 H         1 ZAA         0.0569
     45 H8         57.6236   31.9899    7.1221 H         1 ZAA         0.0569
     46 H9         56.3515   23.4410   -1.6142 H         1 ZAA         0.0617
     47 H10        56.4014   23.7906    0.8556 H         1 ZAA         0.0626
     48 H11        57.4929   32.1286    3.9330 H         1 ZAA         0.0576
     49 H12        58.9702   32.5888    3.0206 H         1 ZAA         0.0576
     50 H13        61.6521   28.2343    6.7341 H         1 ZAA         0.0585
     51 H14        60.9466   24.3170    5.4279 H         1 ZAA         0.0409
     52 H15        59.7495   23.4703    6.4656 H         1 ZAA         0.0409
     53 H16        59.6563   25.2520    6.2571 H         1 ZAA         0.0409
     54 H17        60.7186   23.5470    0.8073 H         1 ZAA         0.0626
     55 H18        60.6655   23.1904   -1.6587 H         1 ZAA         0.0617
     56 H19        58.4989   23.1639   -2.8544 H         1 ZAA         0.0615
     57 H20        54.9049   25.3583    6.1405 H         1 ZAA         0.0628
     58 H21        55.5078   25.7147    4.4864 H         1 ZAA         0.0628
     59 H22        62.9797   30.6563    3.4225 H         1 ZAA         0.0585
     60 H23        65.0335   29.2656    3.2441 H         1 ZAA         0.0599
     61 H24        65.3887   27.3704    4.7921 H         1 ZAA         0.0556
     62 H25        63.7144   26.8602    6.5460 H         1 ZAA         0.0599
@<TRIPOS>BOND
     1    1   17 1  
     2   25    1 1  
     3    2    3 ar 
     4    5    2 ar 
     5    4    3 ar 
     6    7    4 ar 
     7    4   26 1  
     8    6    5 ar 
     9    6    7 ar 
    10    8    6 1  
    11    9    8 1  
    12    9   10 1  
    13   29    9 2  
    14   10   13 1  
    15   27   10 2  
    16   12   11 ar 
    17   11   24 ar 
    18   21   12 ar 
    19   13   35 1  
    20   30   14 ar 
    21   14   34 ar 
    22   16   15 1  
    23   17   16 2  
    24   16   20 1  
    25   17   18 1  
    26   18   19 2  
    27   19   20 1  
    28   19   21 1  
    29   21   22 ar 
    30   22   23 ar 
    31   23   24 ar 
    32   26   25 1  
    33   28   27 1  
    34   28   29 1  
    35   28   30 1  
    36   30   31 ar 
    37   31   32 ar 
    38   32   33 ar 
    39   33   34 ar 
    40   35   36 ar 
    41   35   37 ar 
    42    1   38 1  
    43    1   39 1  
    44    2   40 1  
    45    3   41 1  
    46    5   42 1  
    47    7   43 1  
    48    8   44 1  
    49    8   45 1  
    50   11   46 1  
    51   12   47 1  
    52   13   48 1  
    53   13   49 1  
    54   14   50 1  
    55   15   51 1  
    56   15   52 1  
    57   15   53 1  
    58   22   54 1  
    59   23   55 1  
    60   24   56 1  
    61   25   57 1  
    62   25   58 1  
    63   31   59 1  
    64   32   60 1  
    65   33   61 1  
    66   34   62 1  
@<TRIPOS>SUBSTRUCTURE
     1 ZAA         1

