### 
### Created by X-TOOL on Mon Sep 10 21:12:56 2018
### 

@<TRIPOS>MOLECULE
3bcn_ligand
   54    53     1     0     0
SMALL
GAST_HUCK


@<TRIPOS>ATOM
      1 C1          1.1740   -8.6320   22.3530 C.2       1 E64         0.0396
      2 O1          1.7820   -8.5140   21.2080 O.co2     1 E64        -0.5688
      3 O2          1.2860   -9.6220   23.0690 O.co2     1 E64        -0.5688
      4 C2          0.3120   -7.4730   22.7650 C.3       1 E64         0.0436
      5 C3         -1.0960   -7.8990   23.1800 C.3       1 E64         0.1549
      6 O3         -1.8670   -8.8310   22.4130 O.3       1 E64        -0.3697
      7 C4         -1.8320   -6.7020   23.7500 C.2       1 E64         0.2089
      8 O4         -2.0740   -6.6030   24.9620 O.2       1 E64        -0.3940
      9 N1         -2.1640   -5.7930   22.8350 N.am      1 E64        -0.2634
     10 C6         -2.9030   -4.5760   23.1380 C.3       1 E64         0.1311
     11 C7         -2.2520   -3.3850   22.4290 C.3       1 E64        -0.0101
     12 C8         -1.6420   -2.2600   23.2690 C.3       1 E64        -0.0425
     13 C9         -2.4820   -1.0090   23.0950 C.3       1 E64        -0.0625
     14 C10        -1.5660   -2.6640   24.7320 C.3       1 E64        -0.0625
     15 C11        -4.3540   -4.7190   22.6770 C.2       1 E64         0.2017
     16 O5         -4.9590   -3.7650   22.1760 O.2       1 E64        -0.3945
     17 N2         -4.9040   -5.9160   22.8550 N.am      1 E64        -0.2851
     18 C12        -6.3190   -6.1970   22.6590 C.3       1 E64         0.0311
     19 C13        -6.8290   -7.2840   23.5830 C.3       1 E64        -0.0296
     20 C14        -7.4250   -8.4460   22.7900 C.3       1 E64        -0.0180
     21 C15        -8.1720   -7.9670   21.5430 C.3       1 E64         0.0626
     22 N3         -8.1010   -8.9270   20.4390 N.pl3     1 E64        -0.2723
     23 C16        -9.1230   -9.6890   20.0460 C.cat     1 E64         0.2882
     24 N4         -9.9940   -9.9390   21.0230 N.pl3     1 E64        -0.2849
     25 N5         -9.3350  -10.1980   18.8270 N.pl3     1 E64        -0.2849
     26 H1          0.2327   -6.7756   21.9180 H         1 E64         0.0481
     27 H2          0.7900   -6.9644   23.6152 H         1 E64         0.0481
     28 H3         -0.8905   -8.5051   24.0747 H         1 E64         0.0856
     29 H4         -2.7087   -8.9651   22.8327 H         1 E64         0.2135
     30 H5         -1.8904   -5.9556   21.8870 H         1 E64         0.1883
     31 H6         -2.8848   -4.4041   24.2243 H         1 E64         0.0800
     32 H7         -3.0240   -2.9285   21.7922 H         1 E64         0.0315
     33 H8         -1.4465   -3.7877   21.7973 H         1 E64         0.0315
     34 H9         -0.6226   -2.0576   22.9088 H         1 E64         0.0298
     35 H10        -2.0528   -0.1928   23.6947 H         1 E64         0.0232
     36 H11        -3.5106   -1.2084   23.4301 H         1 E64         0.0232
     37 H12        -2.4918   -0.7185   22.0341 H         1 E64         0.0232
     38 H13        -0.9526   -3.5718   24.8303 H         1 E64         0.0232
     39 H14        -2.5794   -2.8635   25.1104 H         1 E64         0.0232
     40 H15        -1.1110   -1.8492   25.3143 H         1 E64         0.0232
     41 H16        -4.3104   -6.6684   23.1406 H         1 E64         0.1851
     42 H17        -6.4740   -6.5176   21.6182 H         1 E64         0.0520
     43 H18        -6.8908   -5.2765   22.8482 H         1 E64         0.0520
     44 H19        -7.6042   -6.8625   24.2399 H         1 E64         0.0286
     45 H20        -5.9938   -7.6571   24.1939 H         1 E64         0.0286
     46 H21        -8.1272   -8.9934   23.4360 H         1 E64         0.0300
     47 H22        -6.6115   -9.1184   22.4800 H         1 E64         0.0300
     48 H23        -7.7300   -7.0159   21.2114 H         1 E64         0.0689
     49 H24        -9.2287   -7.8088   21.8046 H         1 E64         0.0689
     50 H25        -7.2073   -9.0194   19.9353 H         1 E64         0.2642
     51 H26       -10.8250  -10.5182   20.8363 H         1 E64         0.2615
     52 H27        -9.8362   -9.5531   21.9648 H         1 E64         0.2615
     53 H28        -8.6663  -10.0092   18.0667 H         1 E64         0.2615
     54 H29       -10.1669  -10.7786   18.6489 H         1 E64         0.2615
@<TRIPOS>BOND
     1    1    2 ar 
     2    1    3 ar 
     3    1    4 1  
     4    4    5 1  
     5    5    6 1  
     6    5    7 1  
     7    7    8 2  
     8    7    9 am 
     9    9   10 1  
    10   10   11 1  
    11   10   15 1  
    12   11   12 1  
    13   12   13 1  
    14   12   14 1  
    15   15   16 2  
    16   15   17 am 
    17   17   18 1  
    18   18   19 1  
    19   19   20 1  
    20   20   21 1  
    21   21   22 1  
    22   22   23 ar 
    23   23   24 ar 
    24   23   25 ar 
    25    4   26 1  
    26    4   27 1  
    27    5   28 1  
    28    6   29 1  
    29    9   30 1  
    30   10   31 1  
    31   11   32 1  
    32   11   33 1  
    33   12   34 1  
    34   13   35 1  
    35   13   36 1  
    36   13   37 1  
    37   14   38 1  
    38   14   39 1  
    39   14   40 1  
    40   17   41 1  
    41   18   42 1  
    42   18   43 1  
    43   19   44 1  
    44   19   45 1  
    45   20   46 1  
    46   20   47 1  
    47   21   48 1  
    48   21   49 1  
    49   22   50 1  
    50   24   51 1  
    51   24   52 1  
    52   25   53 1  
    53   25   54 1  
@<TRIPOS>SUBSTRUCTURE
     1 E64         1

