### 
### Created by X-TOOL on Mon Sep 10 21:12:57 2018
### 

@<TRIPOS>MOLECULE
3bcs_ligand
   33    34     1     0     0
SMALL
GAST_HUCK


@<TRIPOS>ATOM
      1 N1         34.2110   23.6060   28.7830 N.am      1 CJB        -0.1592
      2 O2         32.3890   24.2570   29.9950 O.2       1 CJB        -0.3815
      3 C2         33.6170   24.2610   29.8630 C.2       1 CJB         0.3328
      4 N3         34.4340   24.9320   30.7800 N.am      1 CJB        -0.1865
      5 C4         35.8250   24.9440   30.6240 C.2       1 CJB         0.1822
      6 O4         36.5020   25.5480   31.4480 O.2       1 CJB        -0.4124
      7 C5         36.4300   24.2780   29.5560 C.2       1 CJB         0.0062
      8 C6         35.6150   23.6100   28.6380 C.2       1 CJB         0.0591
      9 C1'        33.3260   22.9020   27.8180 C.3       1 CJB         0.2058
     10 O5'        33.3120   21.4810   28.1060 O.3       1 CJB        -0.3367
     11 C5'        32.2360   20.8510   27.3610 C.3       1 CJB         0.1134
     12 C6'        32.1660   19.3840   27.8020 C.3       1 CJB         0.0730
     13 O6'        33.2990   18.6750   27.3010 O.3       1 CJB        -0.3924
     14 C4'        32.4090   21.0040   25.8270 C.3       1 CJB         0.1119
     15 O4'        31.2510   20.4900   25.1550 O.3       1 CJB        -0.3865
     16 C3'        32.6490   22.4660   25.4170 C.3       1 CJB         0.1145
     17 O3'        33.0940   22.5160   24.0620 O.3       1 CJB        -0.3864
     18 C2'        33.6990   23.1260   26.3350 C.3       1 CJB         0.1387
     19 O2'        33.8330   24.5270   26.0520 O.3       1 CJB        -0.3836
     20 H1         34.0194   25.4083   31.5554 H         1 CJB         0.2259
     21 H2         37.5129   24.2791   29.4410 H         1 CJB         0.0258
     22 H3         36.0696   23.0852   27.7990 H         1 CJB         0.1178
     23 H4         32.3079   23.2925   27.9630 H         1 CJB         0.0997
     24 H5         31.2903   21.3410   27.6359 H         1 CJB         0.0647
     25 H6         31.2460   18.9275   27.4081 H         1 CJB         0.0584
     26 H7         32.1595   19.3327   28.9008 H         1 CJB         0.0584
     27 H8         34.0936   19.0688   27.6417 H         1 CJB         0.2095
     28 H9         33.2845   20.4135   25.5192 H         1 CJB         0.0647
     29 H10        30.4829   20.9737   25.4352 H         1 CJB         0.2100
     30 H11        31.7026   23.0198   25.5049 H         1 CJB         0.0648
     31 H12        33.2415   23.4204   23.8115 H         1 CJB         0.2100
     32 H13        34.6703   22.6453   26.1465 H         1 CJB         0.0676
     33 H14        34.1054   24.6419   25.1492 H         1 CJB         0.2101
@<TRIPOS>BOND
     1    1    3 am 
     2    1    8 1  
     3    1    9 1  
     4    3    2 2  
     5    3    4 am 
     6    4    5 am 
     7    5    6 2  
     8    5    7 1  
     9    7    8 2  
    10    9   10 1  
    11    9   18 1  
    12   10   11 1  
    13   11   12 1  
    14   11   14 1  
    15   12   13 1  
    16   14   15 1  
    17   14   16 1  
    18   16   17 1  
    19   16   18 1  
    20   18   19 1  
    21    4   20 1  
    22    7   21 1  
    23    8   22 1  
    24    9   23 1  
    25   11   24 1  
    26   12   25 1  
    27   12   26 1  
    28   13   27 1  
    29   14   28 1  
    30   15   29 1  
    31   16   30 1  
    32   17   31 1  
    33   18   32 1  
    34   19   33 1  
@<TRIPOS>SUBSTRUCTURE
     1 CJB         1

