### 
### Created by X-TOOL on Mon Sep 10 21:12:58 2018
### 

@<TRIPOS>MOLECULE
3be2_ligand
   69    72     1     0     0
SMALL
GAST_HUCK


@<TRIPOS>ATOM
      1 C28        37.7300   40.0880   15.3620 C.3       1 RAJ        -0.0433
      2 N6         37.5900   38.7530   15.9600 N.4       1 RAJ         0.2310
      3 C29        38.3070   37.7500   15.1510 C.3       1 RAJ        -0.0433
      4 C27        36.1470   38.4420   16.0550 C.3       1 RAJ        -0.0306
      5 C26        35.9280   37.3790   17.1150 C.3       1 RAJ        -0.0025
      6 C25        34.4720   36.9410   17.1690 C.3       1 RAJ        -0.0110
      7 C20        34.0630   36.1550   15.9320 C.ar      1 RAJ        -0.0250
      8 C19        34.9740   35.2590   15.2700 C.ar      1 RAJ        -0.0095
      9 C21        32.7310   36.3350   15.4060 C.ar      1 RAJ        -0.0442
     10 C22        32.2910   35.6300   14.2170 C.ar      1 RAJ         0.0267
     11 C24        30.8600   35.8160   13.6230 C.3       1 RAJ         0.3708
     12 F2         30.7630   36.9920   13.0440 F         1 RAJ        -0.2213
     13 F3         29.9520   35.7200   14.5600 F         1 RAJ        -0.2213
     14 F1         30.5610   34.9300   12.7110 F         1 RAJ        -0.2213
     15 C23        33.2460   34.7470   13.5930 C.ar      1 RAJ        -0.0184
     16 C18        34.5720   34.5490   14.0960 C.ar      1 RAJ         0.0888
     17 N5         35.4630   33.6860   13.4890 N.am      1 RAJ        -0.2298
     18 C17        35.4810   33.4210   12.1550 C.2       1 RAJ         0.2249
     19 O1         34.7740   33.9910   11.3270 O.2       1 RAJ        -0.3762
     20 C12        36.4170   32.3760   11.7510 C.ar      1 RAJ         0.0393
     21 C11        36.5400   32.1320   10.3360 C.ar      1 RAJ        -0.0245
     22 C13        37.1270   31.6410   12.7620 C.ar      1 RAJ        -0.0596
     23 C14        38.0250   30.5840   12.3700 C.ar      1 RAJ        -0.0637
     24 C15        38.1470   30.3380   10.9700 C.ar      1 RAJ        -0.0167
     25 C16        39.0620   29.2380   10.5240 C.3       1 RAJ        -0.0311
     26 C10        37.4400   31.0750    9.9690 C.ar      1 RAJ         0.0713
     27 N4         37.6310   30.7570    8.6530 N.pl3     1 RAJ        -0.2584
     28 C9         38.4860   31.4120    7.8070 C.ar      1 RAJ         0.1467
     29 N3         39.3130   32.3920    8.3640 N.ar      1 RAJ        -0.2763
     30 C8         40.2340   33.1760    7.7000 C.ar      1 RAJ         0.0003
     31 C7         40.3430   32.9470    6.2880 C.ar      1 RAJ        -0.0431
     32 C6         39.5100   31.9450    5.6730 C.ar      1 RAJ        -0.0389
     33 C5         38.5350   31.1210    6.3920 C.ar      1 RAJ         0.0581
     34 C3         37.6600   30.0880    5.7080 C.ar      1 RAJ         0.0710
     35 C2         37.7120   29.7890    4.2760 C.ar      1 RAJ        -0.0052
     36 C1         36.8000   28.7880    3.8300 C.ar      1 RAJ         0.0258
     37 N2         35.9330   28.1540    4.6950 N.ar      1 RAJ        -0.2674
     38 C4         35.8620   28.4120    6.0340 C.ar      1 RAJ         0.0850
     39 N1         36.7220   29.3650    6.5070 N.ar      1 RAJ        -0.2617
     40 H1         38.7969   40.3431   15.2804 H         1 RAJ         0.0777
     41 H2         37.2233   40.8294   15.9973 H         1 RAJ         0.0777
     42 H3         37.2747   40.0908   14.3607 H         1 RAJ         0.0777
     43 H4         37.9862   38.7607   16.8868 H         1 RAJ         0.2028
     44 H5         38.1925   36.7576   15.6115 H         1 RAJ         0.0777
     45 H6         39.3744   38.0115   15.1044 H         1 RAJ         0.0777
     46 H7         37.8889   37.7325   14.1337 H         1 RAJ         0.0777
     47 H8         35.7870   38.0712   15.0840 H         1 RAJ         0.0816
     48 H9         35.5929   39.3521   16.3283 H         1 RAJ         0.0816
     49 H10        36.2158   37.7865   18.0954 H         1 RAJ         0.0339
     50 H11        36.5558   36.5064   16.8819 H         1 RAJ         0.0339
     51 H12        33.8357   37.8348   17.2474 H         1 RAJ         0.0431
     52 H13        34.3251   36.3074   18.0561 H         1 RAJ         0.0431
     53 H14        35.9740   35.1212   15.6650 H         1 RAJ         0.0702
     54 H15        32.0470   37.0093   15.9086 H         1 RAJ         0.0672
     55 H16        32.9458   34.2082   12.7016 H         1 RAJ         0.0665
     56 H17        36.1377   33.2268   14.0668 H         1 RAJ         0.2252
     57 H18        35.9908   32.7070    9.5992 H         1 RAJ         0.0564
     58 H19        36.9882   31.8797   13.8102 H         1 RAJ         0.0555
     59 H20        38.5789   30.0060   13.1009 H         1 RAJ         0.0537
     60 H21        39.5286   28.7700   11.4034 H         1 RAJ         0.0379
     61 H22        39.8441   29.6535    9.8716 H         1 RAJ         0.0379
     62 H23        38.4850   28.4831    9.9698 H         1 RAJ         0.0379
     63 H24        37.0925   29.9670    8.2698 H         1 RAJ         0.2133
     64 H25        40.8365   33.9173    8.2123 H         1 RAJ         0.0810
     65 H26        41.0431   33.5205    5.6913 H         1 RAJ         0.0612
     66 H27        39.6117   31.7902    4.6049 H         1 RAJ         0.0736
     67 H28        38.3955   30.2930    3.6023 H         1 RAJ         0.0766
     68 H29        36.7877   28.5174    2.7804 H         1 RAJ         0.0924
     69 H30        35.1661   27.8929    6.6831 H         1 RAJ         0.1121
@<TRIPOS>BOND
     1    1    2 1  
     2    2    3 1  
     3    2    4 1  
     4    4    5 1  
     5    5    6 1  
     6    6    7 1  
     7    7    8 ar 
     8    7    9 ar 
     9    8   16 ar 
    10    9   10 ar 
    11   10   11 1  
    12   10   15 ar 
    13   11   12 1  
    14   11   13 1  
    15   11   14 1  
    16   15   16 ar 
    17   16   17 1  
    18   17   18 am 
    19   18   19 2  
    20   18   20 1  
    21   20   21 ar 
    22   20   22 ar 
    23   21   26 ar 
    24   22   23 ar 
    25   23   24 ar 
    26   24   25 1  
    27   24   26 ar 
    28   26   27 1  
    29   27   28 1  
    30   28   29 ar 
    31   28   33 ar 
    32   29   30 ar 
    33   30   31 ar 
    34   31   32 ar 
    35   32   33 ar 
    36   33   34 1  
    37   34   35 ar 
    38   34   39 ar 
    39   35   36 ar 
    40   36   37 ar 
    41   37   38 ar 
    42   38   39 ar 
    43    1   40 1  
    44    1   41 1  
    45    1   42 1  
    46    2   43 1  
    47    3   44 1  
    48    3   45 1  
    49    3   46 1  
    50    4   47 1  
    51    4   48 1  
    52    5   49 1  
    53    5   50 1  
    54    6   51 1  
    55    6   52 1  
    56    8   53 1  
    57    9   54 1  
    58   15   55 1  
    59   17   56 1  
    60   21   57 1  
    61   22   58 1  
    62   23   59 1  
    63   25   60 1  
    64   25   61 1  
    65   25   62 1  
    66   27   63 1  
    67   30   64 1  
    68   31   65 1  
    69   32   66 1  
    70   35   67 1  
    71   36   68 1  
    72   38   69 1  
@<TRIPOS>SUBSTRUCTURE
     1 RAJ         1

