### 
### Created by X-TOOL on Mon Sep 10 21:12:57 2018
### 

@<TRIPOS>MOLECULE
3be9_ligand
   48    52     1     0     0
SMALL
GAST_HUCK


@<TRIPOS>ATOM
      1 N01        19.8520    9.7850   20.2670 N.2       1 P04        -0.2178
      2 C02        20.0680   10.1140   18.9670 C.2       1 P04        -0.0183
      3 C03        21.0430    9.2650   18.4140 C.2       1 P04        -0.0266
      4 C04        21.4070    8.3690   19.4940 C.2       1 P04         0.1433
      5 N05        20.6640    8.7370   20.5790 N.pl3     1 P04        -0.1040
      6 N06        22.2670    7.3390   19.6120 N.2       1 P04        -0.2720
      7 C07        22.3540    6.7320   20.7960 C.2       1 P04         0.1760
      8 N08        21.6370    7.0920   21.8580 N.2       1 P04        -0.2133
      9 C09        20.7880    8.1060   21.7270 C.2       1 P04         0.2929
     10 N10        20.0240    8.5140   22.7680 N.pl3     1 P04        -0.2502
     11 C11        20.1020    7.7880   24.0350 C.3       1 P04         0.0503
     12 C12        21.1270    8.4590   24.9540 C.3       1 P04        -0.0263
     13 C13        19.6250    8.6740   25.1890 C.3       1 P04        -0.0263
     14 N17        23.1880    5.6780   21.0220 N.pl3     1 P04        -0.2465
     15 C18        23.9800    4.9910   20.1530 C.ar      1 P04         0.0529
     16 C19        24.1130    5.3020   18.7990 C.ar      1 P04        -0.0189
     17 C20        24.9290    4.5710   17.9370 C.ar      1 P04         0.0564
     18 C21        25.6290    3.4900   18.4670 C.ar      1 P04        -0.0525
     19 C22        25.5220    3.1510   19.8160 C.ar      1 P04        -0.0843
     20 C23        24.6980    3.9050   20.6500 C.ar      1 P04        -0.0531
     21 N27        25.0850    4.8270   16.6100 N.am      1 P04        -0.2365
     22 C28        25.0230    5.9710   15.8930 C.2       1 P04         0.2034
     23 O29        25.1020    5.9790   14.6700 O.2       1 P04        -0.3849
     24 C30        24.8560    7.3170   16.5840 C.3       1 P04         0.0432
     25 C31        23.3670    7.6750   16.5960 C.3       1 P04        -0.0348
     26 C32        23.0690    9.1300   16.9560 C.3       1 P04        -0.0484
     27 C33        21.5600    9.3760   16.9990 C.3       1 P04        -0.0396
     28 H1         19.5613   10.9161   18.4324 H         1 P04         0.0604
     29 H2         19.3965    9.3247   22.6687 H         1 P04         0.1987
     30 H3         19.9325    6.7032   23.9684 H         1 P04         0.0573
     31 H4         21.7484    9.2840   24.5756 H         1 P04         0.0289
     32 H5         21.7131    7.8525   25.6601 H         1 P04         0.0289
     33 H6         19.1347    8.2217   26.0636 H         1 P04         0.0289
     34 H7         19.1699    9.6532   24.9791 H         1 P04         0.0289
     35 H8         23.2248    5.3516   21.9982 H         1 P04         0.2197
     36 H9         23.5598    6.1454   18.4019 H         1 P04         0.0413
     37 H10        26.2687    2.9012   17.8195 H         1 P04         0.0412
     38 H11        26.0755    2.3076   20.2127 H         1 P04         0.0551
     39 H12        24.6147    3.6432   21.6986 H         1 P04         0.0414
     40 H13        25.2831    4.0149   16.0611 H         1 P04         0.2254
     41 H14        25.4185    8.0876   16.0366 H         1 P04         0.0508
     42 H15        25.2307    7.2533   17.6162 H         1 P04         0.0508
     43 H16        22.8640    7.0292   17.3308 H         1 P04         0.0291
     44 H17        22.9580    7.4781   15.5940 H         1 P04         0.0291
     45 H18        23.5213    9.7892   16.2005 H         1 P04         0.0278
     46 H19        23.4999    9.3537   17.9430 H         1 P04         0.0278
     47 H20        21.3471   10.3843   16.6144 H         1 P04         0.0322
     48 H21        21.0540    8.6291   16.3696 H         1 P04         0.0322
@<TRIPOS>BOND
     1    1    2 2  
     2    1    5 1  
     3    2    3 1  
     4    3    4 2  
     5    3   27 1  
     6    4    5 1  
     7    4    6 1  
     8    5    9 1  
     9    6    7 2  
    10    7    8 1  
    11    7   14 1  
    12    8    9 2  
    13    9   10 1  
    14   10   11 1  
    15   11   12 1  
    16   11   13 1  
    17   12   13 1  
    18   14   15 1  
    19   15   16 ar 
    20   15   20 ar 
    21   16   17 ar 
    22   17   18 ar 
    23   17   21 1  
    24   18   19 ar 
    25   19   20 ar 
    26   21   22 am 
    27   22   23 2  
    28   22   24 1  
    29   24   25 1  
    30   25   26 1  
    31   26   27 1  
    32    2   28 1  
    33   10   29 1  
    34   11   30 1  
    35   12   31 1  
    36   12   32 1  
    37   13   33 1  
    38   13   34 1  
    39   14   35 1  
    40   16   36 1  
    41   18   37 1  
    42   19   38 1  
    43   20   39 1  
    44   21   40 1  
    45   24   41 1  
    46   24   42 1  
    47   25   43 1  
    48   25   44 1  
    49   26   45 1  
    50   26   46 1  
    51   27   47 1  
    52   27   48 1  
@<TRIPOS>SUBSTRUCTURE
     1 P04         1

