### 
### Created by X-TOOL on Mon Sep 10 21:12:57 2018
### 

@<TRIPOS>MOLECULE
3bea_ligand
   70    75     1     0     0
SMALL
GAST_HUCK


@<TRIPOS>ATOM
      1 C1         -0.5690   33.6610    5.6790 C.3       1 IXH        -0.0198
      2 C2          0.3430   33.7460    6.8970 C.3       1 IXH        -0.0055
      3 C3          1.4550   32.6540    6.8310 C.3       1 IXH         0.0675
      4 C4          2.9600   34.1300    8.1160 C.3       1 IXH         0.0675
      5 C5          1.8420   35.2100    8.1720 C.3       1 IXH        -0.0055
      6 C6          2.4490   36.6100    8.2460 C.3       1 IXH        -0.0198
      7 C7          3.2600   31.7420    8.2360 C.ar      1 IXH         0.0299
      8 C8          3.7950   30.9080    7.1950 C.ar      1 IXH        -0.0526
      9 C9          4.7320   29.8660    7.4770 C.ar      1 IXH        -0.0486
     10 C10         5.1830   29.6120    8.8070 C.ar      1 IXH         0.0540
     11 C11         4.6570   30.4290    9.8370 C.ar      1 IXH        -0.0486
     12 C12         3.7230   31.4650    9.5610 C.ar      1 IXH        -0.0526
     13 C13         6.6290   27.4980    8.5580 C.ar      1 IXH         0.2012
     14 C14         7.8760   25.5360    8.5080 C.ar      1 IXH         0.0242
     15 C15         7.5860   25.3150    7.1600 C.ar      1 IXH         0.0922
     16 C16         8.0990   24.1450    6.4060 C.2       1 IXH         0.1322
     17 C17         7.7150   24.0200    4.9530 C.2       1 IXH         0.1104
     18 C18         6.9250   25.0020    4.4450 C.2       1 IXH         0.0976
     19 C19         5.6200   27.0930    4.4410 C.ar      1 IXH         0.0876
     20 C20         4.2130   27.2460    4.6980 C.ar      1 IXH        -0.0424
     21 C21         3.4350   28.2240    3.9970 C.ar      1 IXH        -0.0721
     22 C22         4.0690   29.0400    3.0390 C.ar      1 IXH        -0.0488
     23 C23         3.4660   30.1210    2.1920 C.3       1 IXH        -0.0237
     24 C24         4.5360   30.2890    1.0980 C.3       1 IXH        -0.0367
     25 C25         5.8870   29.8780    1.7150 C.3       1 IXH        -0.0219
     26 C26         5.4500   28.9040    2.7670 C.ar      1 IXH        -0.0463
     27 C27         6.2340   27.9480    3.4500 C.ar      1 IXH        -0.0341
     28 C28         6.7710   26.2820    6.5430 C.ar      1 IXH         0.1849
     29 C29         8.1400   22.9190    4.0410 C.2       1 IXH         0.1840
     30 N1          2.3280   32.7860    8.0300 N.pl3     1 IXH        -0.3038
     31 N2          7.4100   26.6090    9.2130 N.ar      1 IXH        -0.2575
     32 N3          6.4280   26.1280    5.1340 N.pl3     1 IXH        -0.1782
     33 N4          6.3090   27.3510    7.2530 N.ar      1 IXH        -0.2221
     34 N5          6.0860   28.6030    9.1810 N.pl3     1 IXH        -0.2486
     35 N6          0.9400   35.1250    6.9740 N.4       1 IXH         0.2337
     36 N7          8.9490   21.9600    4.5810 N.am      1 IXH        -0.3061
     37 O1          8.8120   23.3170    6.9720 O.2       1 IXH        -0.4143
     38 O2          7.8000   22.8600    2.8600 O.2       1 IXH        -0.4049
     39 H1         -1.0077   32.6540    5.6190 H         1 IXH         0.0285
     40 H2          0.0152   33.8612    4.7688 H         1 IXH         0.0285
     41 H3         -1.3729   34.4063    5.7701 H         1 IXH         0.0285
     42 H4         -0.2588   33.5728    7.8013 H         1 IXH         0.0867
     43 H5          2.0552   32.7920    5.9196 H         1 IXH         0.0565
     44 H6          0.9929   31.6559    6.8181 H         1 IXH         0.0565
     45 H7          3.5774   34.1902    9.0244 H         1 IXH         0.0565
     46 H8          3.5918   34.2981    7.2314 H         1 IXH         0.0565
     47 H9          1.2404   35.0378    9.0766 H         1 IXH         0.0867
     48 H10         1.6429   37.3575    8.2847 H         1 IXH         0.0285
     49 H11         3.0711   36.7874    7.3564 H         1 IXH         0.0285
     50 H12         3.0699   36.6932    9.1502 H         1 IXH         0.0285
     51 H13         3.4803   31.0732    6.1709 H         1 IXH         0.0490
     52 H14         5.1079   29.2559    6.6636 H         1 IXH         0.0508
     53 H15         4.9738   30.2607   10.8599 H         1 IXH         0.0508
     54 H16         3.3491   32.0653   10.3825 H         1 IXH         0.0490
     55 H17         8.5044   24.8178    9.0222 H         1 IXH         0.0922
     56 H18         6.6465   24.9100    3.3962 H         1 IXH         0.1337
     57 H19         3.7334   26.6110    5.4341 H         1 IXH         0.0497
     58 H20         2.3760   28.3343    4.2003 H         1 IXH         0.0519
     59 H21         3.3281   31.0499    2.7647 H         1 IXH         0.0398
     60 H22         2.5020   29.8064    1.7658 H         1 IXH         0.0398
     61 H23         4.5760   31.3375    0.7677 H         1 IXH         0.0304
     62 H24         4.3017   29.6427    0.2393 H         1 IXH         0.0304
     63 H25         6.4062   30.7411    2.1571 H         1 IXH         0.0412
     64 H26         6.5400   29.3993    0.9704 H         1 IXH         0.0412
     65 H27         7.2918   27.8558    3.2320 H         1 IXH         0.0489
     66 H28         6.4220   28.7142   10.1483 H         1 IXH         0.2159
     67 H29         0.2025   35.8068    7.0590 H         1 IXH         0.2020
     68 H30         1.4725   35.3084    6.1381 H         1 IXH         0.2020
     69 H31         9.2656   21.1974    4.0170 H         1 IXH         0.1793
     70 H32         9.2246   22.0205    5.5404 H         1 IXH         0.1793
@<TRIPOS>BOND
     1    2    1 1  
     2    3    2 1  
     3    2   35 1  
     4   30    3 1  
     5    4    5 1  
     6   30    4 1  
     7    5    6 1  
     8    5   35 1  
     9    8    7 ar 
    10   12    7 ar 
    11    7   30 1  
    12    9    8 ar 
    13   10    9 ar 
    14   10   11 ar 
    15   34   10 1  
    16   11   12 ar 
    17   31   13 ar 
    18   13   33 ar 
    19   13   34 1  
    20   15   14 ar 
    21   14   31 ar 
    22   16   15 1  
    23   15   28 ar 
    24   17   16 1  
    25   16   37 2  
    26   18   17 2  
    27   17   29 1  
    28   32   18 1  
    29   19   20 ar 
    30   19   27 ar 
    31   19   32 1  
    32   20   21 ar 
    33   21   22 ar 
    34   22   23 1  
    35   22   26 ar 
    36   23   24 1  
    37   24   25 1  
    38   25   26 1  
    39   26   27 ar 
    40   28   32 1  
    41   28   33 ar 
    42   29   36 am 
    43   29   38 2  
    44    1   39 1  
    45    1   40 1  
    46    1   41 1  
    47    2   42 1  
    48    3   43 1  
    49    3   44 1  
    50    4   45 1  
    51    4   46 1  
    52    5   47 1  
    53    6   48 1  
    54    6   49 1  
    55    6   50 1  
    56    8   51 1  
    57    9   52 1  
    58   11   53 1  
    59   12   54 1  
    60   14   55 1  
    61   18   56 1  
    62   20   57 1  
    63   21   58 1  
    64   23   59 1  
    65   23   60 1  
    66   24   61 1  
    67   24   62 1  
    68   25   63 1  
    69   25   64 1  
    70   27   65 1  
    71   34   66 1  
    72   35   67 1  
    73   35   68 1  
    74   36   69 1  
    75   36   70 1  
@<TRIPOS>SUBSTRUCTURE
     1 IXH         1

