### 
### Created by X-TOOL on Mon Sep 10 21:12:59 2018
### 

@<TRIPOS>MOLECULE
3bel_ligand
   54    57     1     0     0
SMALL
GAST_HUCK


@<TRIPOS>ATOM
      1 C1         16.2990   37.4260   96.8340 C.ar      1 POX        -0.0150
      2 C2         14.9610   37.3430   96.2990 C.ar      1 POX        -0.0244
      3 C3         14.1390   38.4860   96.2120 C.ar      1 POX         0.1259
      4 N6         13.6390   32.6540   86.7070 N.pl3     1 POX        -0.3165
      5 C7         17.1620   36.1640   96.9160 C.3       1 POX         0.0977
      6 C8         15.4530   33.3690   95.6360 C.2       1 POX         0.0177
      7 C9         16.4760   34.1520   92.0150 C.ar      1 POX         0.0537
      8 C10        17.2310   35.3030   92.3670 C.ar      1 POX        -0.0436
      9 C11        17.3560   35.7340   93.7050 C.ar      1 POX        -0.0402
     10 C12        16.6890   34.9690   94.7050 C.ar      1 POX         0.0840
     11 C13        15.9390   33.8240   94.3990 C.ar      1 POX        -0.0007
     12 C14        15.8280   33.4070   93.0430 C.ar      1 POX        -0.0429
     13 C15        12.8970   34.1310   89.8140 C.ar      1 POX         0.0564
     14 C16        15.1670   33.6350   89.9000 C.ar      1 POX         0.1422
     15 C19        16.3330   32.5230   87.9850 C.2       1 POX         0.0414
     16 C20        18.3720   31.9620   85.1860 C.3       1 POX         0.1154
     17 C21        19.9100   31.8560   85.2010 C.3       1 POX         0.0777
     18 C22        21.8320   31.8250   83.8940 C.3       1 POX         0.0366
     19 C4         14.6110   39.7530   96.6510 C.ar      1 POX        -0.0352
     20 C5         15.9310   39.8620   97.1820 C.ar      1 POX        -0.0703
     21 C6         16.7710   38.7010   97.2720 C.ar      1 POX        -0.0618
     22 F1         12.9030   38.3620   95.7080 F         1 POX        -0.1853
     23 N1         16.5820   35.1030   96.0790 N.pl3     1 POX        -0.1928
     24 N2         15.8300   34.1290   96.6580 N.2       1 POX        -0.2038
     25 N3         16.3180   33.7180   90.6900 N.pl3     1 POX        -0.2611
     26 N4         12.7520   33.6300   88.5560 N.ar      1 POX        -0.2689
     27 N5         14.0450   34.1580   90.5010 N.ar      1 POX        -0.2664
     28 C17        15.1190   33.0870   88.6170 C.ar      1 POX         0.0791
     29 C18        13.8530   33.1220   87.9740 C.ar      1 POX         0.1229
     30 N7         16.6570   32.6170   86.7330 N.2       1 POX        -0.1663
     31 O1         17.8930   31.9180   86.5560 O.3       1 POX        -0.2403
     32 O2         20.4030   31.9070   83.8520 O.3       1 POX        -0.3801
     33 H1         14.5815   36.3864   95.9584 H         1 POX         0.0543
     34 H2         14.4172   32.2438   86.1712 H         1 POX         0.1816
     35 H3         12.6996   32.7117   86.2885 H         1 POX         0.1816
     36 H4         17.2070   35.8206   97.9601 H         1 POX         0.0776
     37 H5         18.1776   36.3935   96.5613 H         1 POX         0.0776
     38 H6         14.8300   32.4826   95.7459 H         1 POX         0.0703
     39 H7         17.7258   35.8669   91.5845 H         1 POX         0.0529
     40 H8         17.9367   36.6126   93.9619 H         1 POX         0.0544
     41 H9         15.2514   32.5240   92.7922 H         1 POX         0.0479
     42 H10        12.0155   34.5389   90.2954 H         1 POX         0.1028
     43 H11        17.0184   31.9779   88.6324 H         1 POX         0.0753
     44 H12        17.9478   31.1212   84.6176 H         1 POX         0.0669
     45 H13        18.0701   32.9105   84.7179 H         1 POX         0.0669
     46 H14        20.2082   30.9045   85.6654 H         1 POX         0.0588
     47 H15        20.3304   32.6931   85.7776 H         1 POX         0.0588
     48 H16        22.2316   31.8623   82.8698 H         1 POX         0.0524
     49 H17        22.1312   30.8796   84.3701 H         1 POX         0.0524
     50 H18        22.2309   32.6701   84.4742 H         1 POX         0.0524
     51 H19        13.9744   40.6278   96.5831 H         1 POX         0.0546
     52 H20        16.3006   40.8239   97.5183 H         1 POX         0.0589
     53 H21        17.7727   38.7929   97.6761 H         1 POX         0.0523
     54 H22        17.1857   33.4127   90.2266 H         1 POX         0.2142
@<TRIPOS>BOND
     1    1    2 ar 
     2    5    1 1  
     3    1   21 ar 
     4    2    3 ar 
     5    3   19 ar 
     6    3   22 1  
     7   29    4 1  
     8   23    5 1  
     9   11    6 1  
    10    6   24 2  
    11    7    8 ar 
    12    7   12 ar 
    13   25    7 1  
    14    8    9 ar 
    15    9   10 ar 
    16   11   10 ar 
    17   10   23 1  
    18   12   11 ar 
    19   26   13 ar 
    20   27   13 ar 
    21   14   25 1  
    22   14   27 ar 
    23   28   14 ar 
    24   15   28 1  
    25   30   15 2  
    26   16   17 1  
    27   31   16 1  
    28   17   32 1  
    29   32   18 1  
    30   20   19 ar 
    31   21   20 ar 
    32   23   24 1  
    33   29   26 ar 
    34   28   29 ar 
    35   30   31 1  
    36    2   33 1  
    37    4   34 1  
    38    4   35 1  
    39    5   36 1  
    40    5   37 1  
    41    6   38 1  
    42    8   39 1  
    43    9   40 1  
    44   12   41 1  
    45   13   42 1  
    46   15   43 1  
    47   16   44 1  
    48   16   45 1  
    49   17   46 1  
    50   17   47 1  
    51   18   48 1  
    52   18   49 1  
    53   18   50 1  
    54   19   51 1  
    55   20   52 1  
    56   21   53 1  
    57   25   54 1  
@<TRIPOS>SUBSTRUCTURE
     1 POX         1

