### 
### Created by X-TOOL on Mon Sep 10 21:12:57 2018
### 

@<TRIPOS>MOLECULE
3bet_ligand
   56    59     1     0     0
SMALL
GAST_HUCK


@<TRIPOS>ATOM
      1 C1         -4.4080    2.6770   14.5810 C.ar      1 CTF         0.1397
      2 O1         -6.8790    1.2400   16.3670 O.2       1 CTF        -0.1234
      3 O2         -4.5970    1.6080   17.2620 O.2       1 CTF        -0.1234
      4 C2         -5.1710    3.8760   14.6790 C.ar      1 CTF         0.1085
      5 C3         -4.5390    5.0890   14.3360 C.ar      1 CTF        -0.0456
      6 C4         -3.1680    5.1750   13.8930 C.ar      1 CTF        -0.0569
      7 S1         -5.4840    0.9790   16.3420 S.o2      1 CTF         0.1753
      8 N1         -5.2610   -0.5800   16.3840 N.am      1 CTF        -0.2385
      9 O3         -5.0280    1.4330   14.8830 O.3       1 CTF        -0.1651
     10 C5         -2.4330    3.9510   13.8200 C.ar      1 CTF        -0.0599
     11 C6         -3.0490    2.7230   14.1560 C.ar      1 CTF        -0.0435
     12 O4         -6.4900    3.9680   15.0750 O.3       1 CTF        -0.3309
     13 C7         -6.8080    4.3590   16.4060 C.3       1 CTF         0.0553
     14 C8         -2.5450    6.5110   13.4940 C.3       1 CTF        -0.0140
     15 C9         -0.9610    6.4820   13.5260 C.3       1 CTF        -0.0263
     16 C10        -0.4680    5.2600   12.7240 C.3       1 CTF        -0.0410
     17 C11        -0.9740    3.9310   13.3540 C.3       1 CTF        -0.0287
     18 C12        -3.1340    7.6950   14.3210 C.3       1 CTF        -0.0423
     19 C13        -2.5530    9.0820   13.9080 C.3       1 CTF        -0.0453
     20 C14        -1.0300    9.1110   13.8770 C.3       1 CTF        -0.0240
     21 C15        -0.5160    7.8900   13.0240 C.3       1 CTF        -0.0306
     22 C16        -0.5070    9.1600   15.3370 C.3       1 CTF        -0.0590
     23 C17        -0.3620   10.1910   12.9460 C.3       1 CTF        -0.0117
     24 C18         1.0720    9.7350   12.8200 C.3       1 CTF        -0.0475
     25 C19         0.9990    8.2010   12.8830 C.3       1 CTF        -0.0490
     26 C20        -0.3800   11.5900   13.5030 C.3       1 CTF         0.0760
     27 C21        -1.6340   12.3280   13.1810 C.1       1 CTF         0.0900
     28 N2         -2.6060   12.8820   12.9830 N.1       1 CTF        -0.3036
     29 H1         -5.1133    6.0055   14.4089 H         1 CTF         0.0434
     30 H2         -5.4809   -1.0944   17.2129 H         1 CTF         0.1657
     31 H3         -4.8996   -1.0552   15.5818 H         1 CTF         0.1657
     32 H4         -2.4788    1.8035   14.0892 H         1 CTF         0.0435
     33 H5         -7.9006    4.3750   16.5323 H         1 CTF         0.0570
     34 H6         -6.4017    5.3626   16.6004 H         1 CTF         0.0570
     35 H7         -6.3675    3.6416   17.1141 H         1 CTF         0.0570
     36 H8         -2.8306    6.6880   12.4466 H         1 CTF         0.0427
     37 H9         -0.6102    6.3607   14.5615 H         1 CTF         0.0326
     38 H10         0.6319    5.2567   12.7153 H         1 CTF         0.0288
     39 H11        -0.8426    5.3332   11.6924 H         1 CTF         0.0288
     40 H12        -0.8663    3.1345   12.6030 H         1 CTF         0.0390
     41 H13        -0.3408    3.7028   14.2240 H         1 CTF         0.0390
     42 H14        -2.9095    7.5246   15.3843 H         1 CTF         0.0286
     43 H15        -4.2241    7.7152   14.1751 H         1 CTF         0.0286
     44 H16        -2.9021    9.8358   14.6290 H         1 CTF         0.0272
     45 H17        -2.9277    9.3330   12.9047 H         1 CTF         0.0272
     46 H18        -0.9557    7.9749   12.0193 H         1 CTF         0.0310
     47 H19        -0.9206   10.0436   15.8451 H         1 CTF         0.0235
     48 H20         0.5913    9.2210   15.3312 H         1 CTF         0.0235
     49 H21        -0.8210    8.2503   15.8697 H         1 CTF         0.0235
     50 H22        -0.8597   10.1937   11.9651 H         1 CTF         0.0327
     51 H23         1.6789   10.1290   13.6485 H         1 CTF         0.0269
     52 H24         1.5013   10.0641   11.8622 H         1 CTF         0.0269
     53 H25         1.4038    7.7543   11.9629 H         1 CTF         0.0268
     54 H26         1.5566    7.8205   13.7515 H         1 CTF         0.0268
     55 H27         0.4715   12.1456   13.0832 H         1 CTF         0.0559
     56 H28        -0.2775   11.5334   14.5967 H         1 CTF         0.0559
@<TRIPOS>BOND
     1    1    4 ar 
     2    9    1 1  
     3    1   11 ar 
     4    7    2 2  
     5    7    3 2  
     6    4    5 ar 
     7    4   12 1  
     8    5    6 ar 
     9    6   10 ar 
    10    6   14 1  
    11    7    8 am 
    12    7    9 1  
    13   10   11 ar 
    14   10   17 1  
    15   12   13 1  
    16   14   15 1  
    17   14   18 1  
    18   15   16 1  
    19   15   21 1  
    20   16   17 1  
    21   18   19 1  
    22   19   20 1  
    23   20   21 1  
    24   20   22 1  
    25   20   23 1  
    26   21   25 1  
    27   23   24 1  
    28   23   26 1  
    29   24   25 1  
    30   26   27 1  
    31   27   28 3  
    32    5   29 1  
    33    8   30 1  
    34    8   31 1  
    35   11   32 1  
    36   13   33 1  
    37   13   34 1  
    38   13   35 1  
    39   14   36 1  
    40   15   37 1  
    41   16   38 1  
    42   16   39 1  
    43   17   40 1  
    44   17   41 1  
    45   18   42 1  
    46   18   43 1  
    47   19   44 1  
    48   19   45 1  
    49   21   46 1  
    50   22   47 1  
    51   22   48 1  
    52   22   49 1  
    53   23   50 1  
    54   24   51 1  
    55   24   52 1  
    56   25   53 1  
    57   25   54 1  
    58   26   55 1  
    59   26   56 1  
@<TRIPOS>SUBSTRUCTURE
     1 CTF         1

