### 
### Created by X-TOOL on Mon Sep 10 21:12:57 2018
### 

@<TRIPOS>MOLECULE
3bex_ligand
   31    30     1     0     0
SMALL
GAST_HUCK


@<TRIPOS>ATOM
      1 O2          3.7490   13.6700   18.2660 O.3       1 PAU        -0.3942
      2 C1          4.5470   12.5230   16.2990 C.3       1 PAU         0.0314
      3 C2          4.3430   13.8310   17.0230 C.3       1 PAU         0.0538
      4 C3          5.3890   11.6250   17.1540 C.3       1 PAU        -0.0532
      5 C4          5.2270   12.7970   14.9760 C.3       1 PAU        -0.0532
      6 C5          3.1870   11.9050   16.0200 C.3       1 PAU         0.1507
      7 O5'         2.4120   12.7940   15.2560 O.3       1 PAU        -0.3708
      8 C6          3.1500   10.5570   15.3360 C.2       1 PAU         0.2056
      9 O6'         3.3850    9.5210   16.0300 O.2       1 PAU        -0.3942
     10 N           2.8950   10.4820   14.1180 N.am      1 PAU        -0.2832
     11 C8          2.7530    9.2730   13.3530 C.3       1 PAU         0.0424
     12 C9          3.4880    9.4070   12.0210 C.3       1 PAU         0.0204
     13 C           3.0250   10.5080   11.1050 C.2       1 PAU         0.0367
     14 OXT         2.3810   11.4360   11.5100 O.co2     1 PAU        -0.5689
     15 O           3.3820   10.4150    9.9400 O.co2     1 PAU        -0.5689
     16 H1          3.6437   14.5196   18.6778 H         1 PAU         0.2094
     17 H2          5.3222   14.3127   17.1611 H         1 PAU         0.0565
     18 H3          3.7001   14.4770   16.4072 H         1 PAU         0.0565
     19 H4          5.5452   10.6669   16.6366 H         1 PAU         0.0238
     20 H5          4.8781   11.4456   18.1115 H         1 PAU         0.0238
     21 H6          6.3617   12.1033   17.3413 H         1 PAU         0.0238
     22 H7          4.5916   13.4567   14.3669 H         1 PAU         0.0238
     23 H8          5.3877   11.8483   14.4429 H         1 PAU         0.0238
     24 H9          6.1961   13.2853   15.1560 H         1 PAU         0.0238
     25 H10         2.7006   11.7754   16.9981 H         1 PAU         0.0843
     26 H11         2.2976   13.6057   15.7361 H         1 PAU         0.2133
     27 H12         2.7781   11.3449   13.6263 H         1 PAU         0.1853
     28 H13         1.6859    9.0858   13.1627 H         1 PAU         0.0538
     29 H14         3.1776    8.4314   13.9200 H         1 PAU         0.0538
     30 H15         3.3774    8.4549   11.4813 H         1 PAU         0.0450
     31 H16         4.5512    9.5817   12.2423 H         1 PAU         0.0450
@<TRIPOS>BOND
     1    1    3 1  
     2    3    2 1  
     3    2    4 1  
     4    2    5 1  
     5    2    6 1  
     6    6    7 1  
     7    6    8 1  
     8    8    9 2  
     9    8   10 am 
    10   10   11 1  
    11   11   12 1  
    12   12   13 1  
    13   13   14 ar 
    14   13   15 ar 
    15    1   16 1  
    16    3   17 1  
    17    3   18 1  
    18    4   19 1  
    19    4   20 1  
    20    4   21 1  
    21    5   22 1  
    22    5   23 1  
    23    5   24 1  
    24    6   25 1  
    25    7   26 1  
    26   10   27 1  
    27   11   28 1  
    28   11   29 1  
    29   12   30 1  
    30   12   31 1  
@<TRIPOS>SUBSTRUCTURE
     1 PAU         1

