### 
### Created by X-TOOL on Mon Sep 10 21:12:58 2018
### 

@<TRIPOS>MOLECULE
3bft_ligand
   19    19     1     0     0
SMALL
GAST_HUCK


@<TRIPOS>ATOM
      1 CD2       -11.6930   27.1040   40.2530 C.2       1 S2P         0.2535
      2 CG        -11.5500   25.9660   41.2070 C.2       1 S2P         0.1296
      3 N1        -11.2920   24.8240   40.5660 N.2       1 S2P        -0.2273
      4 CB        -11.6940   26.1750   42.7000 C.3       1 S2P         0.0738
      5 CA        -10.3180   26.4110   43.3730 C.3       1 S2P         0.0447
      6 O2        -11.9510   28.2885   40.8000 O.2       1 S2P        -0.3723
      7 O         -11.2456   27.4687   45.3608 O.co2     1 S2P        -0.5641
      8 C         -10.4690   26.6390   44.9170 C.2       1 S2P         0.0876
      9 O          -9.6600   25.8090   45.5694 O.co2     1 S2P        -0.5641
     10 N2        -11.5470   26.7820   38.9290 N.am      1 S2P        -0.2055
     11 N          -9.2920   25.2620   43.1590 N.4       1 S2P         0.2348
     12 SE1       -11.2190   25.0550   38.8120 S.3       1 S2P         0.0735
     13 H1        -12.1607   25.2829   43.1430 H         1 S2P         0.0598
     14 H2        -12.3347   27.0511   42.8787 H         1 S2P         0.0598
     15 H3         -9.8948   27.3239   42.9287 H         1 S2P         0.1059
     16 H4        -11.6150   27.4184   38.1607 H         1 S2P         0.2067
     17 H5         -8.4284   25.4916   43.6254 H         1 S2P         0.2012
     18 H6         -9.1202   25.1443   42.1728 H         1 S2P         0.2012
     19 H7         -9.6623   24.4055   43.5402 H         1 S2P         0.2012
@<TRIPOS>BOND
     1    1    2 1  
     2    1    6 2  
     3    1   10 am 
     4    2    3 2  
     5    2    4 1  
     6    3   12 1  
     7    4    5 1  
     8    5    8 1  
     9    5   11 1  
    10    8    7 ar 
    11    8    9 ar 
    12   10   12 1  
    13    4   13 1  
    14    4   14 1  
    15    5   15 1  
    16   10   16 1  
    17   11   17 1  
    18   11   18 1  
    19   11   19 1  
@<TRIPOS>SUBSTRUCTURE
     1 S2P         1

