### 
### Created by X-TOOL on Mon Sep 10 21:12:58 2018
### 

@<TRIPOS>MOLECULE
3bfu_ligand
   19    19     1     0     0
SMALL
GAST_HUCK


@<TRIPOS>ATOM
      1 N1        -32.2300   -6.5760   43.1720 N.2       1 R2P        -0.2273
      2 N         -31.3080   -4.1160   44.7160 N.4       1 R2P         0.2348
      3 CA        -31.2140   -3.8620   43.2200 C.3       1 R2P         0.0447
      4 C         -30.4950   -2.5070   43.0600 C.2       1 R2P         0.0876
      5 O2        -29.6806   -7.3881   40.8468 O.2       1 R2P        -0.3723
      6 CD2       -30.7230   -7.4440   41.6710 C.2       1 R2P         0.2535
      7 N2        -31.4560   -8.5460   41.8970 N.am      1 R2P        -0.2055
      8 SE1       -32.6500   -8.2060   42.9730 S.3       1 R2P         0.0735
      9 CG        -31.1780   -6.2870   42.4170 C.2       1 R2P         0.1296
     10 CB        -30.4930   -4.9290   42.3070 C.3       1 R2P         0.0738
     11 O         -30.4644   -1.7643   44.1629 O.co2     1 R2P        -0.5641
     12 O         -30.0499   -2.2225   41.9603 O.co2     1 R2P        -0.5641
     13 H1        -31.7730   -4.9954   44.8789 H         1 R2P         0.2012
     14 H2        -31.8325   -3.3730   45.1507 H         1 R2P         0.2012
     15 H3        -30.3809   -4.1481   45.1103 H         1 R2P         0.2012
     16 H4        -32.2433   -3.7710   42.8430 H         1 R2P         0.1059
     17 H5        -31.2989   -9.4386   41.4744 H         1 R2P         0.2067
     18 H6        -29.4448   -5.0270   42.6257 H         1 R2P         0.0598
     19 H7        -30.5281   -4.5911   41.2608 H         1 R2P         0.0598
@<TRIPOS>BOND
     1    1    8 1  
     2    9    1 2  
     3    3    2 1  
     4    3    4 1  
     5   10    3 1  
     6    4   11 ar 
     7    4   12 ar 
     8    6    5 2  
     9    6    7 am 
    10    9    6 1  
    11    7    8 1  
    12    9   10 1  
    13    2   13 1  
    14    2   14 1  
    15    2   15 1  
    16    3   16 1  
    17    7   17 1  
    18   10   18 1  
    19   10   19 1  
@<TRIPOS>SUBSTRUCTURE
     1 R2P         1

