### 
### Created by X-TOOL on Mon Sep 10 21:12:57 2018
### 

@<TRIPOS>MOLECULE
3bg8_ligand
   26    25     1     0     0
SMALL
GAST_HUCK


@<TRIPOS>ATOM
      1 C16        50.5930   24.8570   11.6280 C.2       1 INH         0.1693
      2 O17        50.6080   24.7300   10.4260 O.2       1 INH        -0.3831
      3 N18        51.0020   23.8640   12.4520 N.am      1 INH        -0.2885
      4 C19        51.4800   22.6030   11.8750 C.3       1 INH         0.0313
      5 C20        50.3110   21.7560   11.3590 C.3       1 INH        -0.0294
      6 C21        49.3640   21.4900   12.5340 C.3       1 INH        -0.0179
      7 C22        48.1690   20.6280   12.1230 C.3       1 INH         0.0626
      8 N23        48.5680   19.2220   12.0290 N.pl3     1 INH        -0.2723
      9 C24        47.6950   18.2860   11.5050 C.cat     1 INH         0.2882
     10 N25        46.3850   18.6010   11.2230 N.pl3     1 INH        -0.2849
     11 N26        48.1090   17.0770   11.2580 N.pl3     1 INH        -0.2849
     12 H1         50.2417   25.7935   12.0587 H         1 INH         0.1544
     13 H2         50.9785   23.9888   13.4439 H         1 INH         0.1860
     14 H3         52.0211   22.0365   12.6472 H         1 INH         0.0522
     15 H4         52.1597   22.8249   11.0391 H         1 INH         0.0522
     16 H5         50.6881   20.8027   10.9604 H         1 INH         0.0286
     17 H6         49.7776   22.2999   10.5655 H         1 INH         0.0286
     18 H7         48.9929   22.4525   12.9160 H         1 INH         0.0300
     19 H8         49.9204   20.9703   13.3279 H         1 INH         0.0300
     20 H9         47.7964   20.9661   11.1448 H         1 INH         0.0689
     21 H10        47.3719   20.7300   12.8742 H         1 INH         0.0689
     22 H11        49.5007   18.9296   12.3538 H         1 INH         0.2642
     23 H12        45.7556   17.8849   10.8331 H         1 INH         0.2615
     24 H13        46.0342   19.5528   11.4019 H         1 INH         0.2615
     25 H14        49.0846   16.8154   11.4598 H         1 INH         0.2615
     26 H15        47.4610   16.3819   10.8607 H         1 INH         0.2615
@<TRIPOS>BOND
     1    1    2 2  
     2    1    3 am 
     3    3    4 1  
     4    4    5 1  
     5    5    6 1  
     6    6    7 1  
     7    7    8 1  
     8    8    9 ar 
     9    9   10 ar 
    10    9   11 ar 
    11    1   12 1  
    12    3   13 1  
    13    4   14 1  
    14    4   15 1  
    15    5   16 1  
    16    5   17 1  
    17    6   18 1  
    18    6   19 1  
    19    7   20 1  
    20    7   21 1  
    21    8   22 1  
    22   10   23 1  
    23   10   24 1  
    24   11   25 1  
    25   11   26 1  
@<TRIPOS>SUBSTRUCTURE
     1 INH         1

