### 
### Created by X-TOOL on Mon Sep 10 21:12:58 2018
### 

@<TRIPOS>MOLECULE
3bgb_ligand
   75    76     1     0     0
SMALL
GAST_HUCK


@<TRIPOS>ATOM
      1 N1         13.4870  -18.6170  -17.9370 N.4       1 LJG         0.2293
      2 C5         12.3890  -18.1910  -18.8500 C.3       1 LJG        -0.0162
      3 C6         11.1410  -17.6480  -18.1310 C.3       1 LJG         0.0694
      4 C8          9.1060  -19.1030  -18.8250 C.3       1 LJG         0.0320
      5 C10         8.9960  -17.6440  -20.9120 C.3       1 LJG        -0.0612
      6 C13         9.4260  -17.7770  -15.3940 C.ar      1 LJG         0.0949
      7 C15         7.6470  -16.2860  -14.7590 C.ar      1 LJG        -0.0429
      8 C17         9.9050  -15.9360  -13.9170 C.ar      1 LJG        -0.0429
      9 C22        14.3970  -22.2320  -15.7470 C.3       1 LJG         0.0320
     10 C24        13.7870  -22.0200  -13.2770 C.3       1 LJG        -0.0612
     11 C28        14.9750  -24.5300  -18.7430 C.ar      1 LJG        -0.0471
     12 C2         14.3760  -19.6080  -18.6030 C.3       1 LJG        -0.0162
     13 C3         14.9670  -20.6810  -17.6800 C.3       1 LJG         0.0694
     14 N4         14.1930  -21.7880  -17.1510 N.am      1 LJG        -0.2302
     15 S26        13.1130  -22.5420  -18.1440 S.o2      1 LJG         0.0649
     16 O35        12.4210  -23.4820  -17.2740 O.2       1 LJG        -0.1518
     17 O34        12.3090  -21.6700  -18.9570 O.2       1 LJG        -0.1518
     18 C27        14.2180  -23.4470  -19.2050 C.ar      1 LJG         0.0949
     19 C32        14.2920  -23.0550  -20.5450 C.ar      1 LJG        -0.0471
     20 C31        15.1540  -23.7260  -21.4150 C.ar      1 LJG        -0.0429
     21 C30        15.9320  -24.7900  -20.9530 C.ar      1 LJG         0.0353
     22 N33        16.8150  -25.4410  -21.8430 N.pl3     1 LJG        -0.3369
     23 C29        15.8090  -25.2190  -19.6270 C.ar      1 LJG        -0.0429
     24 C23        14.1520  -21.2360  -14.5670 C.3       1 LJG        -0.0296
     25 C25        15.4300  -20.3810  -14.3150 C.3       1 LJG        -0.0612
     26 N7         10.0890  -18.6200  -17.8590 N.am      1 LJG        -0.2302
     27 S12         9.9690  -19.2140  -16.3060 S.o2      1 LJG         0.0649
     28 O21         8.8840  -20.1610  -16.3150 O.2       1 LJG        -0.1518
     29 O20        11.2840  -19.5210  -15.8610 O.2       1 LJG        -0.1518
     30 C18        10.3350  -17.0830  -14.5910 C.ar      1 LJG        -0.0471
     31 C16         8.5660  -15.5450  -14.0100 C.ar      1 LJG         0.0353
     32 N19         8.1300  -14.3980  -13.3090 N.pl3     1 LJG        -0.3369
     33 C14         8.0860  -17.4030  -15.4800 C.ar      1 LJG        -0.0471
     34 C9          9.4880  -19.0040  -20.3330 C.3       1 LJG        -0.0296
     35 C11         8.8550  -20.1690  -21.1360 C.3       1 LJG        -0.0612
     36 H1         13.0867  -19.0349  -17.1116 H         1 LJG         0.2015
     37 H2         14.0306  -17.8096  -17.6750 H         1 LJG         0.2015
     38 H3         12.0876  -19.0591  -19.4546 H         1 LJG         0.0830
     39 H4         12.7769  -17.4012  -19.5101 H         1 LJG         0.0830
     40 H5         10.7109  -16.8524  -18.7570 H         1 LJG         0.0531
     41 H6         11.4643  -17.2234  -17.1691 H         1 LJG         0.0531
     42 H7          8.1832  -18.5228  -18.6777 H         1 LJG         0.0480
     43 H8          8.9129  -20.1624  -18.6005 H         1 LJG         0.0480
     44 H9          9.2677  -17.5787  -21.9759 H         1 LJG         0.0233
     45 H10         9.4698  -16.8181  -20.3612 H         1 LJG         0.0233
     46 H11         7.9031  -17.5749  -20.8078 H         1 LJG         0.0233
     47 H12         6.6022  -15.9978  -14.7813 H         1 LJG         0.0515
     48 H13        10.6042  -15.3545  -13.3271 H         1 LJG         0.0515
     49 H14        15.4422  -22.5658  -15.6685 H         1 LJG         0.0480
     50 H15        13.7255  -23.0879  -15.5842 H         1 LJG         0.0480
     51 H16        13.6166  -21.3113  -12.4531 H         1 LJG         0.0233
     52 H17        14.6129  -22.6971  -13.0133 H         1 LJG         0.0233
     53 H18        12.8730  -22.6068  -13.4508 H         1 LJG         0.0233
     54 H19        14.9144  -24.8327  -17.7039 H         1 LJG         0.0602
     55 H20        15.2103  -19.0599  -19.0650 H         1 LJG         0.0830
     56 H21        13.7930  -20.1160  -19.3853 H         1 LJG         0.0830
     57 H22        15.3614  -20.1431  -16.8053 H         1 LJG         0.0531
     58 H23        15.7996  -21.1341  -18.2380 H         1 LJG         0.0531
     59 H24        13.6833  -22.2343  -20.9068 H         1 LJG         0.0602
     60 H25        15.2196  -23.4199  -22.4528 H         1 LJG         0.0515
     61 H26        17.3931  -26.2267  -21.5122 H         1 LJG         0.1719
     62 H27        16.8807  -25.1300  -22.8227 H         1 LJG         0.1719
     63 H28        16.3614  -26.0868  -19.2852 H         1 LJG         0.0515
     64 H29        13.3186  -20.5678  -14.8297 H         1 LJG         0.0311
     65 H30        15.6866  -19.8267  -15.2298 H         1 LJG         0.0233
     66 H31        16.2652  -21.0421  -14.0405 H         1 LJG         0.0233
     67 H32        15.2405  -19.6706  -13.4969 H         1 LJG         0.0233
     68 H33        11.3577  -17.4286  -14.4922 H         1 LJG         0.0602
     69 H34         7.1458  -14.1003  -13.3700 H         1 LJG         0.1719
     70 H35         8.7964  -13.8597  -12.7371 H         1 LJG         0.1719
     71 H36         7.3949  -17.9678  -16.0952 H         1 LJG         0.0602
     72 H37        10.5825  -19.0601  -20.4270 H         1 LJG         0.0311
     73 H38         9.2032  -21.1285  -20.7261 H         1 LJG         0.0233
     74 H39         9.1536  -20.0914  -22.1918 H         1 LJG         0.0233
     75 H40         7.7590  -20.1139  -21.0598 H         1 LJG         0.0233
@<TRIPOS>BOND
     1    2    1 1  
     2    1   12 1  
     3    3    2 1  
     4   26    3 1  
     5   26    4 1  
     6    4   34 1  
     7   34    5 1  
     8   27    6 1  
     9    6   30 ar 
    10    6   33 ar 
    11    7   31 ar 
    12   33    7 ar 
    13   30    8 ar 
    14    8   31 ar 
    15   14    9 1  
    16    9   24 1  
    17   24   10 1  
    18   18   11 ar 
    19   11   23 ar 
    20   12   13 1  
    21   13   14 1  
    22   14   15 am 
    23   15   16 2  
    24   15   17 2  
    25   15   18 1  
    26   18   19 ar 
    27   19   20 ar 
    28   20   21 ar 
    29   21   22 1  
    30   23   21 ar 
    31   24   25 1  
    32   26   27 am 
    33   27   28 2  
    34   27   29 2  
    35   31   32 1  
    36   34   35 1  
    37    1   36 1  
    38    1   37 1  
    39    2   38 1  
    40    2   39 1  
    41    3   40 1  
    42    3   41 1  
    43    4   42 1  
    44    4   43 1  
    45    5   44 1  
    46    5   45 1  
    47    5   46 1  
    48    7   47 1  
    49    8   48 1  
    50    9   49 1  
    51    9   50 1  
    52   10   51 1  
    53   10   52 1  
    54   10   53 1  
    55   11   54 1  
    56   12   55 1  
    57   12   56 1  
    58   13   57 1  
    59   13   58 1  
    60   19   59 1  
    61   20   60 1  
    62   22   61 1  
    63   22   62 1  
    64   23   63 1  
    65   24   64 1  
    66   25   65 1  
    67   25   66 1  
    68   25   67 1  
    69   30   68 1  
    70   32   69 1  
    71   32   70 1  
    72   33   71 1  
    73   34   72 1  
    74   35   73 1  
    75   35   74 1  
    76   35   75 1  
@<TRIPOS>SUBSTRUCTURE
     1 LJG         1

