### 
### Created by X-TOOL on Mon Sep 10 21:12:58 2018
### 

@<TRIPOS>MOLECULE
3bgc_ligand
   77    80     1     0     0
SMALL
GAST_HUCK


@<TRIPOS>ATOM
      1 N1        -13.3820   18.9010  -17.8500 N.4       1 LJH         0.2293
      2 C5        -14.2520   19.9470  -18.4590 C.3       1 LJH        -0.0160
      3 C6        -14.8450   20.9590  -17.4680 C.3       1 LJH         0.0716
      4 C8         -8.7430   18.9390  -17.9890 C.3       1 LJH         0.0633
      5 C10        -8.4930   18.5970  -20.4970 C.ar      1 LJH        -0.0588
      6 C13        -9.8200   20.9900  -21.0350 C.ar      1 LJH        -0.0685
      7 C17        -8.1500   17.2640  -15.0420 C.ar      1 LJH        -0.0471
      8 C28       -16.1350   20.4060  -13.2470 C.ar      1 LJH        -0.0685
      9 C2        -12.1640   18.6730  -18.6780 C.3       1 LJH        -0.0160
     10 C3        -11.0850   17.8590  -17.9090 C.3       1 LJH         0.0716
     11 N4         -9.9890   18.6150  -17.3040 N.am      1 LJH        -0.2192
     12 C27       -15.7270   21.2150  -14.3070 C.ar      1 LJH        -0.0588
     13 C31       -13.4870   21.2080  -13.4320 C.ar      1 LJH        -0.0588
     14 C30       -13.9010   20.4540  -12.3350 C.ar      1 LJH        -0.0685
     15 C29       -15.2500   20.1080  -12.2040 C.ar      1 LJH        -0.0687
     16 C25       -13.8740   22.4580  -15.5850 C.3       1 LJH         0.0633
     17 N7        -13.9590   21.9910  -16.9630 N.am      1 LJH        -0.2192
     18 C18        -7.7200   16.0600  -14.4590 C.ar      1 LJH        -0.0429
     19 C16        -9.5100   17.5760  -14.9800 C.ar      1 LJH         0.0951
     20 C14        -9.5870   20.5950  -19.7150 C.ar      1 LJH        -0.0588
     21 C9         -8.9500   19.3840  -19.4380 C.ar      1 LJH        -0.0244
     22 C11        -8.6900   19.0040  -21.8130 C.ar      1 LJH        -0.0685
     23 S15       -10.1040   19.1010  -15.7120 S.o2      1 LJH         0.0666
     24 O24        -9.1370   20.1340  -15.4550 O.2       1 LJH        -0.1516
     25 O23       -11.4960   19.2250  -15.4010 O.2       1 LJH        -0.1516
     26 C21       -10.4610   16.7560  -14.3650 C.ar      1 LJH        -0.0471
     27 C20       -10.0180   15.5740  -13.7700 C.ar      1 LJH        -0.0429
     28 C19        -8.6730   15.2170  -13.8630 C.ar      1 LJH         0.0353
     29 N22        -8.2860   13.9910  -13.2910 N.pl3     1 LJH        -0.3369
     30 C12        -9.3170   20.2210  -22.0850 C.ar      1 LJH        -0.0687
     31 S32       -12.9500   22.7540  -18.0350 S.o2      1 LJH         0.0666
     32 O41       -12.1450   21.7670  -18.7190 O.2       1 LJH        -0.1516
     33 O40       -12.3010   23.7860  -17.2520 O.2       1 LJH        -0.1516
     34 C33       -14.0640   23.5050  -19.1970 C.ar      1 LJH         0.0951
     35 C38       -14.8730   24.5730  -18.7900 C.ar      1 LJH        -0.0471
     36 C37       -15.7500   25.1620  -19.7010 C.ar      1 LJH        -0.0429
     37 C36       -15.8240   24.6960  -21.0150 C.ar      1 LJH         0.0353
     38 N39       -16.7480   25.2980  -21.8970 N.pl3     1 LJH        -0.3369
     39 C35       -15.0050   23.6430  -21.4250 C.ar      1 LJH        -0.0429
     40 C34       -14.1210   23.0480  -20.5140 C.ar      1 LJH        -0.0471
     41 C26       -14.3890   21.6180  -14.4270 C.ar      1 LJH        -0.0244
     42 H1        -13.9005   18.0393  -17.7818 H         1 LJH         0.2015
     43 H2        -13.1032   19.1993  -16.9284 H         1 LJH         0.2015
     44 H3        -15.0851   19.4422  -18.9700 H         1 LJH         0.0830
     45 H4        -13.6527   20.5024  -19.1954 H         1 LJH         0.0830
     46 H5        -15.2208   20.3933  -16.6027 H         1 LJH         0.0533
     47 H6        -15.6848   21.4610  -17.9707 H         1 LJH         0.0533
     48 H7         -8.1000   18.0465  -17.9859 H         1 LJH         0.0641
     49 H8         -8.2442   19.7522  -17.4414 H         1 LJH         0.0641
     50 H9         -7.9816   17.6633  -20.2927 H         1 LJH         0.0557
     51 H10       -10.3887   21.8893  -21.2422 H         1 LJH         0.0599
     52 H11        -7.4464   17.9316  -15.5260 H         1 LJH         0.0602
     53 H12       -17.1423   20.0059  -13.2305 H         1 LJH         0.0599
     54 H13       -11.7393   19.6472  -18.9620 H         1 LJH         0.0830
     55 H14       -12.4487   18.1188  -19.5845 H         1 LJH         0.0830
     56 H15       -10.6428   17.1425  -18.6168 H         1 LJH         0.0533
     57 H16       -11.5947   17.3110  -17.1029 H         1 LJH         0.0533
     58 H17       -16.4519   21.5359  -15.0463 H         1 LJH         0.0557
     59 H18       -12.4425   21.4847  -13.5191 H         1 LJH         0.0557
     60 H19       -13.1819   20.1377  -11.5880 H         1 LJH         0.0599
     61 H20       -15.6056   19.6154  -11.3063 H         1 LJH         0.0559
     62 H21       -14.4235   23.4101  -15.5458 H         1 LJH         0.0641
     63 H22       -12.8080   22.6414  -15.3849 H         1 LJH         0.0641
     64 H23        -6.6712   15.7863  -14.4689 H         1 LJH         0.0515
     65 H24        -9.9036   21.2345  -18.8990 H         1 LJH         0.0557
     66 H25        -8.3555   18.3741  -22.6293 H         1 LJH         0.0599
     67 H26       -11.5097   17.0299  -14.3508 H         1 LJH         0.0602
     68 H27       -10.7155   14.9368  -13.2384 H         1 LJH         0.0515
     69 H28        -7.3024   13.6889  -13.3371 H         1 LJH         0.1719
     70 H29        -8.9863   13.3957  -12.8262 H         1 LJH         0.1719
     71 H30        -9.4128   20.5673  -23.1077 H         1 LJH         0.0559
     72 H31       -14.8180   24.9404  -17.7716 H         1 LJH         0.0602
     73 H32       -16.3785   25.9873  -19.3865 H         1 LJH         0.0515
     74 H33       -16.8193   24.9699  -22.8707 H         1 LJH         0.1719
     75 H34       -17.3506   26.0652  -21.5666 H         1 LJH         0.1719
     76 H35       -15.0524   23.2854  -22.4472 H         1 LJH         0.0515
     77 H36       -13.4817   22.2328  -20.8329 H         1 LJH         0.0602
@<TRIPOS>BOND
     1    1    2 1  
     2    9    1 1  
     3    2    3 1  
     4    3   17 1  
     5    4   11 1  
     6   21    4 1  
     7   21    5 ar 
     8    5   22 ar 
     9   20    6 ar 
    10    6   30 ar 
    11    7   18 ar 
    12   19    7 ar 
    13   12    8 ar 
    14    8   15 ar 
    15   10    9 1  
    16   11   10 1  
    17   11   23 am 
    18   41   12 ar 
    19   13   14 ar 
    20   41   13 ar 
    21   14   15 ar 
    22   17   16 1  
    23   16   41 1  
    24   17   31 am 
    25   18   28 ar 
    26   23   19 1  
    27   19   26 ar 
    28   20   21 ar 
    29   22   30 ar 
    30   23   24 2  
    31   23   25 2  
    32   26   27 ar 
    33   27   28 ar 
    34   28   29 1  
    35   31   32 2  
    36   31   33 2  
    37   31   34 1  
    38   34   35 ar 
    39   34   40 ar 
    40   35   36 ar 
    41   36   37 ar 
    42   37   38 1  
    43   37   39 ar 
    44   39   40 ar 
    45    1   42 1  
    46    1   43 1  
    47    2   44 1  
    48    2   45 1  
    49    3   46 1  
    50    3   47 1  
    51    4   48 1  
    52    4   49 1  
    53    5   50 1  
    54    6   51 1  
    55    7   52 1  
    56    8   53 1  
    57    9   54 1  
    58    9   55 1  
    59   10   56 1  
    60   10   57 1  
    61   12   58 1  
    62   13   59 1  
    63   14   60 1  
    64   15   61 1  
    65   16   62 1  
    66   16   63 1  
    67   18   64 1  
    68   20   65 1  
    69   22   66 1  
    70   26   67 1  
    71   27   68 1  
    72   29   69 1  
    73   29   70 1  
    74   30   71 1  
    75   35   72 1  
    76   36   73 1  
    77   38   74 1  
    78   38   75 1  
    79   39   76 1  
    80   40   77 1  
@<TRIPOS>SUBSTRUCTURE
     1 LJH         1

