### 
### Created by X-TOOL on Mon Sep 10 21:12:58 2018
### 

@<TRIPOS>MOLECULE
3bgl_ligand
   77    80     1     0     0
SMALL
GAST_HUCK


@<TRIPOS>ATOM
      1 N1          3.5320    6.3320  -11.8520 N.pl3     1 RID        -0.2622
      2 N3          0.5930    6.7530  -15.5360 N.am      1 RID        -0.2348
      3 C5          3.2870    5.1110  -12.3100 C.2       1 RID         0.0661
      4 C6          2.6960    8.6620  -11.9900 C.3       1 RID         0.0109
      5 C7          4.6720    6.6130  -10.9710 C.3       1 RID         0.0560
      6 C8          4.2520    6.6630   -9.5220 C.3       1 RID         0.0007
      7 C10         5.0850    6.1690   -7.2390 C.3       1 RID         0.0009
      8 C13         1.4040    9.1500  -11.3240 C.3       1 RID        -0.0504
      9 C15         5.5120    2.0760  -12.4930 C.ar      1 RID        -0.0320
     10 C17         1.7930    7.3120  -16.1590 C.3       1 RID         0.0526
     11 C20         2.0200    6.6010  -17.4920 C.3       1 RID         0.0647
     12 C21         3.4430    3.0970  -10.9510 C.ar      1 RID        -0.0597
     13 C22        -0.0260    2.1260  -13.9490 C.ar      1 RID        -0.0664
     14 C24         3.9920    1.8660  -10.6230 C.ar      1 RID        -0.0320
     15 C26        -0.6260    6.6820  -16.3520 C.3       1 RID         0.0526
     16 C28         0.5390    1.7080  -15.1450 C.ar      1 RID        -0.0663
     17 O5         -0.7840    6.3690  -13.6010 O.2       1 RID        -0.1564
     18 S1          0.4110    7.0330  -14.0530 S.o2      1 RID         0.0508
     19 O2          0.2650    8.4510  -13.9000 O.2       1 RID        -0.1564
     20 C23        -0.2590    6.0000  -17.6670 C.3       1 RID         0.0647
     21 O1          0.8370    6.6730  -18.2880 O.3       1 RID        -0.3766
     22 C2          1.7200    6.4860  -13.1760 C.2       1 RID         0.1009
     23 C1          2.0980    5.1660  -13.1560 C.2       1 RID        -0.0082
     24 C31         1.5300    3.9720  -13.8440 C.ar      1 RID        -0.0387
     25 C25         0.4730    3.2530  -13.2980 C.ar      1 RID        -0.0619
     26 C19         1.6080    2.4170  -15.6900 C.ar      1 RID        -0.0664
     27 C16         2.1090    3.5430  -15.0340 C.ar      1 RID        -0.0619
     28 C12         2.6220    7.2140  -12.3540 C.2       1 RID         0.0720
     29 C14         3.1040    9.4910  -13.1890 C.3       1 RID        -0.0504
     30 C27         3.9250    3.8070  -12.0490 C.ar      1 RID        -0.0095
     31 C30         5.0240    1.3630  -11.4000 C.ar      1 RID         0.1283
     32 F1          5.5450    0.1770  -11.0800 F         1 RID        -0.1864
     33 C18         4.9660    3.3130  -12.8200 C.ar      1 RID        -0.0597
     34 C9          5.4850    6.6240   -8.6300 C.3       1 RID         0.0602
     35 O4          6.0470    7.9190   -8.5640 O.3       1 RID        -0.3916
     36 C11         4.9460    4.6550   -7.1820 C.3       1 RID         0.0689
     37 O3          6.2040    4.0640   -7.4530 O.3       1 RID        -0.3900
     38 C35         4.4590    4.2280   -5.8020 C.3       1 RID         0.0264
     39 C36         3.9800    2.7930   -5.8530 C.2       1 RID         0.0373
     40 O7          2.9190    2.5100   -6.3990 O.co2     1 RID        -0.5689
     41 O6          4.7200    1.8340   -5.3020 O.co2     1 RID        -0.5689
     42 H1          3.4952    8.7683  -11.2417 H         1 RID         0.0484
     43 H2          5.1089    7.5831  -11.2502 H         1 RID         0.0613
     44 H3          5.4253    5.8215  -11.0977 H         1 RID         0.0613
     45 H4          3.6103    5.7984   -9.2970 H         1 RID         0.0317
     46 H5          3.6942    7.5924   -9.3346 H         1 RID         0.0317
     47 H6          4.1222    6.6293   -6.9725 H         1 RID         0.0316
     48 H7          5.8549    6.4872   -6.5207 H         1 RID         0.0316
     49 H8          1.5010   10.2167  -11.0734 H         1 RID         0.0256
     50 H9          1.2242    8.5724  -10.4053 H         1 RID         0.0256
     51 H10         0.5599    9.0111  -12.0155 H         1 RID         0.0256
     52 H11         6.3187    1.6660  -13.0898 H         1 RID         0.0594
     53 H12         2.6607    7.1545  -15.5015 H         1 RID         0.0500
     54 H13         1.6545    8.3895  -16.3316 H         1 RID         0.0500
     55 H14         2.2703    5.5463  -17.3050 H         1 RID         0.0576
     56 H15         2.8499    7.0855  -18.0273 H         1 RID         0.0576
     57 H16         2.6378    3.5073  -10.3523 H         1 RID         0.0575
     58 H17        -0.8560    1.5759  -13.5205 H         1 RID         0.0605
     59 H18         3.6199    1.3062   -9.7725 H         1 RID         0.0594
     60 H19        -1.0063    7.6954  -16.5480 H         1 RID         0.0500
     61 H20        -1.3955    6.0966  -15.8274 H         1 RID         0.0500
     62 H21         0.1505    0.8332  -15.6538 H         1 RID         0.0579
     63 H22        -1.1274    6.0226  -18.3417 H         1 RID         0.0576
     64 H23         0.0231    4.9557  -17.4673 H         1 RID         0.0576
     65 H24         0.0337    3.5710  -12.3594 H         1 RID         0.0580
     66 H25         2.0512    2.0936  -16.6249 H         1 RID         0.0605
     67 H26         2.9502    4.0837  -15.4524 H         1 RID         0.0580
     68 H27         4.0340    9.0866  -13.6150 H         1 RID         0.0256
     69 H28         3.2667   10.5329  -12.8762 H         1 RID         0.0256
     70 H29         2.3078    9.4558  -13.9472 H         1 RID         0.0256
     71 H30         5.3472    3.8799  -13.6616 H         1 RID         0.0575
     72 H31         6.2223    5.9230   -9.0483 H         1 RID         0.0595
     73 H32         6.2959    8.1998   -9.4367 H         1 RID         0.2098
     74 H33         4.2185    4.3273   -7.9392 H         1 RID         0.0612
     75 H34         6.8346    4.3524   -6.8036 H         1 RID         0.2099
     76 H35         3.6299    4.8795   -5.4888 H         1 RID         0.0456
     77 H36         5.2847    4.3126   -5.0802 H         1 RID         0.0456
@<TRIPOS>BOND
     1    3    1 1  
     2    1    5 1  
     3   28    1 1  
     4    2   10 1  
     5    2   15 1  
     6   18    2 am 
     7   23    3 2  
     8    3   30 1  
     9    4    8 1  
    10   28    4 1  
    11    4   29 1  
    12    5    6 1  
    13    6   34 1  
    14   34    7 1  
    15    7   36 1  
    16   31    9 ar 
    17    9   33 ar 
    18   10   11 1  
    19   11   21 1  
    20   12   14 ar 
    21   30   12 ar 
    22   13   16 ar 
    23   25   13 ar 
    24   14   31 ar 
    25   15   20 1  
    26   16   26 ar 
    27   18   17 2  
    28   18   19 2  
    29   22   18 1  
    30   20   21 1  
    31   23   22 1  
    32   22   28 2  
    33   24   23 1  
    34   24   25 ar 
    35   24   27 ar 
    36   26   27 ar 
    37   30   33 ar 
    38   31   32 1  
    39   34   35 1  
    40   36   37 1  
    41   36   38 1  
    42   38   39 1  
    43   39   40 ar 
    44   39   41 ar 
    45    4   42 1  
    46    5   43 1  
    47    5   44 1  
    48    6   45 1  
    49    6   46 1  
    50    7   47 1  
    51    7   48 1  
    52    8   49 1  
    53    8   50 1  
    54    8   51 1  
    55    9   52 1  
    56   10   53 1  
    57   10   54 1  
    58   11   55 1  
    59   11   56 1  
    60   12   57 1  
    61   13   58 1  
    62   14   59 1  
    63   15   60 1  
    64   15   61 1  
    65   16   62 1  
    66   20   63 1  
    67   20   64 1  
    68   25   65 1  
    69   26   66 1  
    70   27   67 1  
    71   29   68 1  
    72   29   69 1  
    73   29   70 1  
    74   33   71 1  
    75   34   72 1  
    76   35   73 1  
    77   36   74 1  
    78   37   75 1  
    79   38   76 1  
    80   38   77 1  
@<TRIPOS>SUBSTRUCTURE
     1 RID         1

