### 
### Created by X-TOOL on Mon Sep 10 21:12:56 2018
### 

@<TRIPOS>MOLECULE
3bgp_ligand
   34    37     1     0     0
SMALL
GAST_HUCK


@<TRIPOS>ATOM
      1 N1         20.1800   30.8870   -1.0710 N.pl3     1 VX1        -0.3033
      2 C2         20.7840   31.5580   -0.0210 C.ar      1 VX1         0.1864
      3 N3         20.9980   30.9140    1.1410 N.ar      1 VX1        -0.2564
      4 C4         21.5830   31.5320    2.1850 C.ar      1 VX1         0.0126
      5 C5         21.9800   32.8730    2.0710 C.ar      1 VX1        -0.0177
      6 C6         21.7410   33.5360    0.8290 C.ar      1 VX1         0.0538
      7 N7         21.1440   32.8410   -0.1750 N.ar      1 VX1        -0.2513
      8 C8         22.1290   34.9740    0.6120 C.ar      1 VX1         0.0049
      9 C9         22.3240   35.8590    1.7310 C.ar      1 VX1        -0.0475
     10 C10        22.6790   37.1840    1.5580 C.ar      1 VX1        -0.0477
     11 C11        22.8630   37.7150    0.2330 C.ar      1 VX1         0.0317
     12 N12        23.1850   38.8750   -0.2820 N.2       1 VX1        -0.2040
     13 O13        23.2210   38.8600   -1.4880 O.3       1 VX1        -0.1662
     14 C14        22.9240   37.6680   -2.0420 C.2       1 VX1         0.2092
     15 C15        22.8980   37.3920   -3.5140 C.ar      1 VX1         0.0371
     16 C16        22.6760   36.0790   -4.0550 C.ar      1 VX1        -0.0492
     17 C17        22.6630   35.8870   -5.4520 C.ar      1 VX1        -0.0479
     18 C18        22.8700   36.9850   -6.3200 C.ar      1 VX1         0.0399
     19 CL19       22.8530   36.7450   -8.0380 Cl        1 VX1        -0.0704
     20 C20        23.0880   38.2740   -5.7990 C.ar      1 VX1        -0.0479
     21 C21        23.1040   38.4840   -4.4140 C.ar      1 VX1        -0.0492
     22 C22        22.6630   36.8070   -0.9450 C.ar      1 VX1         0.0523
     23 C23        22.2970   35.4470   -0.7110 C.ar      1 VX1        -0.0335
     24 H1         19.9009   29.9018   -0.9600 H         1 VX1         0.1825
     25 H2         20.0099   31.3731   -1.9630 H         1 VX1         0.1825
     26 H3         21.7469   30.9943    3.1118 H         1 VX1         0.0889
     27 H4         22.4528   33.3890    2.8989 H         1 VX1         0.0664
     28 H5         22.1888   35.4761    2.7361 H         1 VX1         0.0656
     29 H6         22.8190   37.8239    2.4217 H         1 VX1         0.0632
     30 H7         22.5188   35.2375   -3.3900 H         1 VX1         0.0624
     31 H8         22.4943   34.8975   -5.8611 H         1 VX1         0.0620
     32 H9         23.2443   39.1086   -6.4728 H         1 VX1         0.0620
     33 H10        23.2736   39.4804   -4.0222 H         1 VX1         0.0624
     34 H11        22.1475   34.7753   -1.5486 H         1 VX1         0.0665
@<TRIPOS>BOND
     1    1    2 1  
     2    2    3 ar 
     3    2    7 ar 
     4    3    4 ar 
     5    4    5 ar 
     6    5    6 ar 
     7    6    7 ar 
     8    6    8 1  
     9    8    9 ar 
    10    8   23 ar 
    11    9   10 ar 
    12   10   11 ar 
    13   11   12 2  
    14   11   22 ar 
    15   12   13 1  
    16   13   14 1  
    17   14   15 1  
    18   14   22 2  
    19   15   16 ar 
    20   15   21 ar 
    21   16   17 ar 
    22   17   18 ar 
    23   18   19 1  
    24   18   20 ar 
    25   20   21 ar 
    26   22   23 ar 
    27    1   24 1  
    28    1   25 1  
    29    4   26 1  
    30    5   27 1  
    31    9   28 1  
    32   10   29 1  
    33   16   30 1  
    34   17   31 1  
    35   20   32 1  
    36   21   33 1  
    37   23   34 1  
@<TRIPOS>SUBSTRUCTURE
     1 VX1         1

