### 
### Created by X-TOOL on Mon Sep 10 21:12:58 2018
### 

@<TRIPOS>MOLECULE
3bgs_ligand
   36    38     1     0     0
SMALL
GAST_HUCK


@<TRIPOS>ATOM
      1 O5'        17.4940   12.1340   59.8980 O.3       1 DIH        -0.3944
      2 C5'        16.7320   10.9600   60.1650 C.3       1 DIH         0.0544
      3 C4'        15.3500   11.3370   60.7030 C.3       1 DIH         0.0531
      4 C6'        14.4050   11.3140   59.5270 C.3       1 DIH        -0.0234
      5 C3'        15.2100   12.7530   61.2600 C.3       1 DIH         0.1046
      6 O3'        14.1980   12.6870   62.3130 O.3       1 DIH        -0.3860
      7 C2'        14.7430   13.6140   60.0630 C.3       1 DIH        -0.0040
      8 N1'        14.6250   12.6590   58.9290 N.4       1 DIH         0.2441
      9 C10        13.6400   12.9170   57.8490 C.3       1 DIH        -0.0144
     10 C9         14.2510   12.1500   56.6800 C.2       1 DIH         0.0001
     11 C8         15.3140   12.5680   55.8720 C.2       1 DIH         0.0220
     12 N7         15.6060   11.6060   54.9580 N.pl3     1 DIH        -0.2895
     13 C5         14.7670   10.5260   55.1120 C.2       1 DIH         0.1348
     14 C6         14.5940    9.2850   54.4940 C.2       1 DIH         0.2413
     15 O6         15.3310    8.9110   53.5410 O.2       1 DIH        -0.4013
     16 N1         13.6190    8.4360   54.9600 N.am      1 DIH        -0.2067
     17 C2         12.8200    8.7810   55.9870 C.2       1 DIH         0.1146
     18 N3         12.9580    9.9320   56.6180 N.2       1 DIH        -0.3199
     19 C4         13.9200   10.8040   56.1780 C.2       1 DIH         0.0180
     20 H1         18.3486   11.8866   59.5650 H         1 DIH         0.2094
     21 H2         17.2580   10.3477   60.9123 H         1 DIH         0.0562
     22 H3         16.6150   10.3837   59.2354 H         1 DIH         0.0562
     23 H4         15.0539   10.6083   61.4720 H         1 DIH         0.0402
     24 H5         13.3624   11.1875   59.8541 H         1 DIH         0.0819
     25 H6         14.6669   10.5139   58.8190 H         1 DIH         0.0819
     26 H7         16.1612   13.1303   61.6636 H         1 DIH         0.0652
     27 H8         14.4840   12.0829   62.9881 H         1 DIH         0.2100
     28 H9         15.4833   14.3952   59.8358 H         1 DIH         0.0840
     29 H10        13.7708   14.0815   60.2782 H         1 DIH         0.0840
     30 H11        15.5244   12.6533   58.4739 H         1 DIH         0.2042
     31 H12        13.5621   13.9914   57.6262 H         1 DIH         0.0898
     32 H13        12.6466   12.5238   58.1106 H         1 DIH         0.0898
     33 H14        15.8305   13.5225   55.9622 H         1 DIH         0.0779
     34 H15        16.3505   11.6753   54.2496 H         1 DIH         0.2273
     35 H16        13.5005    7.5425   54.5268 H         1 DIH         0.2519
     36 H17        12.0391    8.0921   56.3056 H         1 DIH         0.1426
@<TRIPOS>BOND
     1    1    2 1  
     2    2    3 1  
     3    3    4 1  
     4    3    5 1  
     5    4    8 1  
     6    5    6 1  
     7    5    7 1  
     8    7    8 1  
     9    8    9 1  
    10    9   10 1  
    11   10   11 2  
    12   10   19 1  
    13   11   12 1  
    14   12   13 1  
    15   13   14 1  
    16   13   19 2  
    17   14   15 2  
    18   14   16 am 
    19   16   17 1  
    20   17   18 2  
    21   18   19 1  
    22    1   20 1  
    23    2   21 1  
    24    2   22 1  
    25    3   23 1  
    26    4   24 1  
    27    4   25 1  
    28    5   26 1  
    29    6   27 1  
    30    7   28 1  
    31    7   29 1  
    32    8   30 1  
    33    9   31 1  
    34    9   32 1  
    35   11   33 1  
    36   12   34 1  
    37   16   35 1  
    38   17   36 1  
@<TRIPOS>SUBSTRUCTURE
     1 DIH         1

