### 
### Created by X-TOOL on Mon Sep 10 21:12:58 2018
### 

@<TRIPOS>MOLECULE
3bh3_ligand
   16    15     1     0     0
SMALL
GAST_HUCK


@<TRIPOS>ATOM
      1 C1          3.8040  -31.9540  -16.1460 C.3       1 PNH        -0.0632
      2 C3          3.4510  -33.3260  -13.8830 C.3       1 PNH         0.0205
      3 C4          4.8510  -33.1870  -13.3390 C.2       1 PNH         0.1019
      4 O6          5.6030  -32.3340  -13.7870 O.2       1 PNH        -0.3919
      5 C5          5.2680  -34.1500  -12.2450 C.3       1 PNH         0.0094
      6 C2          2.9820  -32.3350  -14.9320 C.3       1 PNH        -0.0400
      7 H1          3.2478  -31.2224  -16.7505 H         1 PNH         0.0231
      8 H2          4.0045  -32.8515  -16.7495 H         1 PNH         0.0231
      9 H3          4.7566  -31.5113  -15.8196 H         1 PNH         0.0231
     10 H4          2.7613  -33.2469  -13.0297 H         1 PNH         0.0494
     11 H5          3.3725  -34.3298  -14.3260 H         1 PNH         0.0494
     12 H6          6.3045  -33.9369  -11.9445 H         1 PNH         0.0458
     13 H7          5.1996  -35.1821  -12.6193 H         1 PNH         0.0458
     14 H8          4.6026  -34.0297  -11.3774 H         1 PNH         0.0458
     15 H9          2.0354  -32.7362  -15.3232 H         1 PNH         0.0287
     16 H10         2.7875  -31.3959  -14.3933 H         1 PNH         0.0287
@<TRIPOS>BOND
     1    6    1 1  
     2    2    3 1  
     3    2    6 1  
     4    3    4 2  
     5    3    5 1  
     6    1    7 1  
     7    1    8 1  
     8    1    9 1  
     9    2   10 1  
    10    2   11 1  
    11    5   12 1  
    12    5   13 1  
    13    5   14 1  
    14    6   15 1  
    15    6   16 1  
@<TRIPOS>SUBSTRUCTURE
     1 PNH         1

