### 
### Created by X-TOOL on Mon Sep 10 21:12:56 2018
### 

@<TRIPOS>MOLECULE
3bi6_ligand
   63    68     1     0     0
SMALL
GAST_HUCK


@<TRIPOS>ATOM
      1 C26         9.2390   55.1870   16.1260 C.3       1 396        -0.0316
      2 C27        10.0350   53.8930   16.1360 C.3       1 396        -0.0077
      3 C29        10.2710   53.8660   17.6270 C.3       1 396        -0.0077
      4 C25         8.8180   54.1060   18.1520 C.3       1 396        -0.0316
      5 N4          8.1880   54.9940   17.1540 N.4       1 396         0.2367
      6 C24         7.8490   56.3400   17.6940 C.3       1 396        -0.0114
      7 C23         6.4920   56.3350   18.3560 C.3       1 396         0.0700
      8 N3          6.4820   55.8060   19.7640 N.am      1 396        -0.2831
      9 C22         5.7830   54.7200   20.0250 C.2       1 396         0.1970
     10 O4          5.1090   54.1820   19.1670 O.2       1 396        -0.3910
     11 C20         5.5670   54.4700   21.5220 C.ar      1 396         0.0694
     12 C18         4.2680   54.0990   21.8720 C.ar      1 396        -0.0249
     13 C19         6.5760   54.6950   22.4680 C.ar      1 396         0.0959
     14 O3          7.8770   55.0460   22.1050 O.3       1 396        -0.3358
     15 C17         6.2730   54.4770   23.8150 C.ar      1 396        -0.0333
     16 C15         4.9770   54.1120   24.2190 C.ar      1 396        -0.0024
     17 C16         3.9860   53.8990   23.2380 C.ar      1 396         0.0665
     18 N2          2.8740   53.5520   23.8590 N.pl3     1 396        -0.2631
     19 C21         1.6110   53.2530   23.1430 C.3       1 396         0.0360
     20 C14         3.0630   53.5730   25.1990 C.ar      1 396         0.0770
     21 C1          2.2070   53.2390   26.2690 C.ar      1 396        -0.0229
     22 C13         4.4070   53.8820   25.4720 C.ar      1 396         0.0208
     23 C4          4.8480   53.9420   26.8300 C.ar      1 396         0.0680
     24 C5          6.0590   54.2060   27.5050 C.2       1 396         0.2341
     25 O1          7.0940   54.6210   26.9820 O.2       1 396        -0.3678
     26 N1          5.9220   54.1090   28.8470 N.am      1 396        -0.2007
     27 C6          4.6770   53.7350   29.0600 C.2       1 396         0.2294
     28 O2          4.2240   53.5150   30.1690 O.2       1 396        -0.3724
     29 C3          3.9400   53.6360   27.8620 C.ar      1 396         0.0674
     30 C2          2.6030   53.2880   27.5900 C.ar      1 396        -0.0041
     31 C7          1.6330   53.0010   28.6100 C.ar      1 396        -0.0033
     32 C12         0.9820   51.7630   28.6500 C.ar      1 396        -0.0531
     33 C11         0.0110   51.5480   29.6430 C.ar      1 396        -0.0607
     34 C10        -0.3350   52.4840   30.6170 C.ar      1 396        -0.0609
     35 C9          0.2630   53.7550   30.5640 C.ar      1 396        -0.0469
     36 C8          1.2410   53.9970   29.5670 C.ar      1 396         0.0488
     37 CL5         1.8480   55.6100   29.6150 Cl        1 396        -0.0690
     38 H1          8.7874   55.3564   15.1374 H         1 396         0.0814
     39 H2          9.8830   56.0400   16.3859 H         1 396         0.0814
     40 H3         10.9688   53.9638   15.5590 H         1 396         0.0319
     41 H4          9.4499   53.0312   15.7825 H         1 396         0.0319
     42 H5         10.9545   54.6673   17.9442 H         1 396         0.0319
     43 H6         10.6665   52.8943   17.9577 H         1 396         0.0319
     44 H7          8.8396   54.5897   19.1397 H         1 396         0.0814
     45 H8          8.2708   53.1543   18.2216 H         1 396         0.0814
     46 H9          7.3632   54.5617   16.7683 H         1 396         0.2034
     47 H10         7.8432   57.0671   16.8686 H         1 396         0.0834
     48 H11         8.6086   56.6317   18.4342 H         1 396         0.0834
     49 H12         5.8177   55.7113   17.7508 H         1 396         0.0572
     50 H13         6.1164   57.3687   18.3756 H         1 396         0.0572
     51 H14         6.9951   56.2688   20.4869 H         1 396         0.1842
     52 H15         3.5007   53.9689   21.1174 H         1 396         0.0576
     53 H16         8.4050   55.1527   22.8874 H         1 396         0.2467
     54 H17         7.0510   54.5914   24.5611 H         1 396         0.0502
     55 H18         1.7809   53.3160   22.0580 H         1 396         0.0542
     56 H19         0.8416   53.9822   23.4366 H         1 396         0.0542
     57 H20         1.2733   52.2389   23.4030 H         1 396         0.0542
     58 H21         1.1927   52.9300   26.0436 H         1 396         0.0591
     59 H22         6.6235   54.2854   29.5375 H         1 396         0.2212
     60 H23         1.2212   50.9874   27.9314 H         1 396         0.0627
     61 H24        -0.5020   50.5931   29.6524 H         1 396         0.0620
     62 H25        -1.0476   52.2375   31.3958 H         1 396         0.0621
     63 H26        -0.0167   54.5305   31.2678 H         1 396         0.0624
@<TRIPOS>BOND
     1    1    2 1  
     2    1    5 1  
     3    2    3 1  
     4    3    4 1  
     5    4    5 1  
     6    5    6 1  
     7    6    7 1  
     8    7    8 1  
     9    8    9 am 
    10    9   10 2  
    11    9   11 1  
    12   11   12 ar 
    13   11   13 ar 
    14   12   17 ar 
    15   13   14 1  
    16   13   15 ar 
    17   15   16 ar 
    18   16   17 ar 
    19   16   22 1  
    20   17   18 1  
    21   18   19 1  
    22   18   20 1  
    23   20   21 ar 
    24   20   22 ar 
    25   21   30 ar 
    26   22   23 ar 
    27   23   24 1  
    28   23   29 ar 
    29   24   25 2  
    30   24   26 am 
    31   26   27 am 
    32   27   28 2  
    33   27   29 1  
    34   29   30 ar 
    35   30   31 1  
    36   31   32 ar 
    37   31   36 ar 
    38   32   33 ar 
    39   33   34 ar 
    40   34   35 ar 
    41   35   36 ar 
    42   36   37 1  
    43    1   38 1  
    44    1   39 1  
    45    2   40 1  
    46    2   41 1  
    47    3   42 1  
    48    3   43 1  
    49    4   44 1  
    50    4   45 1  
    51    5   46 1  
    52    6   47 1  
    53    6   48 1  
    54    7   49 1  
    55    7   50 1  
    56    8   51 1  
    57   12   52 1  
    58   14   53 1  
    59   15   54 1  
    60   19   55 1  
    61   19   56 1  
    62   19   57 1  
    63   21   58 1  
    64   26   59 1  
    65   32   60 1  
    66   33   61 1  
    67   34   62 1  
    68   35   63 1  
@<TRIPOS>SUBSTRUCTURE
     1 396         1

