### 
### Created by X-TOOL on Mon Sep 10 21:12:58 2018
### 

@<TRIPOS>MOLECULE
3bjc_ligand
   45    47     1     0     0
SMALL
GAST_HUCK


@<TRIPOS>ATOM
      1 C26        43.6480   10.7090   50.4750 C.3       1 WAN        -0.0637
      2 C25        43.8720   12.0090   49.6990 C.3       1 WAN        -0.0469
      3 C24        42.6780   12.9520   49.8560 C.3       1 WAN        -0.0137
      4 C23        43.1360   14.4090   49.9560 C.2       1 WAN         0.0305
      5 C18        43.6790   15.1740   48.9320 C.2       1 WAN         0.0344
      6 N17        43.9690   14.9360   47.6450 N.2       1 WAN        -0.3363
      7 N22        43.0740   15.1880   51.0340 N.2       1 WAN        -0.2184
      8 N20        43.5060   16.3120   50.7730 N.pl3     1 WAN        -0.2091
      9 C21        43.5380   17.4270   51.7460 C.3       1 WAN         0.0546
     10 C19        43.9090   16.4160   49.5090 C.2       1 WAN         0.1605
     11 C15        44.4550   17.4350   48.7400 C.2       1 WAN         0.2482
     12 O16        44.6600   18.5520   49.2130 O.2       1 WAN        -0.3950
     13 N14        44.7540   17.1670   47.3990 N.am      1 WAN        -0.2117
     14 C13        44.4950   15.8960   46.8710 C.2       1 WAN         0.1225
     15 C12        44.7640   15.6430   45.5300 C.2       1 WAN         0.0579
     16 C6         43.9400   15.0500   44.6610 C.2       1 WAN        -0.0488
     17 C5         44.3960   14.9670   43.4120 C.2       1 WAN         0.1530
     18 S2         43.5100   14.3180   42.0510 S.o2      1 WAN         0.0673
     19 O3         42.0470   14.2860   42.3800 O.2       1 WAN        -0.1522
     20 O4         43.9960   12.9290   41.7640 O.2       1 WAN        -0.1522
     21 N1         43.7590   15.2740   40.7560 N.am      1 WAN        -0.2623
     22 S7         45.9560   15.6630   43.3050 S.3       1 WAN         0.0349
     23 C8         45.9660   16.0660   44.9700 C.2       1 WAN         0.1890
     24 O9         46.9700   16.6990   45.6350 O.3       1 WAN        -0.2829
     25 C10        47.8670   17.3150   44.6980 C.3       1 WAN         0.0779
     26 C11        49.1340   17.7480   45.4380 C.3       1 WAN        -0.0354
     27 H1         44.5193   10.0501   50.3457 H         1 WAN         0.0231
     28 H2         42.7475   10.2051   50.0941 H         1 WAN         0.0231
     29 H3         43.5164   10.9374   51.5429 H         1 WAN         0.0231
     30 H4         44.0068   11.7733   48.6330 H         1 WAN         0.0282
     31 H5         44.7757   12.5057   50.0819 H         1 WAN         0.0282
     32 H6         42.1271   12.6851   50.7699 H         1 WAN         0.0410
     33 H7         42.0166   12.8424   48.9840 H         1 WAN         0.0410
     34 H8         43.9683   18.3191   51.2673 H         1 WAN         0.0588
     35 H9         44.1549   17.1414   52.6108 H         1 WAN         0.0588
     36 H10        42.5147   17.6492   52.0829 H         1 WAN         0.0588
     37 H11        45.1507   17.8799   46.8207 H         1 WAN         0.2441
     38 H12        42.9652   14.6622   44.9530 H         1 WAN         0.0398
     39 H13        43.3265   15.0541   39.8816 H         1 WAN         0.1633
     40 H14        44.3444   16.0809   40.8353 H         1 WAN         0.1633
     41 H15        47.3837   18.1943   44.2472 H         1 WAN         0.0632
     42 H16        48.1282   16.5950   43.9084 H         1 WAN         0.0632
     43 H17        49.8289   18.2217   44.7290 H         1 WAN         0.0257
     44 H18        49.6143   16.8672   45.8891 H         1 WAN         0.0257
     45 H19        48.8699   18.4665   46.2279 H         1 WAN         0.0257
@<TRIPOS>BOND
     1    1    2 1  
     2    2    3 1  
     3    3    4 1  
     4    4    5 1  
     5    4    7 2  
     6    5    6 1  
     7    5   10 2  
     8    6   14 2  
     9    7    8 1  
    10    8    9 1  
    11    8   10 1  
    12   10   11 1  
    13   11   12 2  
    14   11   13 am 
    15   13   14 1  
    16   14   15 1  
    17   15   16 1  
    18   15   23 2  
    19   16   17 2  
    20   17   18 1  
    21   17   22 1  
    22   18   19 2  
    23   18   20 2  
    24   18   21 am 
    25   22   23 1  
    26   23   24 1  
    27   24   25 1  
    28   25   26 1  
    29    1   27 1  
    30    1   28 1  
    31    1   29 1  
    32    2   30 1  
    33    2   31 1  
    34    3   32 1  
    35    3   33 1  
    36    9   34 1  
    37    9   35 1  
    38    9   36 1  
    39   13   37 1  
    40   16   38 1  
    41   21   39 1  
    42   21   40 1  
    43   25   41 1  
    44   25   42 1  
    45   26   43 1  
    46   26   44 1  
    47   26   45 1  
@<TRIPOS>SUBSTRUCTURE
     1 WAN         1

