### 
### Created by X-TOOL on Mon Sep 10 21:12:58 2018
### 

@<TRIPOS>MOLECULE
3bki_ligand
   21    23     1     0     0
SMALL
GAST_HUCK


@<TRIPOS>ATOM
      1 OAA         2.8330   -1.5850    5.6640 O.2       1 FQX        -0.3519
      2 CAJ         2.2500   -2.4660    6.2830 C.2       1 FQX         0.3118
      3 CAK         1.1390   -3.1940    5.8100 C.2       1 FQX         0.3118
      4 OAB         0.6040   -3.0340    4.7220 O.2       1 FQX        -0.3519
      5 NAH         0.5550   -4.1890    6.6180 N.am      1 FQX        -0.2257
      6 CAN         1.0590   -4.4810    7.9060 C.ar      1 FQX         0.0963
      7 CAE         0.4720   -5.4820    8.6980 C.ar      1 FQX        -0.0054
      8 CAO         1.0220   -5.7400    9.9730 C.ar      1 FQX         0.1912
      9 NAP         0.6820   -6.6080   10.9060 N.2       1 FQX         0.0989
     10 OAC        -0.4100   -7.5080   10.7260 O.3       1 FQX        -0.1237
     11 OAI         1.5550   -6.4730   12.0230 O.3       1 FQX         0.1192
     12 NAF         2.4510   -5.4400   11.6630 N.2       1 FQX         0.0273
     13 CAL         2.1250   -5.0170   10.4430 C.ar      1 FQX         0.1464
     14 CAD         2.7190   -4.0110    9.6540 C.ar      1 FQX        -0.0171
     15 CAM         2.1780   -3.7480    8.3830 C.ar      1 FQX         0.0954
     16 NAG         2.7540   -2.7590    7.5720 N.am      1 FQX        -0.2258
     17 H1         -0.2327   -4.6996    6.2733 H         1 FQX         0.2247
     18 H2         -0.3831   -6.0432    8.3389 H         1 FQX         0.0492
     19 H3         -1.0570   -7.3590   11.4055 H         1 FQX         0.3562
     20 H4          3.5736   -3.4528   10.0189 H         1 FQX         0.0482
     21 H5          3.5421   -2.2473    7.9142 H         1 FQX         0.2247
@<TRIPOS>BOND
     1    1    2 2  
     2    2    3 1  
     3    2   16 am 
     4    3    4 2  
     5    3    5 am 
     6    5    6 1  
     7    6    7 ar 
     8    6   15 ar 
     9    7    8 ar 
    10    8    9 2  
    11    8   13 ar 
    12    9   10 1  
    13    9   11 1  
    14   11   12 1  
    15   12   13 2  
    16   13   14 ar 
    17   14   15 ar 
    18   15   16 1  
    19    5   17 1  
    20    7   18 1  
    21   10   19 1  
    22   14   20 1  
    23   16   21 1  
@<TRIPOS>SUBSTRUCTURE
     1 FQX         1

