### 
### Created by X-TOOL on Mon Sep 10 21:12:58 2018
### 

@<TRIPOS>MOLECULE
3bkk_ligand
   65    67     1     0     0
SMALL
GAST_HUCK


@<TRIPOS>ATOM
      1 CD1        44.2900   46.2660   39.8710 C.ar      1 KAF        -0.0602
      2 CE1        43.0800   46.7790   39.4390 C.ar      1 KAF        -0.0686
      3 CZ         43.0270   48.0580   38.9140 C.ar      1 KAF        -0.0687
      4 CE2        44.1830   48.8130   38.8240 C.ar      1 KAF        -0.0686
      5 CD2        45.3870   48.2890   39.2590 C.ar      1 KAF        -0.0602
      6 CG         45.4550   47.0100   39.7860 C.ar      1 KAF        -0.0392
      7 CB         46.7640   46.4290   40.2410 C.3       1 KAF         0.0159
      8 CA         47.2670   46.9560   41.5880 C.3       1 KAF         0.1038
      9 C          47.9060   48.3300   41.4190 C.2       1 KAF         0.0621
     10 O          47.2880   49.3110   41.8840 O.co2     1 KAF        -0.5664
     11 OXT        49.0170   48.4100   40.8520 O.co2     1 KAF        -0.5664
     12 N          46.1840   47.0120   42.5630 N.am      1 KAF        -0.2696
     13 CBC        46.4300   47.2650   43.8450 C.2       1 KAF         0.1780
     14 OAA        47.5610   47.4780   44.2810 O.2       1 KAF        -0.3970
     15 CAV        45.2240   47.3100   44.7780 C.3       1 KAF         0.0423
     16 CAW        45.7120   47.0540   46.2160 C.3       1 KAF         0.0204
     17 CBM        45.2390   45.6940   46.7370 C.3       1 KAF         0.1919
     18 OAE        45.5200   44.6690   45.7770 O.3       1 KAF        -0.3627
     19 OAF        43.8230   45.7630   46.9360 O.3       1 KAF        -0.3627
     20 CBL        45.8980   45.3700   48.0820 C.3       1 KAF         0.1045
     21 CAX        47.4280   45.5460   48.0320 C.3       1 KAF         0.0090
     22 CBF        48.0730   45.3030   49.3680 C.ar      1 KAF        -0.0407
     23 CAO        48.2060   46.3290   50.2880 C.ar      1 KAF        -0.0603
     24 CAI        48.7800   46.1060   51.5260 C.ar      1 KAF        -0.0686
     25 CAG        49.2300   44.8400   51.8560 C.ar      1 KAF        -0.0687
     26 CAJ        49.1050   43.8060   50.9470 C.ar      1 KAF        -0.0686
     27 CAP        48.5290   44.0410   49.7120 C.ar      1 KAF        -0.0603
     28 NBA        45.5870   44.0170   48.5320 N.am      1 KAF        -0.2759
     29 CBE        44.5170   43.7500   49.2750 C.2       1 KAF         0.2055
     30 OAC        43.6940   44.5980   49.6250 O.2       1 KAF        -0.3846
     31 CBG        44.3460   42.2810   49.6590 C.ar      1 KAF         0.0499
     32 CAR        45.1040   41.3040   49.0370 C.ar      1 KAF        -0.0419
     33 CAL        44.9490   39.9730   49.3780 C.ar      1 KAF        -0.0562
     34 CAH        44.0320   39.6040   50.3450 C.ar      1 KAF        -0.0575
     35 CAK        43.2700   40.5750   50.9670 C.ar      1 KAF        -0.0562
     36 CAQ        43.4270   41.9050   50.6240 C.ar      1 KAF        -0.0419
     37 H1         44.3269   45.2641   40.2833 H         1 KAF         0.0557
     38 H2         42.1781   46.1820   39.5115 H         1 KAF         0.0599
     39 H3         42.0826   48.4674   38.5742 H         1 KAF         0.0559
     40 H4         44.1451   49.8152   38.4126 H         1 KAF         0.0599
     41 H5         46.2884   48.8868   39.1865 H         1 KAF         0.0557
     42 H6         47.5234   46.6580   39.4789 H         1 KAF         0.0467
     43 H7         46.6443   45.3387   40.3233 H         1 KAF         0.0467
     44 H8         48.0333   46.2624   41.9645 H         1 KAF         0.0749
     45 H9         45.2426   46.8579   42.2631 H         1 KAF         0.1876
     46 H10        44.5005   46.5340   44.4876 H         1 KAF         0.0504
     47 H11        44.7451   48.2985   44.7187 H         1 KAF         0.0504
     48 H12        45.3190   47.8443   46.8725 H         1 KAF         0.0342
     49 H13        46.8116   47.0789   46.2298 H         1 KAF         0.0342
     50 H14        46.4583   44.6155   45.6380 H         1 KAF         0.2128
     51 H15        43.6264   46.4408   47.5719 H         1 KAF         0.2128
     52 H16        45.4979   46.0762   48.8244 H         1 KAF         0.0632
     53 H17        47.6559   46.5730   47.7105 H         1 KAF         0.0450
     54 H18        47.8427   44.8333   47.3039 H         1 KAF         0.0450
     55 H19        47.8547   47.3225   50.0338 H         1 KAF         0.0557
     56 H20        48.8771   46.9200   52.2353 H         1 KAF         0.0599
     57 H21        49.6798   44.6592   52.8256 H         1 KAF         0.0559
     58 H22        49.4577   42.8132   51.2018 H         1 KAF         0.0599
     59 H23        48.4330   43.2264   49.0033 H         1 KAF         0.0557
     60 H24        46.1971   43.2679   48.2738 H         1 KAF         0.1852
     61 H25        45.8244   41.5844   48.2770 H         1 KAF         0.0669
     62 H26        45.5485   39.2160   48.8855 H         1 KAF         0.0629
     63 H27        43.9116   38.5606   50.6133 H         1 KAF         0.0653
     64 H28        42.5481   40.2932   51.7250 H         1 KAF         0.0629
     65 H29        42.8249   42.6607   51.1153 H         1 KAF         0.0669
@<TRIPOS>BOND
     1    1    2 ar 
     2    1    6 ar 
     3    2    3 ar 
     4    3    4 ar 
     5    4    5 ar 
     6    5    6 ar 
     7    6    7 1  
     8    7    8 1  
     9    8    9 1  
    10    8   12 1  
    11    9   10 ar 
    12    9   11 ar 
    13   12   13 am 
    14   13   14 2  
    15   13   15 1  
    16   15   16 1  
    17   16   17 1  
    18   17   18 1  
    19   17   19 1  
    20   17   20 1  
    21   20   21 1  
    22   20   28 1  
    23   21   22 1  
    24   22   23 ar 
    25   22   27 ar 
    26   23   24 ar 
    27   24   25 ar 
    28   25   26 ar 
    29   26   27 ar 
    30   28   29 am 
    31   29   30 2  
    32   29   31 1  
    33   31   32 ar 
    34   31   36 ar 
    35   32   33 ar 
    36   33   34 ar 
    37   34   35 ar 
    38   35   36 ar 
    39    1   37 1  
    40    2   38 1  
    41    3   39 1  
    42    4   40 1  
    43    5   41 1  
    44    7   42 1  
    45    7   43 1  
    46    8   44 1  
    47   12   45 1  
    48   15   46 1  
    49   15   47 1  
    50   16   48 1  
    51   16   49 1  
    52   18   50 1  
    53   19   51 1  
    54   20   52 1  
    55   21   53 1  
    56   21   54 1  
    57   23   55 1  
    58   24   56 1  
    59   25   57 1  
    60   26   58 1  
    61   27   59 1  
    62   28   60 1  
    63   32   61 1  
    64   33   62 1  
    65   34   63 1  
    66   35   64 1  
    67   36   65 1  
@<TRIPOS>SUBSTRUCTURE
     1 KAF         1

