### 
### Created by X-TOOL on Mon Sep 10 21:12:58 2018
### 

@<TRIPOS>MOLECULE
3bkl_ligand
   69    72     1     0     0
SMALL
GAST_HUCK


@<TRIPOS>ATOM
      1 CD2        44.0270   47.3280   39.3110 C.ar      1 KAW        -0.0214
      2 CE3        43.0900   46.3710   39.7150 C.ar      1 KAW        -0.0747
      3 CZ3        41.7690   46.5420   39.3440 C.ar      1 KAW        -0.0792
      4 CH2        41.3680   47.6450   38.5800 C.ar      1 KAW        -0.0768
      5 CZ2        42.2600   48.5980   38.1680 C.ar      1 KAW        -0.0443
      6 CE2        43.5930   48.4270   38.5420 C.ar      1 KAW         0.0603
      7 NE1        44.6900   49.2040   38.2820 N.pl3     1 KAW        -0.2891
      8 CD1        45.7960   48.6270   38.8600 C.2       1 KAW         0.0166
      9 CG         45.4400   47.4740   39.4980 C.2       1 KAW        -0.0424
     10 CB         46.3430   46.5210   40.2200 C.3       1 KAW        -0.0013
     11 CA         46.8120   47.0180   41.5880 C.3       1 KAW         0.0985
     12 C          47.5730   48.3370   41.4420 C.2       1 KAW         0.0613
     13 OXT        48.7380   48.3000   40.9940 O.co2     1 KAW        -0.5665
     14 O          46.9890   49.3890   41.7800 O.co2     1 KAW        -0.5665
     15 N          45.6760   47.1780   42.4880 N.am      1 KAW        -0.2703
     16 CBC        45.8720   47.2920   43.7970 C.2       1 KAW         0.1779
     17 OAA        46.9960   47.2770   44.2980 O.2       1 KAW        -0.3970
     18 CAV        44.6390   47.4650   44.6780 C.3       1 KAW         0.0423
     19 CAW        45.0680   47.2310   46.1390 C.3       1 KAW         0.0204
     20 CBM        44.7160   45.8110   46.5900 C.3       1 KAW         0.1919
     21 OAE        45.1310   44.8520   45.6130 O.3       1 KAW        -0.3627
     22 OAF        43.2970   45.7300   46.7390 O.3       1 KAW        -0.3627
     23 CBL        45.3540   45.5030   47.9470 C.3       1 KAW         0.1045
     24 CAX        46.8750   45.6680   47.9210 C.3       1 KAW         0.0090
     25 CBF        47.4990   45.4480   49.2710 C.ar      1 KAW        -0.0407
     26 CAO        47.7080   46.5100   50.1360 C.ar      1 KAW        -0.0603
     27 CAI        48.2660   46.3090   51.3850 C.ar      1 KAW        -0.0686
     28 CAG        48.6220   45.0350   51.7870 C.ar      1 KAW        -0.0687
     29 CAJ        48.4170   43.9670   50.9330 C.ar      1 KAW        -0.0686
     30 CAP        47.8590   44.1770   49.6860 C.ar      1 KAW        -0.0603
     31 NBA        45.0470   44.1520   48.4000 N.am      1 KAW        -0.2759
     32 CBE        44.0130   43.9120   49.1980 C.2       1 KAW         0.2055
     33 OAC        43.2210   44.7820   49.5600 O.2       1 KAW        -0.3846
     34 CBG        43.8360   42.4450   49.5920 C.ar      1 KAW         0.0499
     35 CAQ        43.0610   42.1030   50.6870 C.ar      1 KAW        -0.0419
     36 CAK        42.8970   40.7720   51.0230 C.ar      1 KAW        -0.0562
     37 CAH        43.5040   39.7850   50.2690 C.ar      1 KAW        -0.0575
     38 CAL        44.2790   40.1280   49.1770 C.ar      1 KAW        -0.0562
     39 CAR        44.4470   41.4580   48.8390 C.ar      1 KAW        -0.0419
     40 H1         43.3929   45.5142   40.3059 H         1 KAW         0.0540
     41 H2         41.0309   45.8094   39.6499 H         1 KAW         0.0510
     42 H3         40.3237   47.7468   38.3077 H         1 KAW         0.0530
     43 H4         41.9440   49.4495   37.5762 H         1 KAW         0.0541
     44 H5         44.6871   50.0801   37.7404 H         1 KAW         0.2216
     45 H6         46.8066   49.0302   38.8154 H         1 KAW         0.0795
     46 H7         47.2302   46.3447   39.5941 H         1 KAW         0.0390
     47 H8         45.8017   45.5743   40.3637 H         1 KAW         0.0390
     48 H9         47.4931   46.2684   42.0171 H         1 KAW         0.0741
     49 H10        44.7469   47.2020   42.1189 H         1 KAW         0.1876
     50 H11        43.8691   46.7331   44.3923 H         1 KAW         0.0504
     51 H12        44.2376   48.4828   44.5643 H         1 KAW         0.0504
     52 H13        44.5500   47.9535   46.7868 H         1 KAW         0.0342
     53 H14        46.1551   47.3766   46.2231 H         1 KAW         0.0342
     54 H15        46.0739   44.8979   45.5064 H         1 KAW         0.2128
     55 H16        43.0110   46.3637   47.3865 H         1 KAW         0.2128
     56 H17        44.9418   46.2149   48.6773 H         1 KAW         0.0632
     57 H18        47.1140   46.6873   47.5834 H         1 KAW         0.0450
     58 H19        47.2973   44.9390   47.2138 H         1 KAW         0.0450
     59 H20        47.4303   47.5120   49.8294 H         1 KAW         0.0557
     60 H21        48.4244   47.1508   52.0494 H         1 KAW         0.0599
     61 H22        49.0592   44.8743   52.7658 H         1 KAW         0.0559
     62 H23        48.6938   42.9653   51.2414 H         1 KAW         0.0599
     63 H24        47.7009   43.3341   49.0230 H         1 KAW         0.0557
     64 H25        45.6257   43.3919   48.1044 H         1 KAW         0.1852
     65 H26        42.5844   42.8761   51.2788 H         1 KAW         0.0669
     66 H27        42.2908   40.5016   51.8800 H         1 KAW         0.0629
     67 H28        43.3722   38.7422   50.5341 H         1 KAW         0.0653
     68 H29        44.7550   39.3542   48.5857 H         1 KAW         0.0629
     69 H30        45.0571   41.7274   47.9845 H         1 KAW         0.0669
@<TRIPOS>BOND
     1    1    2 ar 
     2    1    6 ar 
     3    1    9 1  
     4    2    3 ar 
     5    3    4 ar 
     6    4    5 ar 
     7    5    6 ar 
     8    6    7 1  
     9    7    8 1  
    10    8    9 2  
    11    9   10 1  
    12   10   11 1  
    13   11   12 1  
    14   11   15 1  
    15   12   13 ar 
    16   12   14 ar 
    17   15   16 am 
    18   16   17 2  
    19   16   18 1  
    20   18   19 1  
    21   19   20 1  
    22   20   21 1  
    23   20   22 1  
    24   20   23 1  
    25   23   24 1  
    26   23   31 1  
    27   24   25 1  
    28   25   26 ar 
    29   25   30 ar 
    30   26   27 ar 
    31   27   28 ar 
    32   28   29 ar 
    33   29   30 ar 
    34   31   32 am 
    35   32   33 2  
    36   32   34 1  
    37   34   35 ar 
    38   34   39 ar 
    39   35   36 ar 
    40   36   37 ar 
    41   37   38 ar 
    42   38   39 ar 
    43    2   40 1  
    44    3   41 1  
    45    4   42 1  
    46    5   43 1  
    47    7   44 1  
    48    8   45 1  
    49   10   46 1  
    50   10   47 1  
    51   11   48 1  
    52   15   49 1  
    53   18   50 1  
    54   18   51 1  
    55   19   52 1  
    56   19   53 1  
    57   21   54 1  
    58   22   55 1  
    59   23   56 1  
    60   24   57 1  
    61   24   58 1  
    62   26   59 1  
    63   27   60 1  
    64   28   61 1  
    65   29   62 1  
    66   30   63 1  
    67   31   64 1  
    68   35   65 1  
    69   36   66 1  
    70   37   67 1  
    71   38   68 1  
    72   39   69 1  
@<TRIPOS>SUBSTRUCTURE
     1 KAW         1

