### 
### Created by X-TOOL on Mon Sep 10 21:12:58 2018
### 

@<TRIPOS>MOLECULE
3bl0_ligand
   23    23     1     0     0
SMALL
GAST_HUCK


@<TRIPOS>ATOM
      1 CA1        -4.3930    7.4330   12.8310 C.3       1 BL0         0.0236
      2 NA1        -5.2990    6.3810   13.2370 N.pl3     1 BL0        -0.2780
      3 CA2        -6.7030    6.6270   12.9950 C.3       1 BL0         0.0236
      4 CA3        -4.8070    5.1870   13.7200 C.2       1 BL0         0.1925
      5 SA1        -5.7200    3.7480   14.0210 S.3       1 BL0         0.0625
      6 NA2        -3.5120    5.0100   13.9920 N.2       1 BL0        -0.2735
      7 NA3        -3.2130    3.7120   14.4280 N.2       1 BL0        -0.2833
      8 CA4        -4.2850    2.8900   14.5040 C.2       1 BL0         0.1229
      9 CA5        -4.4090    1.4370   14.8800 C.3       1 BL0         0.1512
     10 SA2        -5.2240    1.0780   16.2820 S.o2      1 BL0         0.0525
     11 OA1        -6.5510    1.4340   16.1720 O.2       1 BL0        -0.1528
     12 NA4        -5.1550   -0.4460   16.5620 N.am      1 BL0        -0.2629
     13 OA2        -4.5290    1.6510   17.3790 O.2       1 BL0        -0.1528
     14 H1         -4.9717    8.2991   12.4774 H         1 BL0         0.0492
     15 H2         -3.7470    7.0676   12.0191 H         1 BL0         0.0492
     16 H3         -3.7714    7.7325   13.6877 H         1 BL0         0.0492
     17 H4         -7.2914    5.7647   13.3418 H         1 BL0         0.0492
     18 H5         -6.8690    6.7747   11.9177 H         1 BL0         0.0492
     19 H6         -7.0168    7.5286   13.5414 H         1 BL0         0.0492
     20 H7         -3.3905    1.0332   14.9777 H         1 BL0         0.0763
     21 H8         -4.9286    0.9260   14.0561 H         1 BL0         0.0763
     22 H9         -5.5992   -0.8259   17.3734 H         1 BL0         0.1633
     23 H10        -4.6663   -1.0487   15.9311 H         1 BL0         0.1633
@<TRIPOS>BOND
     1    1    2 1  
     2    2    3 1  
     3    2    4 1  
     4    4    5 1  
     5    4    6 2  
     6    5    8 1  
     7    6    7 1  
     8    7    8 2  
     9    8    9 1  
    10    9   10 1  
    11   10   11 2  
    12   10   12 am 
    13   10   13 2  
    14    1   14 1  
    15    1   15 1  
    16    1   16 1  
    17    3   17 1  
    18    3   18 1  
    19    3   19 1  
    20    9   20 1  
    21    9   21 1  
    22   12   22 1  
    23   12   23 1  
@<TRIPOS>SUBSTRUCTURE
     1 BL0         1

