### 
### Created by X-TOOL on Mon Sep 10 21:12:59 2018
### 

@<TRIPOS>MOLECULE
3bl1_ligand
   40    42     1     0     0
SMALL
GAST_HUCK


@<TRIPOS>ATOM
      1 OAW        -7.4680    0.9160   16.9850 O.2       1 BL1        -0.1504
      2 SAX        -6.0510    1.1250   16.9110 S.o2      1 BL1         0.0673
      3 NAS        -5.4540   -0.0630   16.3530 N.am      1 BL1        -0.2609
      4 OAV        -5.5830    1.3070   18.4150 O.2       1 BL1        -0.1504
      5 CAO        -5.7000    2.3410   15.8520 C.ar      1 BL1         0.1273
      6 CAM        -5.1880    2.1110   14.5560 C.ar      1 BL1        -0.0148
      7 CAJ        -5.9060    3.6720   16.1680 C.ar      1 BL1         0.0715
      8 CLAQ       -6.5720    4.0520   17.7680 Cl        1 BL1        -0.0646
      9 CAC        -5.6290    4.7030   15.2590 C.ar      1 BL1        -0.0404
     10 CAN        -5.1040    4.4400   13.9930 C.ar      1 BL1        -0.0414
     11 CAL        -4.8610    3.1260   13.6170 C.ar      1 BL1         0.0535
     12 CAK        -4.3490    2.7160   12.2300 C.2       1 BL1         0.2254
     13 OAU        -4.5670    1.5470   11.9120 O.2       1 BL1        -0.3828
     14 NAR        -3.7590    3.3710   11.2130 N.am      1 BL1        -0.1867
     15 NAT        -3.2420    4.6440   10.8640 N.pl3     1 BL1        -0.2077
     16 CAI        -2.0030    4.7160   10.0830 C.3       1 BL1         0.0657
     17 CAP        -2.1770    4.0750    8.7110 C.3       1 BL1        -0.0390
     18 CAA        -3.7830    5.9120   11.1120 C.ar      1 BL1         0.0670
     19 CAB        -2.9520    6.8640   10.5830 C.ar      1 BL1        -0.0203
     20 CAF        -1.7470    6.2290    9.9230 C.3       1 BL1         0.0017
     21 CAD        -4.9710    6.2670   11.7600 C.ar      1 BL1        -0.0487
     22 CAH        -5.2920    7.6300   11.8680 C.ar      1 BL1        -0.0806
     23 CAG        -4.4250    8.5990   11.3250 C.ar      1 BL1        -0.0819
     24 CAE        -3.2340    8.2310   10.6730 C.ar      1 BL1        -0.0716
     25 H1         -5.6481   -0.3231   15.4071 H         1 BL1         0.1635
     26 H2         -4.8458   -0.6268   16.9119 H         1 BL1         0.1635
     27 H3         -5.0326    1.0814   14.2546 H         1 BL1         0.0688
     28 H4         -5.8274    5.7292   15.5466 H         1 BL1         0.0635
     29 H5         -4.8881    5.2537   13.3101 H         1 BL1         0.0669
     30 H6         -3.6472    2.7467   10.4398 H         1 BL1         0.2150
     31 H7         -1.1748    4.2282   10.6179 H         1 BL1         0.0587
     32 H8         -1.2327    4.1450    8.1512 H         1 BL1         0.0253
     33 H9         -2.9703    4.6002    8.1588 H         1 BL1         0.0253
     34 H10        -2.4535    3.0173    8.8328 H         1 BL1         0.0253
     35 H11        -1.6886    6.5075    8.8605 H         1 BL1         0.0422
     36 H12        -0.8181    6.5264   10.4316 H         1 BL1         0.0422
     37 H13        -5.6281    5.5081   12.1690 H         1 BL1         0.0494
     38 H14        -6.2041    7.9357   12.3677 H         1 BL1         0.0525
     39 H15        -4.6808    9.6488   11.4114 H         1 BL1         0.0487
     40 H16        -2.5636    8.9750   10.2581 H         1 BL1         0.0519
@<TRIPOS>BOND
     1    1    2 2  
     2    2    3 am 
     3    2    4 2  
     4    2    5 1  
     5    5    6 ar 
     6    5    7 ar 
     7    6   11 ar 
     8    7    8 1  
     9    7    9 ar 
    10    9   10 ar 
    11   10   11 ar 
    12   11   12 1  
    13   12   13 2  
    14   12   14 am 
    15   14   15 1  
    16   15   16 1  
    17   15   18 1  
    18   16   17 1  
    19   16   20 1  
    20   18   19 ar 
    21   18   21 ar 
    22   19   20 1  
    23   19   24 ar 
    24   21   22 ar 
    25   22   23 ar 
    26   23   24 ar 
    27    3   25 1  
    28    3   26 1  
    29    6   27 1  
    30    9   28 1  
    31   10   29 1  
    32   14   30 1  
    33   16   31 1  
    34   17   32 1  
    35   17   33 1  
    36   17   34 1  
    37   20   35 1  
    38   20   36 1  
    39   21   37 1  
    40   22   38 1  
    41   23   39 1  
    42   24   40 1  
@<TRIPOS>SUBSTRUCTURE
     1 BL1         1

