### 
### Created by X-TOOL on Mon Sep 10 21:12:58 2018
### 

@<TRIPOS>MOLECULE
3bl7_ligand
   53    56     1     0     0
SMALL
GAST_HUCK


@<TRIPOS>ATOM
      1 F58         7.8920   -3.6710   17.4080 F         1 DD1        -0.1889
      2 C1          8.8480   -2.7290   17.4260 C.ar      1 DD1         0.1381
      3 C6         10.1800   -3.1080   17.2790 C.ar      1 DD1        -0.0347
      4 C5         11.1830   -2.1440   17.2910 C.ar      1 DD1        -0.0706
      5 C4         10.8730   -0.7920   17.4470 C.ar      1 DD1        -0.0724
      6 C3          9.5500   -0.3640   17.6020 C.ar      1 DD1        -0.0569
      7 C2          8.5040   -1.2860   17.6170 C.ar      1 DD1         0.0350
      8 C13         7.0700   -0.7960   17.7580 C.3       1 DD1         0.0029
      9 N15         6.3590   -1.0270   19.0270 N.4       1 DD1         0.2467
     10 C21         6.7170   -2.0790   19.9790 C.3       1 DD1        -0.0302
     11 C20         5.7510   -2.0080   21.1740 C.3       1 DD1        -0.0070
     12 C19         5.6670   -0.6070   21.7940 C.3       1 DD1        -0.0030
     13 C18         5.3660    0.4310   20.7050 C.3       1 DD1        -0.0070
     14 C17         5.2050   -0.1730   19.3120 C.3       1 DD1        -0.0302
     15 C28         4.6790   -0.5730   22.9800 C.3       1 DD1         0.0770
     16 O30         3.5770    0.3710   22.9480 O.3       1 DD1        -0.3091
     17 C32         3.0010    0.8600   24.1070 C.ar      1 DD1         0.1131
     18 C38         1.9820    1.9480   24.0660 C.ar      1 DD1         0.0785
     19 C45         1.5010    2.5870   22.8130 C.ar      1 DD1         0.1319
     20 N54         1.9620    2.2250   21.5980 N.pl3     1 DD1        -0.3085
     21 N46         0.5870    3.5620   22.9030 N.ar      1 DD1        -0.2427
     22 C47         0.0860    3.9740   24.0990 C.ar      1 DD1         0.1559
     23 N56        -0.8390    4.9540   24.0940 N.pl3     1 DD1        -0.3077
     24 N48         0.4580    3.4310   25.2880 N.ar      1 DD1        -0.2979
     25 C37         1.3810    2.4480   25.3400 C.ar      1 DD1         0.0175
     26 C36         1.7720    1.8950   26.5440 C.ar      1 DD1        -0.0616
     27 C35         2.7330    0.8840   26.5450 C.ar      1 DD1        -0.0724
     28 C34         3.3300    0.3840   25.3720 C.ar      1 DD1        -0.0309
     29 H1         10.4353   -4.1542   17.1552 H         1 DD1         0.0585
     30 H2         12.2178   -2.4465   17.1778 H         1 DD1         0.0549
     31 H3         11.6724   -0.0598   17.4481 H         1 DD1         0.0565
     32 H4          9.3363    0.6931   17.7113 H         1 DD1         0.0547
     33 H5          6.4830   -1.2840   16.9660 H         1 DD1         0.0972
     34 H6          7.0823    0.2908   17.5885 H         1 DD1         0.0972
     35 H7          6.9791   -0.3878   19.4992 H         1 DD1         0.2047
     36 H8          7.7494   -1.9280   20.3274 H         1 DD1         0.0815
     37 H9          6.6341   -3.0624   19.4933 H         1 DD1         0.0815
     38 H10         6.0951   -2.7127   21.9454 H         1 DD1         0.0320
     39 H11         4.7475   -2.3005   20.8315 H         1 DD1         0.0320
     40 H12         6.6596   -0.3662   22.2022 H         1 DD1         0.0331
     41 H13         6.1937    1.1550   20.6764 H         1 DD1         0.0320
     42 H14         4.4331    0.9508   20.9685 H         1 DD1         0.0320
     43 H15         4.2838   -0.7730   19.2744 H         1 DD1         0.0815
     44 H16         5.1487    0.6325   18.5650 H         1 DD1         0.0815
     45 H17         5.2666   -0.3527   23.8835 H         1 DD1         0.0624
     46 H18         4.2405   -1.5783   23.0638 H         1 DD1         0.0624
     47 H19         1.6046    2.6910   20.7518 H         1 DD1         0.1875
     48 H20         2.6713    1.4826   21.5165 H         1 DD1         0.1875
     49 H21        -1.1346    5.3787   23.2034 H         1 DD1         0.1832
     50 H22        -1.2504    5.2784   24.9808 H         1 DD1         0.1832
     51 H23         1.3381    2.2418   27.4749 H         1 DD1         0.0468
     52 H24         3.0354    0.4621   27.4966 H         1 DD1         0.0627
     53 H25         4.0731   -0.4005   25.4578 H         1 DD1         0.0485
@<TRIPOS>BOND
     1    1    2 1  
     2    2    3 ar 
     3    2    7 ar 
     4    3    4 ar 
     5    4    5 ar 
     6    5    6 ar 
     7    6    7 ar 
     8    7    8 1  
     9    8    9 1  
    10    9   10 1  
    11    9   14 1  
    12   10   11 1  
    13   11   12 1  
    14   12   13 1  
    15   12   15 1  
    16   13   14 1  
    17   15   16 1  
    18   16   17 1  
    19   17   18 ar 
    20   17   28 ar 
    21   18   19 ar 
    22   18   25 ar 
    23   19   20 1  
    24   19   21 ar 
    25   21   22 ar 
    26   22   23 1  
    27   22   24 ar 
    28   24   25 ar 
    29   25   26 ar 
    30   26   27 ar 
    31   27   28 ar 
    32    3   29 1  
    33    4   30 1  
    34    5   31 1  
    35    6   32 1  
    36    8   33 1  
    37    8   34 1  
    38    9   35 1  
    39   10   36 1  
    40   10   37 1  
    41   11   38 1  
    42   11   39 1  
    43   12   40 1  
    44   13   41 1  
    45   13   42 1  
    46   14   43 1  
    47   14   44 1  
    48   15   45 1  
    49   15   46 1  
    50   20   47 1  
    51   20   48 1  
    52   23   49 1  
    53   23   50 1  
    54   26   51 1  
    55   27   52 1  
    56   28   53 1  
@<TRIPOS>SUBSTRUCTURE
     1 DD1         1

