### 
### Created by X-TOOL on Mon Sep 10 21:12:57 2018
### 

@<TRIPOS>MOLECULE
3bl9_ligand
   53    56     1     0     0
SMALL
GAST_HUCK


@<TRIPOS>ATOM
      1 C1          4.2120    6.2910  -11.2340 C.ar      1 DD2         0.0600
      2 C2          3.0050    7.0990  -11.3970 C.ar      1 DD2         0.0159
      3 C3          3.1170    8.4780  -11.3010 C.ar      1 DD2        -0.0545
      4 C4          4.3480    9.0930  -11.0900 C.ar      1 DD2        -0.0677
      5 C5          5.5230    8.3640  -10.9520 C.ar      1 DD2        -0.0543
      6 C6          5.4770    6.9880  -11.0160 C.ar      1 DD2         0.0479
      7 C9          1.6780    6.3940  -11.5910 C.3       1 DD2         0.0025
      8 C11         0.5370    4.9820  -13.2250 C.3       1 DD2        -0.0301
      9 C14         0.6320    7.1580  -15.2080 C.3       1 DD2        -0.0070
     10 C15         1.3300    7.4010  -13.8580 C.3       1 DD2        -0.0301
     11 O17        -2.0690    4.9610  -16.5950 O.3       1 DD2        -0.3091
     12 C18        -2.5570    4.5350  -17.8110 C.ar      1 DD2         0.1131
     13 C19        -2.1800    5.1270  -19.0130 C.ar      1 DD2        -0.0309
     14 C20        -2.7330    4.6890  -20.2310 C.ar      1 DD2        -0.0724
     15 C21        -3.6370    3.6550  -20.2910 C.ar      1 DD2        -0.0616
     16 C22        -4.0570    3.0100  -19.1560 C.ar      1 DD2         0.0175
     17 C24        -4.0260    2.7350  -16.6340 C.ar      1 DD2         0.1319
     18 C26        -5.3060    1.3740  -18.0760 C.ar      1 DD2         0.1559
     19 CL8         4.1770    4.5060  -11.3720 Cl        1 DD2        -0.0764
     20 CL7         6.9260    5.9900  -10.8370 Cl        1 DD2        -0.0718
     21 N10         1.2150    6.2550  -12.9560 N.4       1 DD2         0.2473
     22 C13        -0.5230    6.1630  -15.1770 C.3       1 DD2        -0.0030
     23 C12         0.0090    4.8450  -14.6510 C.3       1 DD2        -0.0070
     24 C16        -1.0080    5.9080  -16.5960 C.3       1 DD2         0.0770
     25 C23        -3.5320    3.4390  -17.8370 C.ar      1 DD2         0.0785
     26 N29        -3.6110    3.0390  -15.3840 N.pl3     1 DD2        -0.3085
     27 N25        -4.8780    1.7190  -16.8220 N.ar      1 DD2        -0.2427
     28 N28        -6.1910    0.3720  -18.1810 N.pl3     1 DD2        -0.3077
     29 N27        -4.9390    2.0060  -19.2100 N.ar      1 DD2        -0.2979
     30 H1          2.2270    9.0901  -11.3922 H         1 DD2         0.0560
     31 H2          4.3913   10.1746  -11.0315 H         1 DD2         0.0601
     32 H3          6.4672    8.8730  -10.7954 H         1 DD2         0.0565
     33 H4          0.9150    6.9584  -11.0349 H         1 DD2         0.0982
     34 H5          1.7703    5.3842  -11.1647 H         1 DD2         0.0982
     35 H6         -0.3123    4.8900  -12.5321 H         1 DD2         0.0815
     36 H7          1.2504    4.1652  -13.0411 H         1 DD2         0.0815
     37 H8          1.3848    6.7822  -15.9166 H         1 DD2         0.0320
     38 H9          0.2403    8.1216  -15.5659 H         1 DD2         0.0320
     39 H10         0.8716    8.2771  -13.3760 H         1 DD2         0.0815
     40 H11         2.3961    7.5997  -14.0423 H         1 DD2         0.0815
     41 H12        -1.4543    5.9322  -19.0111 H         1 DD2         0.0485
     42 H13        -2.4370    5.1821  -21.1499 H         1 DD2         0.0627
     43 H14        -4.0253    3.3436  -21.2540 H         1 DD2         0.0468
     44 H15         2.0962    5.8907  -13.2829 H         1 DD2         0.2048
     45 H16        -1.3414    6.5399  -14.5460 H         1 DD2         0.0331
     46 H17        -0.8026    4.1026  -14.6616 H         1 DD2         0.0320
     47 H18         0.8264    4.5040  -15.3033 H         1 DD2         0.0320
     48 H19        -1.3657    6.8525  -17.0319 H         1 DD2         0.0624
     49 H20        -0.1748    5.5181  -17.1991 H         1 DD2         0.0624
     50 H21        -3.9846    2.5197  -14.5768 H         1 DD2         0.1875
     51 H22        -2.9212    3.7900  -15.2387 H         1 DD2         0.1875
     52 H23        -6.4966   -0.1356  -17.3385 H         1 DD2         0.1832
     53 H24        -6.5651    0.1100  -19.1042 H         1 DD2         0.1832
@<TRIPOS>BOND
     1    2    1 ar 
     2    1    6 ar 
     3    1   19 1  
     4    2    3 ar 
     5    7    2 1  
     6    3    4 ar 
     7    4    5 ar 
     8    6    5 ar 
     9    6   20 1  
    10   21    7 1  
    11    8   21 1  
    12   23    8 1  
    13    9   10 1  
    14   22    9 1  
    15   10   21 1  
    16   11   12 1  
    17   24   11 1  
    18   12   13 ar 
    19   12   25 ar 
    20   13   14 ar 
    21   14   15 ar 
    22   16   15 ar 
    23   25   16 ar 
    24   16   29 ar 
    25   25   17 ar 
    26   17   26 1  
    27   17   27 ar 
    28   27   18 ar 
    29   18   28 1  
    30   29   18 ar 
    31   22   23 1  
    32   22   24 1  
    33    3   30 1  
    34    4   31 1  
    35    5   32 1  
    36    7   33 1  
    37    7   34 1  
    38    8   35 1  
    39    8   36 1  
    40    9   37 1  
    41    9   38 1  
    42   10   39 1  
    43   10   40 1  
    44   13   41 1  
    45   14   42 1  
    46   15   43 1  
    47   21   44 1  
    48   22   45 1  
    49   23   46 1  
    50   23   47 1  
    51   24   48 1  
    52   24   49 1  
    53   26   50 1  
    54   26   51 1  
    55   28   52 1  
    56   28   53 1  
@<TRIPOS>SUBSTRUCTURE
     1 DD2         1

