### 
### Created by X-TOOL on Mon Sep 10 21:12:58 2018
### 

@<TRIPOS>MOLECULE
3bla_ligand
   37    39     1     0     0
SMALL
GAST_HUCK


@<TRIPOS>ATOM
      1 C14         5.2650   -0.0070   22.5200 C.ar      1 DD3        -0.0090
      2 C13         3.7140   -0.0930   20.6220 C.3       1 DD3        -0.0235
      3 C12         3.8360    0.0260   22.1340 C.3       1 DD3         0.1156
      4 C17         7.9520   -0.1080   23.2770 C.ar      1 DD3        -0.0548
      5 C16         7.4030    1.0770   22.8080 C.ar      1 DD3         0.0339
      6 C15         6.0620    1.1340   22.4290 C.ar      1 DD3        -0.0436
      7 N3          0.3140    4.3310   22.9700 N.ar      1 DD3        -0.2427
      8 C10         2.7870    1.5540   23.7860 C.ar      1 DD3         0.1163
      9 C8          2.6910    1.3010   26.2000 C.ar      1 DD3        -0.0723
     10 C7          1.7320    2.3060   26.3370 C.ar      1 DD3        -0.0616
     11 C5          1.7730    2.6290   23.8940 C.ar      1 DD3         0.0787
     12 C4          1.2330    3.3770   22.7330 C.ar      1 DD3         0.1320
     13 C19         5.8170   -1.1980   22.9900 C.ar      1 DD3        -0.0573
     14 C9          3.2160    0.9260   24.9630 C.ar      1 DD3        -0.0306
     15 CL2         8.4420    2.5340   22.6950 Cl        1 DD3        -0.0725
     16 C18         7.1630   -1.2530   23.3570 C.ar      1 DD3        -0.0679
     17 O11         3.2550    1.2590   22.5320 O.3       1 DD3        -0.2940
     18 C6          1.2460    2.9930   25.2270 C.ar      1 DD3         0.0175
     19 N1          0.3100    3.9740   25.3150 N.ar      1 DD3        -0.2979
     20 N22         1.6140    3.1680   21.4550 N.pl3     1 DD3        -0.3085
     21 C2         -0.1340    4.6170   24.2080 C.ar      1 DD3         0.1559
     22 N21        -1.0590    5.5900   24.2900 N.pl3     1 DD3        -0.3077
     23 H1          2.6519   -0.0683   20.3368 H         1 DD3         0.0281
     24 H2          4.1603   -1.0426   20.2917 H         1 DD3         0.0281
     25 H3          4.2414    0.7459   20.1444 H         1 DD3         0.0281
     26 H4          3.3059   -0.8077   22.6177 H         1 DD3         0.0819
     27 H5          8.9921   -0.1425   23.5803 H         1 DD3         0.0565
     28 H6          5.6399    2.0635   22.0643 H         1 DD3         0.0563
     29 H7          3.0418    0.7916   27.0902 H         1 DD3         0.0627
     30 H8          1.3592    2.5560   27.3237 H         1 DD3         0.0468
     31 H9          5.1987   -2.0847   23.0708 H         1 DD3         0.0559
     32 H10         3.9626    0.1417   24.9119 H         1 DD3         0.0485
     33 H11         7.5934   -2.1855   23.7037 H         1 DD3         0.0599
     34 H12         2.3154    2.4455   21.2383 H         1 DD3         0.1875
     35 H13         1.2033    3.7310   20.6965 H         1 DD3         0.1875
     36 H14        -1.3828    6.0661   23.4359 H         1 DD3         0.1832
     37 H15        -1.4436    5.8590   25.2069 H         1 DD3         0.1832
@<TRIPOS>BOND
     1    3    1 1  
     2    1    6 ar 
     3    1   13 ar 
     4    3    2 1  
     5   17    3 1  
     6    5    4 ar 
     7    4   16 ar 
     8    6    5 ar 
     9    5   15 1  
    10   12    7 ar 
    11    7   21 ar 
    12   11    8 ar 
    13    8   14 ar 
    14    8   17 1  
    15    9   10 ar 
    16   14    9 ar 
    17   10   18 ar 
    18   11   12 ar 
    19   11   18 ar 
    20   12   20 1  
    21   13   16 ar 
    22   18   19 ar 
    23   19   21 ar 
    24   21   22 1  
    25    2   23 1  
    26    2   24 1  
    27    2   25 1  
    28    3   26 1  
    29    4   27 1  
    30    6   28 1  
    31    9   29 1  
    32   10   30 1  
    33   13   31 1  
    34   14   32 1  
    35   16   33 1  
    36   20   34 1  
    37   20   35 1  
    38   22   36 1  
    39   22   37 1  
@<TRIPOS>SUBSTRUCTURE
     1 DD3         1

