### 
### Created by X-TOOL on Mon Sep 10 21:12:57 2018
### 

@<TRIPOS>MOLECULE
3blr_ligand
   49    52     1     0     0
SMALL
GAST_HUCK


@<TRIPOS>ATOM
      1 C1         49.4980  -21.3640  -10.7920 C.3       1 CPB        -0.0430
      2 N1         50.2020  -20.2380  -11.3840 N.4       1 CPB         0.2351
      3 C16        50.9700  -19.3940  -10.4650 C.3       1 CPB        -0.0305
      4 C15        50.8570  -17.9390  -10.8980 C.3       1 CPB        -0.0017
      5 C14        51.2170  -17.8200  -12.3680 C.3       1 CPB         0.0215
      6 C13        50.1790  -18.5560  -13.2110 C.3       1 CPB         0.1030
      7 C12        50.1310  -20.0360  -12.8400 C.3       1 CPB        -0.0040
      8 C8         51.4840  -16.3970  -12.7500 C.ar      1 CPB         0.0228
      9 C9         52.8130  -16.0660  -12.9980 C.ar      1 CPB         0.1322
     10 O1         53.7580  -17.0500  -12.9140 O.3       1 CPB        -0.2448
     11 C2         55.0780  -16.8140  -13.1680 C.2       1 CPB         0.1417
     12 C3         55.5330  -15.5430  -13.4920 C.2       1 CPB         0.0078
     13 C4         54.6270  -14.5020  -13.5910 C.2       1 CPB         0.0995
     14 O4         55.0230  -13.3640  -13.8940 O.2       1 CPB        -0.4249
     15 C10        53.1910  -14.7740  -13.3310 C.ar      1 CPB         0.0721
     16 C5         52.2280  -13.7770  -13.4060 C.ar      1 CPB         0.0869
     17 O5         52.5790  -12.5040  -13.7320 O.3       1 CPB        -0.3368
     18 C6         50.8990  -14.0910  -13.1480 C.ar      1 CPB        -0.0144
     19 C7         50.5220  -15.3850  -12.8020 C.ar      1 CPB         0.0802
     20 O7         49.2040  -15.6190  -12.5610 O.3       1 CPB        -0.3389
     21 C21        56.0370  -17.9290  -12.9960 C.ar      1 CPB         0.0440
     22 C22        55.6820  -19.2670  -13.1310 C.ar      1 CPB         0.0577
     23 CL1        54.0340  -19.7670  -13.6430 Cl        1 CPB        -0.0650
     24 C23        56.6420  -20.2480  -12.8930 C.ar      1 CPB        -0.0431
     25 C24        57.9290  -19.8950  -12.5010 C.ar      1 CPB        -0.0577
     26 C25        58.2720  -18.5590  -12.3330 C.ar      1 CPB        -0.0569
     27 C26        57.3160  -17.5810  -12.5690 C.ar      1 CPB        -0.0446
     28 O3         48.8760  -18.0110  -13.0010 O.3       1 CPB        -0.3849
     29 H1         49.6568  -21.3644   -9.7035 H         1 CPB         0.0778
     30 H2         49.8822  -22.3021  -11.2189 H         1 CPB         0.0778
     31 H3         48.4224  -21.2773  -11.0056 H         1 CPB         0.0778
     32 H4         49.3977  -19.6418  -11.2668 H         1 CPB         0.2031
     33 H5         52.0263  -19.7005  -10.4816 H         1 CPB         0.0816
     34 H6         50.5719  -19.5051   -9.4456 H         1 CPB         0.0816
     35 H7         51.5461  -17.3239  -10.3007 H         1 CPB         0.0335
     36 H8         49.8256  -17.5893  -10.7435 H         1 CPB         0.0335
     37 H9         52.1671  -18.3547  -12.5141 H         1 CPB         0.0427
     38 H10        50.4494  -18.4549  -14.2724 H         1 CPB         0.0665
     39 H11        49.1900  -20.4661  -13.2135 H         1 CPB         0.0841
     40 H12        50.9817  -20.5490  -13.3124 H         1 CPB         0.0841
     41 H13        56.5934  -15.3670  -13.6666 H         1 CPB         0.0418
     42 H14        53.1981  -12.1735  -13.0916 H         1 CPB         0.2482
     43 H15        50.1444  -13.3159  -13.2174 H         1 CPB         0.0388
     44 H16        49.0818  -16.5341  -12.3369 H         1 CPB         0.2468
     45 H17        56.3842  -21.2939  -13.0142 H         1 CPB         0.0633
     46 H18        58.6693  -20.6672  -12.3254 H         1 CPB         0.0647
     47 H19        59.2733  -18.2842  -12.0216 H         1 CPB         0.0629
     48 H20        57.5671  -16.5371  -12.4196 H         1 CPB         0.0661
     49 H21        48.8801  -17.0880  -13.2256 H         1 CPB         0.2102
@<TRIPOS>BOND
     1    1    2 1  
     2    2    3 1  
     3    2    7 1  
     4    3    4 1  
     5    4    5 1  
     6    5    6 1  
     7    5    8 1  
     8    6    7 1  
     9    6   28 1  
    10    8    9 ar 
    11    8   19 ar 
    12    9   10 1  
    13    9   15 ar 
    14   10   11 1  
    15   11   12 2  
    16   11   21 1  
    17   12   13 1  
    18   13   14 2  
    19   13   15 1  
    20   15   16 ar 
    21   16   17 1  
    22   16   18 ar 
    23   18   19 ar 
    24   19   20 1  
    25   21   22 ar 
    26   21   27 ar 
    27   22   23 1  
    28   22   24 ar 
    29   24   25 ar 
    30   25   26 ar 
    31   26   27 ar 
    32    1   29 1  
    33    1   30 1  
    34    1   31 1  
    35    2   32 1  
    36    3   33 1  
    37    3   34 1  
    38    4   35 1  
    39    4   36 1  
    40    5   37 1  
    41    6   38 1  
    42    7   39 1  
    43    7   40 1  
    44   12   41 1  
    45   17   42 1  
    46   18   43 1  
    47   20   44 1  
    48   24   45 1  
    49   25   46 1  
    50   26   47 1  
    51   27   48 1  
    52   28   49 1  
@<TRIPOS>SUBSTRUCTURE
     1 CPB         1

