### 
### Created by X-TOOL on Mon Sep 10 21:13:00 2018
### 

@<TRIPOS>MOLECULE
3blt_ligand
   22    22     1     0     0
SMALL
GAST_HUCK


@<TRIPOS>ATOM
      1 C1         22.6090   37.7660   73.8410 C.ar      1 PSY        -0.0729
      2 C2         21.8620   38.4300   72.8160 C.ar      1 PSY        -0.0706
      3 C3         21.9000   36.9370   74.7550 C.ar      1 PSY        -0.0706
      4 C4         20.4430   38.2660   72.7160 C.ar      1 PSY        -0.0307
      5 C5         20.4870   36.7670   74.6580 C.ar      1 PSY        -0.0307
      6 C6         19.7470   37.4300   73.6380 C.ar      1 PSY         0.1230
      7 O1         18.3350   37.2830   73.5440 O.3       1 PSY        -0.1699
      8 S          17.4270   35.9750   73.8350 S.o2      1 PSY         0.1001
      9 O2         15.9840   36.2980   73.5980 O.2       1 PSY        -0.1433
     10 O3         17.7740   34.8970   72.9550 O.2       1 PSY        -0.1433
     11 C7         17.5270   35.4470   75.3290 C.3       1 PSY         0.0940
     12 C8         16.2030   35.3820   76.0830 C.3       1 PSY        -0.0430
     13 H1         23.6830   37.8910   73.9186 H         1 PSY         0.0523
     14 H2         22.3778   39.0659   72.1056 H         1 PSY         0.0589
     15 H3         22.4443   36.4248   75.5402 H         1 PSY         0.0589
     16 H4         19.8948   38.7803   71.9350 H         1 PSY         0.0543
     17 H5         19.9725   36.1280   75.3665 H         1 PSY         0.0543
     18 H6         18.2016   36.1167   75.8825 H         1 PSY         0.0526
     19 H7         17.9550   34.4340   75.3043 H         1 PSY         0.0526
     20 H8         16.3793   35.0061   77.1017 H         1 PSY         0.0246
     21 H9         15.5141   34.7051   75.5566 H         1 PSY         0.0246
     22 H10        15.7607   36.3878   76.1347 H         1 PSY         0.0246
@<TRIPOS>BOND
     1    1    2 ar 
     2    1    3 ar 
     3    2    4 ar 
     4    3    5 ar 
     5    4    6 ar 
     6    5    6 ar 
     7    6    7 1  
     8    7    8 1  
     9    8    9 2  
    10    8   10 2  
    11    8   11 1  
    12   11   12 1  
    13    1   13 1  
    14    2   14 1  
    15    3   15 1  
    16    4   16 1  
    17    5   17 1  
    18   11   18 1  
    19   11   19 1  
    20   12   20 1  
    21   12   21 1  
    22   12   22 1  
@<TRIPOS>SUBSTRUCTURE
     1 PSY         1

