### 
### Created by X-TOOL on Mon Sep 10 21:12:58 2018
### 

@<TRIPOS>MOLECULE
3blu_ligand
   21    21     1     0     0
SMALL
GAST_HUCK


@<TRIPOS>ATOM
      1 S          18.0480   35.1940   73.2850 S.o2      1 PVS        -0.0033
      2 O1         17.2400   36.3440   73.0290 O.2       1 PVS        -0.1694
      3 O2         17.9250   34.3040   72.1610 O.2       1 PVS        -0.1694
      4 C7         17.5530   34.5340   74.4340 C.3       1 PVS         0.0681
      5 C1         19.6790   35.7470   73.4340 C.ar      1 PVS         0.0882
      6 C2         20.3170   36.4480   72.3610 C.ar      1 PVS        -0.0369
      7 C3         21.6640   36.9300   72.4590 C.ar      1 PVS        -0.0600
      8 C4         22.4170   36.7170   73.6500 C.ar      1 PVS        -0.0616
      9 C5         21.8020   36.0170   74.7350 C.ar      1 PVS        -0.0600
     10 C6         20.4490   35.5380   74.6200 C.ar      1 PVS        -0.0369
     11 C8         15.8330   34.2340   74.3700 C.3       1 PVS        -0.0453
     12 H1         17.7662   35.1580   75.3144 H         1 PVS         0.0501
     13 H2         18.0723   33.5695   74.5338 H         1 PVS         0.0501
     14 H3         19.7639   36.6200   71.4447 H         1 PVS         0.0636
     15 H4         22.1109   37.4581   71.6244 H         1 PVS         0.0618
     16 H5         23.4357   37.0784   73.7320 H         1 PVS         0.0618
     17 H6         22.3580   35.8460   75.6497 H         1 PVS         0.0618
     18 H7         20.0036   35.0061   75.4529 H         1 PVS         0.0636
     19 H8         15.5159   33.7209   75.2898 H         1 PVS         0.0245
     20 H9         15.6032   33.6018   73.4997 H         1 PVS         0.0245
     21 H10        15.2970   35.1904   74.2803 H         1 PVS         0.0245
@<TRIPOS>BOND
     1    1    2 2  
     2    1    3 2  
     3    1    4 1  
     4    1    5 1  
     5    4   11 1  
     6    5    6 ar 
     7    5   10 ar 
     8    6    7 ar 
     9    7    8 ar 
    10    8    9 ar 
    11    9   10 ar 
    12    4   12 1  
    13    4   13 1  
    14    6   14 1  
    15    7   15 1  
    16    8   16 1  
    17    9   17 1  
    18   10   18 1  
    19   11   19 1  
    20   11   20 1  
    21   11   21 1  
@<TRIPOS>SUBSTRUCTURE
     1 PVS         1

