### 
### Created by X-TOOL on Mon Sep 10 21:12:57 2018
### 

@<TRIPOS>MOLECULE
3bm8_ligand
   22    22     1     0     0
SMALL
GAST_HUCK


@<TRIPOS>ATOM
      1 C1         47.6480   16.1380   23.0830 C.ar      1 PSY        -0.0729
      2 C2         46.5230   15.6800   23.8190 C.ar      1 PSY        -0.0706
      3 C3         47.7110   17.5210   22.7470 C.ar      1 PSY        -0.0706
      4 C4         45.4860   16.5800   24.2100 C.ar      1 PSY        -0.0307
      5 C5         46.6850   18.4270   23.1310 C.ar      1 PSY        -0.0307
      6 C6         45.5750   17.9570   23.8600 C.ar      1 PSY         0.1230
      7 O1         44.5980   18.8760   24.2310 O.3       1 PSY        -0.1699
      8 S          43.3370   19.3980   23.3640 S.o2      1 PSY         0.1001
      9 O2         42.6230   20.3770   24.1500 O.2       1 PSY        -0.1433
     10 O3         43.7780   20.0330   22.1480 O.2       1 PSY        -0.1433
     11 C7         42.3740   18.3780   23.0350 C.3       1 PSY         0.0940
     12 C8         41.3400   18.7630   22.0890 C.3       1 PSY        -0.0430
     13 H1         48.4357   15.4552   22.7856 H         1 PSY         0.0523
     14 H2         46.4507   14.6323   24.0877 H         1 PSY         0.0589
     15 H3         48.5611   17.8911   22.1854 H         1 PSY         0.0589
     16 H4         44.6334   16.2159   24.7717 H         1 PSY         0.0543
     17 H5         46.7565   19.4752   22.8639 H         1 PSY         0.0543
     18 H6         41.8793   18.0681   23.9673 H         1 PSY         0.0526
     19 H7         42.9201   17.5239   22.6082 H         1 PSY         0.0526
     20 H8         40.6668   17.9107   21.9147 H         1 PSY         0.0246
     21 H9         41.8057   19.0627   21.1386 H         1 PSY         0.0246
     22 H10        40.7649   19.6069   22.4977 H         1 PSY         0.0246
@<TRIPOS>BOND
     1    1    2 ar 
     2    1    3 ar 
     3    2    4 ar 
     4    3    5 ar 
     5    4    6 ar 
     6    5    6 ar 
     7    6    7 1  
     8    7    8 1  
     9    8    9 2  
    10    8   10 2  
    11    8   11 1  
    12   11   12 1  
    13    1   13 1  
    14    2   14 1  
    15    3   15 1  
    16    4   16 1  
    17    5   17 1  
    18   11   18 1  
    19   11   19 1  
    20   12   20 1  
    21   12   21 1  
    22   12   22 1  
@<TRIPOS>SUBSTRUCTURE
     1 PSY         1

