### 
### Created by X-TOOL on Mon Sep 10 21:12:57 2018
### 

@<TRIPOS>MOLECULE
3bm9_ligand
   27    29     1     0     0
SMALL
GAST_HUCK


@<TRIPOS>ATOM
      1 C1         -0.8720   37.4730   26.8170 C.ar      1 BXZ        -0.0394
      2 C2         -0.2700   36.4180   26.1150 C.ar      1 BXZ        -0.0662
      3 C3          0.8750   35.8090   26.6640 C.ar      1 BXZ         0.0194
      4 C4          1.3600   36.2740   27.8710 C.ar      1 BXZ         0.1480
      5 C5          0.7990   37.3110   28.5980 C.ar      1 BXZ         0.0039
      6 C6         -0.3370   37.8990   28.0340 C.ar      1 BXZ         0.0823
      7 O1         -0.9210   38.9260   28.7280 O.3       1 BXZ        -0.3353
      8 O2          2.4600   35.5520   28.2130 O.3       1 BXZ        -0.1769
      9 N1          2.7160   34.5960   27.2420 N.2       1 BXZ        -0.1476
     10 C7          1.7630   34.7520   26.3140 C.2       1 BXZ         0.0624
     11 C8          1.6880   33.9470   25.1060 C.ar      1 BXZ         0.0149
     12 C9          0.4470   33.4380   24.7130 C.ar      1 BXZ        -0.0593
     13 C10         0.3660   32.6710   23.5520 C.ar      1 BXZ         0.0305
     14 C11         1.4830   32.4040   22.7820 C.ar      1 BXZ         0.0904
     15 C12         2.7200   32.9080   23.1580 C.ar      1 BXZ        -0.0008
     16 C13         2.8140   33.6780   24.3190 C.ar      1 BXZ         0.0937
     17 O3          4.0380   34.1470   24.7000 O.3       1 BXZ        -0.3311
     18 O4          1.3900   31.6780   21.6280 O.3       1 BXZ        -0.3329
     19 BR1        -1.2840   31.9270   23.0210 Br        1 BXZ        -0.0667
     20 H1         -1.7537   37.9580   26.4139 H         1 BXZ         0.0494
     21 H2         -0.6777   36.0787   25.1697 H         1 BXZ         0.0582
     22 H3          1.2136   37.6447   29.5423 H         1 BXZ         0.0479
     23 H4         -1.6779   39.2410   28.2480 H         1 BXZ         0.2480
     24 H5         -0.4403   33.6370   25.3030 H         1 BXZ         0.0595
     25 H6          3.6008   32.7068   22.5590 H         1 BXZ         0.0471
     26 H7          4.6242   33.4145   24.8491 H         1 BXZ         0.2505
     27 H8          1.9519   30.9145   21.6894 H         1 BXZ         0.2500
@<TRIPOS>BOND
     1    1    2 ar 
     2    1    6 ar 
     3    2    3 ar 
     4    3    4 ar 
     5    3   10 1  
     6    4    5 ar 
     7    4    8 1  
     8    5    6 ar 
     9    6    7 1  
    10    8    9 1  
    11    9   10 2  
    12   10   11 1  
    13   11   12 ar 
    14   11   16 ar 
    15   12   13 ar 
    16   13   14 ar 
    17   13   19 1  
    18   14   15 ar 
    19   14   18 1  
    20   15   16 ar 
    21   16   17 1  
    22    1   20 1  
    23    2   21 1  
    24    5   22 1  
    25    7   23 1  
    26   12   24 1  
    27   15   25 1  
    28   17   26 1  
    29   18   27 1  
@<TRIPOS>SUBSTRUCTURE
     1 BXZ         1

