### 
### Created by X-TOOL on Mon Sep 10 21:12:58 2018
### 

@<TRIPOS>MOLECULE
3bmn_ligand
   22    23     1     0     0
SMALL
GAST_HUCK


@<TRIPOS>ATOM
      1 CAC        11.9420  -13.8900   13.5380 C.3       1 AX3        -0.0270
      2 CAD        12.0640  -13.1830   14.8920 C.3       1 AX3        -0.0270
      3 CAL        11.4950  -12.4260   13.6930 C.3       1 AX3         0.0438
      4 NAH        10.0550  -12.1400   13.8110 N.pl3     1 AX3        -0.2859
      5 CAK         9.6710  -10.9340   14.2630 C.ar      1 AX3         0.1713
      6 NAG        10.5990   -9.9690   14.3640 N.ar      1 AX3        -0.2372
      7 NAF         8.4050  -10.6490   14.6240 N.ar      1 AX3        -0.2372
      8 CAI         8.1120   -9.4080   15.0620 C.ar      1 AX3         0.1685
      9 NAA         6.8650   -9.1300   15.4200 N.pl3     1 AX3        -0.3029
     10 NAE         9.0280   -8.4370   15.1610 N.ar      1 AX3        -0.2373
     11 CAJ        10.2810   -8.7450   14.8060 C.ar      1 AX3         0.1685
     12 NAB        11.2640   -7.8680   14.8760 N.pl3     1 AX3        -0.3029
     13 H          11.1927  -14.6827   13.3959 H         1 AX3         0.0289
     14 H          12.8457  -14.1317   12.9593 H         1 AX3         0.0289
     15 H          13.0565  -12.9200   15.2865 H         1 AX3         0.0289
     16 H          11.4035  -13.4709   15.7232 H         1 AX3         0.0289
     17 H          12.0358  -11.6094   13.1922 H         1 AX3         0.0565
     18 H           9.3557  -12.8506   13.5521 H         1 AX3         0.1898
     19 H           6.1368   -9.8556   15.3556 H         1 AX3         0.1858
     20 H           6.6252   -8.1886   15.7623 H         1 AX3         0.1858
     21 H          12.2170   -8.1390   14.5945 H         1 AX3         0.1858
     22 H          11.0785   -6.9122   15.2121 H         1 AX3         0.1858
@<TRIPOS>BOND
     1    1    2 1  
     2    1    3 1  
     3    2    3 1  
     4    3    4 1  
     5    4    5 1  
     6    5    6 ar 
     7    5    7 ar 
     8    6   11 ar 
     9    7    8 ar 
    10    8    9 1  
    11    8   10 ar 
    12   10   11 ar 
    13   11   12 1  
    14    1   13 1  
    15    1   14 1  
    16    2   15 1  
    17    2   16 1  
    18    3   17 1  
    19    4   18 1  
    20    9   19 1  
    21    9   20 1  
    22   12   21 1  
    23   12   22 1  
@<TRIPOS>SUBSTRUCTURE
     1 AX3         1

