### 
### Created by X-TOOL on Mon Sep 10 21:12:57 2018
### 

@<TRIPOS>MOLECULE
3bmo_ligand
   28    29     1     0     0
SMALL
GAST_HUCK


@<TRIPOS>ATOM
      1 C4          9.3380  -11.2350   14.0190 C.ar      1 AX4         0.0878
      2 C5          8.1230  -10.7930   14.4520 C.ar      1 AX4         0.0048
      3 C6          8.0710   -9.4580   14.9370 C.ar      1 AX4         0.1025
      4 N1          9.2300   -8.7130   14.9500 N.ar      1 AX4        -0.2524
      5 N3         10.4770  -10.5070   14.0560 N.ar      1 AX4        -0.2615
      6 CAF         7.7880  -14.2000   15.1570 C.ar      1 AX4        -0.0534
      7 CAD         6.6020  -14.8180   15.5290 C.ar      1 AX4        -0.0656
      8 CAL         5.5120  -14.7990   14.6520 C.ar      1 AX4        -0.0522
      9 CAA         4.1730  -15.4310   15.0310 C.3       1 AX4        -0.0341
     10 CAE         5.6180  -14.1980   13.4090 C.ar      1 AX4        -0.0656
     11 CAG         6.8150  -13.5970   13.0370 C.ar      1 AX4        -0.0534
     12 CAO         7.8950  -13.5860   13.9190 C.ar      1 AX4         0.0276
     13 SAK         9.3700  -12.8680   13.4000 S.3       1 AX4        -0.0273
     14 C2         10.4160   -9.2160   14.5310 C.ar      1 AX4         0.1624
     15 NAC        11.5130   -8.4350   14.5930 N.pl3     1 AX4        -0.3078
     16 NAB         6.9340   -8.8900   15.3900 N.pl3     1 AX4        -0.3198
     17 H           7.2434  -11.4261   14.4276 H         1 AX4         0.0505
     18 H           8.6326  -14.1976   15.8365 H         1 AX4         0.0554
     19 H           6.5210  -15.3112   16.4909 H         1 AX4         0.0541
     20 H           3.4602  -15.3040   14.2029 H         1 AX4         0.0379
     21 H           3.7783  -14.9405   15.9330 H         1 AX4         0.0379
     22 H           4.3168  -16.5033   15.2298 H         1 AX4         0.0379
     23 H           4.7728  -14.1962   12.7302 H         1 AX4         0.0541
     24 H           6.9090  -13.1364   12.0602 H         1 AX4         0.0554
     25 H          11.4403   -7.4725   14.9525 H         1 AX4         0.1823
     26 H          12.4239   -8.8007   14.2808 H         1 AX4         0.1823
     27 H           6.9445   -7.9186   15.7322 H         1 AX4         0.1801
     28 H           6.0556   -9.4278   15.3936 H         1 AX4         0.1801
@<TRIPOS>BOND
     1    1    2 ar 
     2    1    5 ar 
     3   13    1 1  
     4    2    3 ar 
     5    3    4 ar 
     6    3   16 1  
     7   14    4 ar 
     8    5   14 ar 
     9    6    7 ar 
    10   12    6 ar 
    11    7    8 ar 
    12    8    9 1  
    13   10    8 ar 
    14   11   10 ar 
    15   12   11 ar 
    16   12   13 1  
    17   14   15 1  
    18    2   17 1  
    19    6   18 1  
    20    7   19 1  
    21    9   20 1  
    22    9   21 1  
    23    9   22 1  
    24   10   23 1  
    25   11   24 1  
    26   15   25 1  
    27   15   26 1  
    28   16   27 1  
    29   16   28 1  
@<TRIPOS>SUBSTRUCTURE
     1 AX4         1

