### 
### Created by X-TOOL on Mon Sep 10 21:12:57 2018
### 

@<TRIPOS>MOLECULE
3bmq_ligand
   28    29     1     0     0
SMALL
GAST_HUCK


@<TRIPOS>ATOM
      1 C4          9.3070  -11.3280   14.0270 C.ar      1 AX5         0.0767
      2 C5          8.1110  -10.8210   14.4490 C.ar      1 AX5         0.0030
      3 C6          8.1080   -9.4950   14.9060 C.ar      1 AX5         0.1022
      4 N1          9.2770   -8.7820   14.9720 N.ar      1 AX5        -0.2525
      5 N3         10.4860  -10.6150   14.0970 N.ar      1 AX5        -0.2633
      6 CAF         7.2280  -14.3560   15.3140 C.ar      1 AX5        -0.0593
      7 CAD         6.5010  -15.0500   16.2840 C.ar      1 AX5        -0.0685
      8 CAC         5.1740  -15.4270   16.0390 C.ar      1 AX5        -0.0687
      9 CAE         4.5770  -15.0920   14.8280 C.ar      1 AX5        -0.0685
     10 CAG         5.3100  -14.4130   13.8470 C.ar      1 AX5        -0.0593
     11 CAN         6.6140  -14.0060   14.1000 C.ar      1 AX5        -0.0304
     12 CAI         7.4210  -13.2560   13.0320 C.3       1 AX5         0.0446
     13 SAL         9.1800  -13.0210   13.4020 S.3       1 AX5        -0.0666
     14 C2         10.4580   -9.3000   14.5580 C.ar      1 AX5         0.1623
     15 NAB        11.5780   -8.5380   14.6450 N.pl3     1 AX5        -0.3078
     16 NAA         6.9480   -9.0070   15.3590 N.pl3     1 AX5        -0.3198
     17 H           7.2053  -11.4164   14.4315 H         1 AX5         0.0502
     18 H           8.2623  -14.0885   15.4974 H         1 AX5         0.0557
     19 H           6.9659  -15.2982   17.2313 H         1 AX5         0.0599
     20 H           4.6159  -15.9764   16.7885 H         1 AX5         0.0559
     21 H           3.5423  -15.3571   14.6434 H         1 AX5         0.0599
     22 H           4.8573  -14.2037   12.8845 H         1 AX5         0.0557
     23 H           6.9672  -12.2627   12.9002 H         1 AX5         0.0569
     24 H           7.3455  -13.8214   12.0915 H         1 AX5         0.0569
     25 H          11.5166   -7.5698   14.9909 H         1 AX5         0.1823
     26 H          12.4893   -8.9280   14.3651 H         1 AX5         0.1823
     27 H           6.8969   -8.0382   15.7049 H         1 AX5         0.1801
     28 H           6.1058   -9.6000   15.3619 H         1 AX5         0.1801
@<TRIPOS>BOND
     1    1    2 ar 
     2    1    5 ar 
     3   13    1 1  
     4    2    3 ar 
     5    3    4 ar 
     6    3   16 1  
     7   14    4 ar 
     8    5   14 ar 
     9    6    7 ar 
    10   11    6 ar 
    11    7    8 ar 
    12    9    8 ar 
    13   10    9 ar 
    14   11   10 ar 
    15   12   11 1  
    16   12   13 1  
    17   14   15 1  
    18    2   17 1  
    19    6   18 1  
    20    7   19 1  
    21    8   20 1  
    22    9   21 1  
    23   10   22 1  
    24   12   23 1  
    25   12   24 1  
    26   15   25 1  
    27   15   26 1  
    28   16   27 1  
    29   16   28 1  
@<TRIPOS>SUBSTRUCTURE
     1 AX5         1

