### 
### Created by X-TOOL on Mon Sep 10 21:12:57 2018
### 

@<TRIPOS>MOLECULE
3bmy_ligand
   48    51     1     0     0
SMALL
GAST_HUCK


@<TRIPOS>ATOM
      1 C1         -0.4850    4.5650   21.9250 C.ar      1 CXZ        -0.0479
      2 C2          0.5220    5.3270   22.5790 C.ar      1 CXZ        -0.0304
      3 C3          1.8270    5.1250   22.1290 C.ar      1 CXZ         0.1464
      4 C4          2.1590    4.2460   21.1210 C.ar      1 CXZ         0.0157
      5 C5          1.1510    3.5140   20.5020 C.ar      1 CXZ        -0.0466
      6 C6         -0.1740    3.6530   20.8940 C.ar      1 CXZ         0.0281
      7 N1         -1.0830    2.8710   20.2320 N.pl3     1 CXZ        -0.3228
      8 C7         -0.7560    1.5420   19.6840 C.3       1 CXZ         0.0620
      9 C8         -1.3900    1.2910   18.3290 C.3       1 CXZ        -0.0122
     10 N2         -0.6190    1.9400   17.2350 N.4       1 CXZ         0.2398
     11 C9         -1.3690    1.9210   15.9050 C.3       1 CXZ        -0.0078
     12 C10        -0.4980    2.5780   14.8400 C.3       1 CXZ         0.0878
     13 O1         -0.1870    3.9180   15.1990 O.3       1 CXZ        -0.3693
     14 C11         0.5700    3.9580   16.4120 C.3       1 CXZ         0.0878
     15 C12        -0.2000    3.3940   17.5500 C.3       1 CXZ        -0.0078
     16 C13         3.5570    4.3440   20.9910 C.2       1 CXZ         0.0645
     17 N3          4.0630    5.2240   21.8760 N.2       1 CXZ        -0.1433
     18 O2          2.9650    5.7120   22.5900 O.3       1 CXZ        -0.1769
     19 C14         4.3700    3.6220   20.0190 C.ar      1 CXZ         0.0129
     20 C15         4.0200    2.2960   19.6970 C.ar      1 CXZ        -0.0553
     21 C16         4.7540    1.5790   18.7640 C.ar      1 CXZ         0.0573
     22 C17         5.8560    2.1680   18.1410 C.ar      1 CXZ         0.0947
     23 C18         6.2200    3.4910   18.4440 C.ar      1 CXZ        -0.0029
     24 C19         5.4730    4.2090   19.3860 C.ar      1 CXZ         0.0908
     25 O3          5.8090    5.4970   19.6780 O.3       1 CXZ        -0.3329
     26 O4          6.6010    1.4940   17.2060 O.3       1 CXZ        -0.3341
     27 CL          4.2800   -0.0360   18.4130 Cl        1 CXZ        -0.0879
     28 H1         -1.5190    4.6880   22.2265 H         1 CXZ         0.0512
     29 H2          0.2899    6.0219   23.3779 H         1 CXZ         0.0557
     30 H3          1.4031    2.8260   19.7031 H         1 CXZ         0.0460
     31 H4         -2.0413    3.2287   20.1112 H         1 CXZ         0.1728
     32 H5         -1.1136    0.7748   20.3865 H         1 CXZ         0.0560
     33 H6          0.3363    1.4639   19.5805 H         1 CXZ         0.0560
     34 H7         -2.4130    1.6953   18.3331 H         1 CXZ         0.0834
     35 H8         -1.4249    0.2068   18.1465 H         1 CXZ         0.0834
     36 H9          0.2253    1.4021   17.1173 H         1 CXZ         0.2036
     37 H10        -2.3130    2.4768   16.0050 H         1 CXZ         0.0837
     38 H11        -1.5842    0.8815   15.6168 H         1 CXZ         0.0837
     39 H12        -1.0379    2.5774   13.8816 H         1 CXZ         0.0613
     40 H13         0.4361    2.0067   14.7350 H         1 CXZ         0.0613
     41 H14         0.8290    5.0029   16.6380 H         1 CXZ         0.0613
     42 H15         1.4916    3.3725   16.2783 H         1 CXZ         0.0613
     43 H16         0.4259    3.4050   18.4545 H         1 CXZ         0.0837
     44 H17        -1.0996    4.0040   17.7191 H         1 CXZ         0.0837
     45 H18         3.1693    1.8319   20.1828 H         1 CXZ         0.0570
     46 H19         7.0703    3.9510   17.9536 H         1 CXZ         0.0465
     47 H20         6.6959    5.5226   20.0173 H         1 CXZ         0.2496
     48 H21         7.5031    1.4420   17.4991 H         1 CXZ         0.2490
@<TRIPOS>BOND
     1    1    2 ar 
     2    1    6 ar 
     3    2    3 ar 
     4    3    4 ar 
     5    3   18 1  
     6    4    5 ar 
     7    4   16 1  
     8    5    6 ar 
     9    6    7 1  
    10    7    8 1  
    11    8    9 1  
    12    9   10 1  
    13   10   11 1  
    14   10   15 1  
    15   11   12 1  
    16   12   13 1  
    17   13   14 1  
    18   14   15 1  
    19   16   17 2  
    20   16   19 1  
    21   17   18 1  
    22   19   20 ar 
    23   19   24 ar 
    24   20   21 ar 
    25   21   22 ar 
    26   21   27 1  
    27   22   23 ar 
    28   22   26 1  
    29   23   24 ar 
    30   24   25 1  
    31    1   28 1  
    32    2   29 1  
    33    5   30 1  
    34    7   31 1  
    35    8   32 1  
    36    8   33 1  
    37    9   34 1  
    38    9   35 1  
    39   10   36 1  
    40   11   37 1  
    41   11   38 1  
    42   12   39 1  
    43   12   40 1  
    44   14   41 1  
    45   14   42 1  
    46   15   43 1  
    47   15   44 1  
    48   20   45 1  
    49   23   46 1  
    50   25   47 1  
    51   26   48 1  
@<TRIPOS>SUBSTRUCTURE
     1 CXZ         1

