### 
### Created by X-TOOL on Mon Sep 10 21:13:01 2018
### 

@<TRIPOS>MOLECULE
3bpc_ligand
   58    59     1     0     0
SMALL
GAST_HUCK


@<TRIPOS>ATOM
      1 C1         30.8900   -0.5030    0.3010 C.2       1 KDA         0.1089
      2 O1A        31.9250   -1.1340   -0.0190 O.co2     1 KDA        -0.5423
      3 O1B        30.7850    0.7460    0.4000 O.co2     1 KDA        -0.5423
      4 C2         29.6150   -1.3150    0.6130 C.3       1 KDA         0.2378
      5 C3         28.7110   -1.1790   -0.6350 C.3       1 KDA         0.0399
      6 C4         27.5380   -2.1790   -0.5610 C.3       1 KDA         0.0884
      7 O4         26.9130   -2.1990   -1.8450 O.3       1 KDA        -0.3891
      8 C5         27.9460   -3.6030   -0.1290 C.3       1 KDA         0.1096
      9 O5         28.7660   -4.2730   -1.1320 O.3       1 KDA        -0.3866
     10 C6         28.7940   -3.5310    1.1580 C.3       1 KDA         0.1173
     11 O6         29.9400   -2.6730    0.9050 O.3       1 KDA        -0.3347
     12 C7         29.3460   -4.8600    1.6590 C.3       1 KDA         0.1055
     13 O7         28.2640   -5.7930    1.7670 O.3       1 KDA        -0.3869
     14 C8         29.9660   -4.6830    3.0460 C.3       1 KDA         0.0619
     15 O8         28.8810   -4.0780    3.8190 O.3       1 KDA        -0.4032
     16 O2         28.9190   -0.7200    1.7570 O.3       1 KDA        -0.3023
     17 C9         29.7800   -0.7750    2.8330 C.2       1 KDA         0.0369
     18 C10        29.7190    0.0600    3.9430 C.2       1 KDA        -0.0824
     19 C11        28.7330    1.0070    4.0930 C.3       1 KDA        -0.0537
     20 C2         28.7740   -4.5620    5.2000 C.3       1 KDB         0.1781
     21 C1         28.3620   -6.0390    5.1780 C.2       1 KDB         0.0464
     22 O1B        27.4240   -6.3390    4.4480 O.co2     1 KDB        -0.5651
     23 O1A        29.0090   -6.8250    5.8970 O.co2     1 KDB        -0.5651
     24 C3         27.8110   -3.8400    5.9070 C.2       1 KDB        -0.0254
     25 C4         28.0900   -2.9440    6.9630 C.2       1 KDB        -0.0084
     26 C5         29.3930   -2.6770    7.4020 C.3       1 KDB         0.0514
     27 C6         30.4350   -3.1740    6.4000 C.3       1 KDB         0.0994
     28 O6         30.0580   -4.4700    5.8640 O.3       1 KDB        -0.3957
     29 C7         31.8440   -3.4630    6.9520 C.3       1 KDB         0.1076
     30 O7         31.7400   -4.4240    7.9910 O.3       1 KDB        -0.3866
     31 C8         32.5530   -2.2280    7.4890 C.3       1 KDB         0.0729
     32 O8         32.3540   -1.1000    6.6210 O.3       1 KDB        -0.3924
     33 H1         29.3056   -1.3840   -1.5374 H         1 KDA         0.0340
     34 H2         28.3119   -0.1551   -0.6836 H         1 KDA         0.0340
     35 H3         26.8157   -1.8042    0.1791 H         1 KDA         0.0621
     36 H4         26.1839   -2.8079   -1.8316 H         1 KDA         0.2099
     37 H5         27.0359   -4.1933    0.0532 H         1 KDA         0.0646
     38 H6         29.5592   -3.7709   -1.2778 H         1 KDA         0.2100
     39 H7         28.1700   -3.0946    1.9518 H         1 KDA         0.0649
     40 H8         30.1036   -5.2373    0.9564 H         1 KDA         0.0642
     41 H9         28.5961   -6.6267    2.0789 H         1 KDA         0.2100
     42 H10        30.8409   -4.0175    3.0056 H         1 KDA         0.0570
     43 H11        30.2622   -5.6525    3.4730 H         1 KDA         0.0570
     44 H12        30.5660   -1.5284    2.8116 H         1 KDA         0.0849
     45 H13        30.4766   -0.0391    4.7189 H         1 KDA         0.0331
     46 H14        28.8836    1.5463    5.0398 H         1 KDA         0.0321
     47 H15        27.7497    0.5140    4.1043 H         1 KDA         0.0321
     48 H16        28.7770    1.7181    3.2550 H         1 KDA         0.0321
     49 H17        26.7685   -3.9775    5.6239 H         1 KDA         0.0527
     50 H18        27.2590   -2.4409    7.4552 H         1 KDA         0.1535
     51 H19        29.5556   -3.1809    8.3662 H         1 KDA         0.0720
     52 H20        29.5111   -1.5910    7.5313 H         1 KDA         0.0720
     53 H21        30.5051   -2.4278    5.5949 H         1 KDA         0.0667
     54 H22        32.4531   -3.8796    6.1363 H         1 KDA         0.0646
     55 H23        31.3591   -5.2227    7.6452 H         1 KDA         0.2100
     56 H24        33.6303   -2.4368    7.5657 H         1 KDA         0.0584
     57 H25        32.1538   -1.9893    8.4858 H         1 KDA         0.0584
     58 H26        32.7006   -1.2999    5.7593 H         1 KDA         0.2095
@<TRIPOS>BOND
     1    1    2 ar 
     2    1    3 ar 
     3    1    4 1  
     4    4    5 1  
     5    4   11 1  
     6    4   16 1  
     7    5    6 1  
     8    6    7 1  
     9    6    8 1  
    10    8    9 1  
    11    8   10 1  
    12   10   11 1  
    13   10   12 1  
    14   12   13 1  
    15   12   14 1  
    16   14   15 1  
    17   15   20 1  
    18   16   17 1  
    19   17   18 2  
    20   18   19 1  
    21   20   21 1  
    22   20   24 1  
    23   20   28 1  
    24   21   22 ar 
    25   21   23 ar 
    26   24   25 2  
    27   25   26 1  
    28   26   27 1  
    29   27   28 1  
    30   27   29 1  
    31   29   30 1  
    32   29   31 1  
    33   31   32 1  
    34    5   33 1  
    35    5   34 1  
    36    6   35 1  
    37    7   36 1  
    38    8   37 1  
    39    9   38 1  
    40   10   39 1  
    41   12   40 1  
    42   13   41 1  
    43   14   42 1  
    44   14   43 1  
    45   17   44 1  
    46   18   45 1  
    47   19   46 1  
    48   19   47 1  
    49   19   48 1  
    50   24   49 1  
    51   25   50 1  
    52   26   51 1  
    53   26   52 1  
    54   27   53 1  
    55   29   54 1  
    56   30   55 1  
    57   31   56 1  
    58   31   57 1  
    59   32   58 1  
@<TRIPOS>SUBSTRUCTURE
     1 KDA         1

