### 
### Created by X-TOOL on Mon Sep 10 21:12:59 2018
### 

@<TRIPOS>MOLECULE
3bpr_ligand
   43    45     1     0     0
SMALL
GAST_HUCK


@<TRIPOS>ATOM
      1 CAH        17.4720   17.7280   55.0390 C.ar      1 OLP        -0.0241
      2 CAQ        18.6150   17.1260   55.5510 C.ar      1 OLP         0.0311
      3 CL         19.5170   16.0920   54.5270 Cl        1 OLP        -0.0737
      4 CAF        19.0330   17.3230   56.8650 C.ar      1 OLP        -0.0593
      5 CAE        18.2760   18.1460   57.6910 C.ar      1 OLP        -0.0707
      6 CAG        17.1300   18.7620   57.1800 C.ar      1 OLP        -0.0378
      7 CAR        16.7020   18.5560   55.8550 C.ar      1 OLP         0.0652
      8 N6         15.5790   19.1690   55.4110 N.pl3     1 OLP        -0.2560
      9 C6         14.7240   18.6680   54.5020 C.ar      1 OLP         0.1399
     10 N1         14.9140   17.4630   53.9200 N.ar      1 OLP        -0.2525
     11 C5         13.6100   19.4060   54.1170 C.ar      1 OLP         0.0957
     12 N7         13.1510   20.5970   54.4920 N.2       1 OLP        -0.3037
     13 C8         12.0250   20.8210   53.8120 C.2       1 OLP         0.1051
     14 N9         11.7910   19.7830   53.0070 N.pl3     1 OLP        -0.2245
     15 CAW        10.6190   19.7150   52.1220 C.3       1 OLP         0.0648
     16 CAB        11.0050   19.3280   50.6800 C.3       1 OLP        -0.0349
     17 CAA         9.5940   18.7580   52.7300 C.3       1 OLP        -0.0349
     18 C4         12.7410   18.8760   53.1560 C.ar      1 OLP         0.1435
     19 N3         12.9780   17.6630   52.6160 N.ar      1 OLP        -0.2634
     20 C2         14.0740   16.9520   52.9850 C.ar      1 OLP         0.1553
     21 N2         14.3270   15.7380   52.4450 N.pl3     1 OLP        -0.2952
     22 CAK        15.6080   15.0060   52.6530 C.3       1 OLP         0.0526
     23 CAJ        15.4510   13.7720   53.5860 C.3       1 OLP         0.0644
     24 OAC        14.1110   13.2310   53.5810 O.3       1 OLP        -0.3930
     25 H          17.1786   17.5537   54.0038 H         1 OLP         0.0543
     26 H          19.9365   16.8410   57.2385 H         1 OLP         0.0526
     27 H          18.5732   18.3093   58.7269 H         1 OLP         0.0588
     28 H          16.5508   19.4212   57.8266 H         1 OLP         0.0539
     29 H          15.3637   20.0876   55.7985 H         1 OLP         0.2173
     30 H          11.3979   21.7082   53.8999 H         1 OLP         0.1311
     31 H          10.1699   20.7052   52.0449 H         1 OLP         0.0642
     32 H          11.6933   20.0713   50.2776 H         1 OLP         0.0259
     33 H          11.4862   18.3500   50.6841 H         1 OLP         0.0259
     34 H          10.1074   19.2902   50.0627 H         1 OLP         0.0259
     35 H          10.0383   17.7678   52.8306 H         1 OLP         0.0259
     36 H           9.2942   19.1246   53.7118 H         1 OLP         0.0259
     37 H           8.7211   18.7016   52.0797 H         1 OLP         0.0259
     38 H          13.6069   15.3031   51.8682 H         1 OLP         0.1845
     39 H          16.3127   15.6924   53.1225 H         1 OLP         0.0545
     40 H          15.9505   14.6491   51.6817 H         1 OLP         0.0545
     41 H          15.6772   14.0923   54.6030 H         1 OLP         0.0577
     42 H          16.1255   12.9947   53.2268 H         1 OLP         0.0577
     43 H          14.0702   12.4747   54.1709 H         1 OLP         0.2095
@<TRIPOS>BOND
     1    1    2 ar 
     2    1    7 ar 
     3    2    3 1  
     4    2    4 ar 
     5    4    5 ar 
     6    5    6 ar 
     7    6    7 ar 
     8    7    8 1  
     9    8    9 1  
    10    9   10 ar 
    11    9   11 ar 
    12   10   20 ar 
    13   11   12 1  
    14   11   18 ar 
    15   12   13 2  
    16   13   14 1  
    17   14   15 1  
    18   14   18 1  
    19   15   16 1  
    20   15   17 1  
    21   18   19 ar 
    22   19   20 ar 
    23   20   21 1  
    24   21   22 1  
    25   22   23 1  
    26   23   24 1  
    27    1   25 1  
    28    4   26 1  
    29    5   27 1  
    30    6   28 1  
    31    8   29 1  
    32   13   30 1  
    33   15   31 1  
    34   16   32 1  
    35   16   33 1  
    36   16   34 1  
    37   17   35 1  
    38   17   36 1  
    39   17   37 1  
    40   21   38 1  
    41   22   39 1  
    42   22   40 1  
    43   23   41 1  
    44   23   42 1  
    45   24   43 1  
@<TRIPOS>SUBSTRUCTURE
     1 OLP         1

