### 
### Created by X-TOOL on Mon Sep 10 21:12:57 2018
### 

@<TRIPOS>MOLECULE
3bqc_ligand
   30    32     1     0     0
SMALL
GAST_HUCK


@<TRIPOS>ATOM
      1 C1         17.2750  -55.2520  -46.7350 C.ar      1 EMO         0.1040
      2 O1         17.5810  -54.8170  -47.9680 O.3       1 EMO        -0.3292
      3 C2         17.1170  -56.6000  -46.4770 C.ar      1 EMO         0.0054
      4 C3         16.8190  -57.0170  -45.1860 C.ar      1 EMO         0.0903
      5 O3         16.6520  -58.3280  -44.9400 O.3       1 EMO        -0.3313
      6 C4         16.7100  -56.0910  -44.1530 C.ar      1 EMO        -0.0198
      7 C5         16.8650  -54.7230  -44.4290 C.ar      1 EMO         0.0354
      8 C6         16.7320  -53.7680  -43.4080 C.2       1 EMO         0.1600
      9 O6         16.4610  -54.1460  -42.2520 O.2       1 EMO        -0.3614
     10 C7         16.8940  -52.3970  -43.7010 C.ar      1 EMO         0.0369
     11 C8         16.7690  -51.4310  -42.6790 C.ar      1 EMO        -0.0475
     12 C9         16.9290  -50.0660  -42.9330 C.ar      1 EMO        -0.0442
     13 C10        16.7870  -49.0010  -41.8050 C.3       1 EMO        -0.0304
     14 C16        17.2270  -49.6490  -44.2210 C.ar      1 EMO        -0.0217
     15 C17        17.3440  -50.5950  -45.2510 C.ar      1 EMO         0.1058
     16 O17        17.6240  -50.1390  -46.4930 O.3       1 EMO        -0.3282
     17 C18        17.1940  -51.9750  -45.0100 C.ar      1 EMO         0.0689
     18 C19        17.3120  -52.9400  -46.0350 C.2       1 EMO         0.1440
     19 O19        17.5610  -52.6180  -47.2040 O.2       1 EMO        -0.3839
     20 C20        17.1490  -54.3020  -45.7280 C.ar      1 EMO         0.0655
     21 H1         17.6501  -53.8695  -47.9603 H         1 EMO         0.2508
     22 H2         17.2246  -57.3258  -47.2749 H         1 EMO         0.0512
     23 H3         15.9340  -58.6590  -45.4668 H         1 EMO         0.2498
     24 H4         16.5067  -56.4237  -43.1415 H         1 EMO         0.0525
     25 H5         16.5428  -51.7568  -41.6701 H         1 EMO         0.0536
     26 H6         16.9516  -47.9978  -42.2251 H         1 EMO         0.0399
     27 H7         17.5324  -49.1966  -41.0201 H         1 EMO         0.0399
     28 H8         15.7768  -49.0565  -41.3733 H         1 EMO         0.0399
     29 H9         17.3692  -48.5953  -44.4320 H         1 EMO         0.0528
     30 H10        17.6765  -50.8727  -47.0942 H         1 EMO         0.2509
@<TRIPOS>BOND
     1    1    2 1  
     2    1    3 ar 
     3    1   20 ar 
     4    3    4 ar 
     5    4    5 1  
     6    4    6 ar 
     7    6    7 ar 
     8    7    8 1  
     9    7   20 ar 
    10    8    9 2  
    11    8   10 1  
    12   10   11 ar 
    13   10   17 ar 
    14   11   12 ar 
    15   12   13 1  
    16   12   14 ar 
    17   14   15 ar 
    18   15   16 1  
    19   15   17 ar 
    20   17   18 1  
    21   18   19 2  
    22   18   20 1  
    23    2   21 1  
    24    3   22 1  
    25    5   23 1  
    26    6   24 1  
    27   11   25 1  
    28   13   26 1  
    29   13   27 1  
    30   13   28 1  
    31   14   29 1  
    32   16   30 1  
@<TRIPOS>SUBSTRUCTURE
     1 EMO         1

