### 
### Created by X-TOOL on Mon Sep 10 21:12:58 2018
### 

@<TRIPOS>MOLECULE
3bqn_ligand
   61    64     1     0     0
SMALL
GAST_HUCK


@<TRIPOS>ATOM
      1 F6        -16.4800   14.1720   -6.0020 F         1 BQN        -0.2309
      2 C12       -17.7030   14.6230   -5.7750 C.3       1 BQN         0.3717
      3 F4        -18.5800   13.8670   -6.3770 F         1 BQN        -0.2309
      4 F5        -17.8700   14.4780   -4.4710 F         1 BQN        -0.2309
      5 C11       -17.7770   16.0890   -6.1920 C.ar      1 BQN         0.0760
      6 C9        -17.0390   16.5820   -7.2980 C.ar      1 BQN         0.0588
      7 C10       -16.2440   15.6510   -8.1910 C.3       1 BQN         0.3667
      8 F3        -15.0300   15.3760   -7.7680 F         1 BQN        -0.2350
      9 F2        -16.9400   14.5360   -8.3230 F         1 BQN        -0.2350
     10 F1        -16.1880   16.1090   -9.4230 F         1 BQN        -0.2350
     11 C13       -18.5370   16.9850   -5.4240 C.ar      1 BQN         0.0946
     12 S         -19.4660   16.4980   -4.0820 S.3       1 BQN        -0.0021
     13 C14       -20.3990   17.8290   -3.5760 C.ar      1 BQN         0.0721
     14 C19       -21.4770   18.2930   -4.3330 C.ar      1 BQN         0.1115
     15 O3        -21.8030   17.6580   -5.5100 O.3       1 BQN        -0.3057
     16 C20       -23.0700   17.8350   -6.1600 C.3       1 BQN         0.1092
     17 C21       -22.9720   18.9430   -7.1870 C.ar      1 BQN         0.0150
     18 C25       -21.7480   19.2700   -7.7660 C.ar      1 BQN        -0.0379
     19 C24       -21.6960   20.2970   -8.7080 C.ar      1 BQN        -0.0404
     20 C23       -22.8710   20.9690   -9.0510 C.ar      1 BQN         0.0042
     21 N2        -24.0360   20.6300   -8.4770 N.ar      1 BQN        -0.3043
     22 C22       -24.1150   19.6460   -7.5650 C.ar      1 BQN         0.0151
     23 C18       -22.2140   19.3960   -3.8910 C.ar      1 BQN        -0.0368
     24 C17       -21.8700   20.0360   -2.7040 C.ar      1 BQN        -0.0762
     25 C16       -20.7930   19.5720   -1.9520 C.ar      1 BQN        -0.0773
     26 C15       -20.0600   18.4700   -2.3890 C.ar      1 BQN        -0.0532
     27 C26       -18.5800   18.3390   -5.7660 C.ar      1 BQN         0.0210
     28 C27       -17.8710   18.8190   -6.8580 C.ar      1 BQN         0.0069
     29 C8        -17.1120   17.9480   -7.6350 C.ar      1 BQN         0.0368
     30 C7        -16.3410   18.4940   -8.7910 C.2       1 BQN         0.0002
     31 C6        -15.9980   19.7810   -8.9150 C.2       1 BQN         0.0416
     32 C1        -15.1820   20.2170  -10.0710 C.2       1 BQN         0.2189
     33 O1        -14.4270   19.4050  -10.5810 O.2       1 BQN        -0.3747
     34 N1        -15.2430   21.4760  -10.5150 N.am      1 BQN        -0.2658
     35 C5        -16.0540   22.5330   -9.9050 C.3       1 BQN         0.0569
     36 C4        -15.0780   23.6440   -9.5100 C.3       1 BQN         0.0680
     37 O2        -14.2470   24.0100  -10.6240 O.3       1 BQN        -0.3758
     38 C3        -13.4870   22.9190  -11.1400 C.3       1 BQN         0.0680
     39 C2        -14.4670   21.8870  -11.6850 C.3       1 BQN         0.0569
     40 H1        -23.8307   18.0987   -5.4105 H         1 BQN         0.0793
     41 H2        -23.3573   16.8984   -6.6603 H         1 BQN         0.0793
     42 H3        -20.8480   18.7334   -7.4881 H         1 BQN         0.0679
     43 H4        -20.7538   20.5706   -9.1689 H         1 BQN         0.0693
     44 H5        -22.8422   21.7675   -9.7836 H         1 BQN         0.0767
     45 H6        -25.0723   19.3977   -7.1211 H         1 BQN         0.0766
     46 H7        -23.0550   19.7534   -4.4741 H         1 BQN         0.0525
     47 H8        -22.4391   20.8941   -2.3652 H         1 BQN         0.0542
     48 H9        -20.5249   20.0683   -1.0264 H         1 BQN         0.0510
     49 H10       -19.2226   18.1111   -1.8016 H         1 BQN         0.0548
     50 H11       -19.1745   19.0229   -5.1710 H         1 BQN         0.0914
     51 H12       -17.9081   19.8735   -7.1064 H         1 BQN         0.0974
     52 H13       -16.0405   17.8047   -9.5787 H         1 BQN         0.0838
     53 H14       -16.3180   20.5059   -8.1680 H         1 BQN         0.0945
     54 H15       -16.5750   22.1489   -9.0156 H         1 BQN         0.0544
     55 H16       -16.7920   22.9124  -10.6271 H         1 BQN         0.0544
     56 H17       -14.4415   23.2894   -8.6859 H         1 BQN         0.0580
     57 H18       -15.6481   24.5250   -9.1800 H         1 BQN         0.0580
     58 H19       -12.8806   22.4726  -10.3381 H         1 BQN         0.0580
     59 H20       -12.8268   23.2708  -11.9464 H         1 BQN         0.0580
     60 H21       -15.1200   22.3345  -12.4487 H         1 BQN         0.0544
     61 H22       -13.9303   21.0299  -12.1179 H         1 BQN         0.0544
@<TRIPOS>BOND
     1    1    2 1  
     2    2    3 1  
     3    2    4 1  
     4    2    5 1  
     5    5    6 ar 
     6    5   11 ar 
     7    6    7 1  
     8    6   29 ar 
     9    7    8 1  
    10    7    9 1  
    11    7   10 1  
    12   11   12 1  
    13   11   27 ar 
    14   12   13 1  
    15   13   14 ar 
    16   13   26 ar 
    17   14   15 1  
    18   14   23 ar 
    19   15   16 1  
    20   16   17 1  
    21   17   18 ar 
    22   17   22 ar 
    23   18   19 ar 
    24   19   20 ar 
    25   20   21 ar 
    26   21   22 ar 
    27   23   24 ar 
    28   24   25 ar 
    29   25   26 ar 
    30   27   28 ar 
    31   28   29 ar 
    32   29   30 1  
    33   30   31 2  
    34   31   32 1  
    35   32   33 2  
    36   32   34 am 
    37   34   35 1  
    38   34   39 1  
    39   35   36 1  
    40   36   37 1  
    41   37   38 1  
    42   38   39 1  
    43   16   40 1  
    44   16   41 1  
    45   18   42 1  
    46   19   43 1  
    47   20   44 1  
    48   22   45 1  
    49   23   46 1  
    50   24   47 1  
    51   25   48 1  
    52   26   49 1  
    53   27   50 1  
    54   28   51 1  
    55   30   52 1  
    56   31   53 1  
    57   35   54 1  
    58   35   55 1  
    59   36   56 1  
    60   36   57 1  
    61   38   58 1  
    62   38   59 1  
    63   39   60 1  
    64   39   61 1  
@<TRIPOS>SUBSTRUCTURE
     1 BQN         1

