### 
### Created by X-TOOL on Mon Sep 10 21:12:57 2018
### 

@<TRIPOS>MOLECULE
3br9_ligand
   61    64     1     0     0
SMALL
GAST_HUCK


@<TRIPOS>ATOM
      1 O32        94.4020    5.4100   58.5470 O.2       1 DEY        -0.1445
      2 S36        95.2020    6.5870   58.2800 S.o2      1 DEY         0.0907
      3 O31        96.6290    6.4960   58.3980 O.2       1 DEY        -0.1445
      4 C9         94.5310    7.9480   59.2110 C.ar      1 DEY         0.1083
      5 C5         94.8060    8.0820   60.5810 C.ar      1 DEY        -0.0144
      6 C8         94.2640    9.1510   61.3300 C.ar      1 DEY         0.0876
      7 O34        94.5280    9.3080   62.6730 O.3       1 DEY        -0.3001
      8 C22        95.1580    8.2370   63.3750 C.3       1 DEY         0.1645
      9 C17        94.1310    7.1910   63.7660 C.3       1 DEY        -0.0169
     10 C16        95.7710    8.8160   64.6140 C.2       1 DEY         0.2070
     11 O30        96.4700    8.1810   65.3810 O.2       1 DEY        -0.3940
     12 N28        95.4740   10.1300   64.7960 N.am      1 DEY        -0.2984
     13 C3         93.4340   10.0700   60.7060 C.ar      1 DEY        -0.0414
     14 N26        94.8500    7.0570   56.7300 N.am      1 DEY        -0.1639
     15 C14        93.9850    8.1080   56.4160 C.2       1 DEY         0.1288
     16 N24        93.3280    8.8380   57.2670 N.2       1 DEY        -0.3439
     17 C7         93.6750    8.8600   58.5970 C.ar      1 DEY        -0.0013
     18 C2         93.1400    9.9160   59.3460 C.ar      1 DEY        -0.0674
     19 C12        93.8360    8.3230   54.9800 C.2       1 DEY         0.1339
     20 C13        94.4790    7.5590   54.0710 C.2       1 DEY         0.1554
     21 O33        94.9820    6.3080   54.3270 O.3       1 DEY        -0.3077
     22 C15        92.9690    9.4320   54.5220 C.2       1 DEY         0.2383
     23 O29        92.2860   10.0590   55.3480 O.2       1 DEY        -0.4089
     24 N27        93.0890    9.7690   53.1810 N.am      1 DEY        -0.1344
     25 C21        92.3550   10.9110   52.6930 C.3       1 DEY         0.0872
     26 C20        90.8970   10.4690   52.6070 C.3       1 DEY        -0.0187
     27 C23        90.6870    9.3370   51.5840 C.3       1 DEY        -0.0439
     28 C19        89.2500    8.8300   51.5400 C.3       1 DEY        -0.0626
     29 C18        91.1220    9.7990   50.1860 C.3       1 DEY        -0.0626
     30 N25        93.8710    9.0960   52.2760 N.2       1 DEY        -0.1308
     31 C11        94.5340    8.0590   52.6900 C.2       1 DEY         0.1491
     32 C10        95.4000    7.3120   51.7840 C.2       1 DEY         0.0531
     33 C4         95.9370    6.0630   51.9410 C.2       1 DEY        -0.0723
     34 S35        95.8850    8.0600   50.3240 S.3       1 DEY        -0.0424
     35 C6         96.8290    6.7110   49.9040 C.2       1 DEY        -0.0105
     36 C1         96.7430    5.7490   50.8690 C.2       1 DEY        -0.0798
     37 H1         95.4432    7.3551   61.0715 H         1 DEY         0.0542
     38 H2         95.9338    7.7773   62.7452 H         1 DEY         0.0889
     39 H3         94.6290    6.3720   64.3057 H         1 DEY         0.0283
     40 H4         93.6492    6.7937   62.8605 H         1 DEY         0.0283
     41 H5         93.3703    7.6488   64.4154 H         1 DEY         0.0283
     42 H6         95.8316   10.6178   65.5924 H         1 DEY         0.1815
     43 H7         94.8979   10.6088   64.1335 H         1 DEY         0.1815
     44 H8         93.0170   10.8994   61.2657 H         1 DEY         0.0522
     45 H9         95.2813    6.5600   55.9770 H         1 DEY         0.2318
     46 H10        92.4836   10.6299   58.8616 H         1 DEY         0.0509
     47 H11        95.6277    6.3636   55.0216 H         1 DEY         0.2636
     48 H12        92.7239   11.2064   51.6997 H         1 DEY         0.0664
     49 H13        92.4574   11.7569   53.3887 H         1 DEY         0.0664
     50 H14        90.2830   11.3320   52.3101 H         1 DEY         0.0298
     51 H15        90.5762   10.1141   53.5975 H         1 DEY         0.0298
     52 H16        91.3286    8.4951   51.8832 H         1 DEY         0.0296
     53 H17        89.1674    8.0265   50.7933 H         1 DEY         0.0232
     54 H18        88.5779    9.6563   51.2652 H         1 DEY         0.0232
     55 H19        88.9678    8.4413   52.5296 H         1 DEY         0.0232
     56 H20        92.1592   10.1631   50.2264 H         1 DEY         0.0232
     57 H21        90.4617   10.6104   49.8460 H         1 DEY         0.0232
     58 H22        91.0569    8.9546   49.4840 H         1 DEY         0.0232
     59 H23        95.7531    5.4099   52.7928 H         1 DEY         0.0392
     60 H24        97.4196    6.6257   48.9931 H         1 DEY         0.0700
     61 H25        97.2738    4.8009   50.7964 H         1 DEY         0.0410
@<TRIPOS>BOND
     1    1    2 2  
     2    2    3 2  
     3    2    4 1  
     4    2   14 am 
     5    4    5 ar 
     6    4   17 ar 
     7    5    6 ar 
     8    6    7 1  
     9    6   13 ar 
    10    7    8 1  
    11    8    9 1  
    12    8   10 1  
    13   10   11 2  
    14   10   12 am 
    15   13   18 ar 
    16   14   15 1  
    17   15   16 2  
    18   15   19 1  
    19   16   17 1  
    20   17   18 ar 
    21   19   20 2  
    22   19   22 1  
    23   20   21 1  
    24   20   31 1  
    25   22   23 2  
    26   22   24 am 
    27   24   25 1  
    28   24   30 1  
    29   25   26 1  
    30   26   27 1  
    31   27   28 1  
    32   27   29 1  
    33   30   31 2  
    34   31   32 1  
    35   32   33 2  
    36   32   34 1  
    37   33   36 1  
    38   34   35 1  
    39   35   36 2  
    40    5   37 1  
    41    8   38 1  
    42    9   39 1  
    43    9   40 1  
    44    9   41 1  
    45   12   42 1  
    46   12   43 1  
    47   13   44 1  
    48   14   45 1  
    49   18   46 1  
    50   21   47 1  
    51   25   48 1  
    52   25   49 1  
    53   26   50 1  
    54   26   51 1  
    55   27   52 1  
    56   28   53 1  
    57   28   54 1  
    58   28   55 1  
    59   29   56 1  
    60   29   57 1  
    61   29   58 1  
    62   33   59 1  
    63   35   60 1  
    64   36   61 1  
@<TRIPOS>SUBSTRUCTURE
     1 DEY         1

