### 
### Created by X-TOOL on Mon Sep 10 21:12:58 2018
### 

@<TRIPOS>MOLECULE
3bra_ligand
   22    22     1     0     0
SMALL
GAST_HUCK


@<TRIPOS>ATOM
      1 C4        -18.4440   39.8950   92.6820 C.3       1 AEF         0.0161
      2 C5        -21.8120   41.5980   93.2790 C.ar      1 AEF        -0.0398
      3 C6        -21.9140   39.3190   94.1160 C.ar      1 AEF        -0.0398
      4 C7        -17.6160   39.3770   93.8710 C.3       1 AEF        -0.0272
      5 C8        -22.5150   40.5600   93.8940 C.ar      1 AEF         0.0805
      6 O10       -23.8170   40.7520   94.2940 O.3       1 AEF        -0.3376
      7 C3        -20.5950   39.1180   93.7170 C.ar      1 AEF        -0.0686
      8 C2        -20.4890   41.3790   92.8820 C.ar      1 AEF        -0.0686
      9 C1        -19.8750   40.1400   93.1030 C.ar      1 AEF        -0.0487
     10 N9        -16.1700   39.2890   93.5490 N.4       1 AEF         0.2198
     11 H1        -18.4266   39.1475   91.8752 H         1 AEF         0.0457
     12 H2        -18.0068   40.8368   92.3188 H         1 AEF         0.0457
     13 H3        -22.2846   42.5591   93.1118 H         1 AEF         0.0525
     14 H4        -22.4689   38.5200   94.5943 H         1 AEF         0.0525
     15 H5        -17.9793   38.3761   94.1468 H         1 AEF         0.0834
     16 H6        -17.7488   40.0624   94.7210 H         1 AEF         0.0834
     17 H7        -24.3795   40.1309   93.8464 H         1 AEF         0.2458
     18 H8        -20.1239   38.1564   93.8860 H         1 AEF         0.0530
     19 H9        -19.9341   42.1752   92.3991 H         1 AEF         0.0530
     20 H10       -15.6671   38.9466   94.3527 H         1 AEF         0.1996
     21 H11       -15.8248   40.2030   93.3009 H         1 AEF         0.1996
     22 H12       -16.0360   38.6576   92.7748 H         1 AEF         0.1996
@<TRIPOS>BOND
     1    1    4 1  
     2    9    1 1  
     3    5    2 ar 
     4    2    8 ar 
     5    3    5 ar 
     6    7    3 ar 
     7    4   10 1  
     8    5    6 1  
     9    7    9 ar 
    10    8    9 ar 
    11    1   11 1  
    12    1   12 1  
    13    2   13 1  
    14    3   14 1  
    15    4   15 1  
    16    4   16 1  
    17    6   17 1  
    18    7   18 1  
    19    8   19 1  
    20   10   20 1  
    21   10   21 1  
    22   10   22 1  
@<TRIPOS>SUBSTRUCTURE
     1 AEF         1

