### 
### Created by X-TOOL on Mon Sep 10 21:12:58 2018
### 

@<TRIPOS>MOLECULE
3brn_ligand
   26    27     1     0     0
SMALL
GAST_HUCK


@<TRIPOS>ATOM
      1 OH         -8.1260   31.7850  -10.8480 O.3       1 SRO        -0.3421
      2 CZ3        -8.0610   33.1320  -10.5860 C.ar      1 SRO         0.0693
      3 CH2        -7.0470   33.5720   -9.7390 C.ar      1 SRO        -0.0459
      4 CZ2        -6.8510   34.9390   -9.5270 C.ar      1 SRO        -0.0495
      5 CE2        -7.7470   35.8060  -10.1340 C.ar      1 SRO         0.0512
      6 NE1        -7.9200   37.1520  -10.1210 N.pl3     1 SRO        -0.2936
      7 CD1        -8.9580   37.4780  -10.9270 C.2       1 SRO         0.0142
      8 CG         -9.4980   36.3040  -11.4540 C.2       1 SRO        -0.0452
      9 CD2        -8.7390   35.2600  -10.9310 C.ar      1 SRO        -0.0312
     10 CE3        -8.8800   33.9750  -11.1400 C.ar      1 SRO        -0.0489
     11 CB        -10.6950   36.2090  -12.3680 C.3       1 SRO         0.0032
     12 CA        -11.8650   35.5100  -11.6480 C.3       1 SRO        -0.0314
     13 NZ        -12.9430   35.2870  -12.6170 N.4       1 SRO         0.2194
     14 H1         -8.8539   31.6122  -11.4335 H         1 SRO         0.2441
     15 H2         -6.4074   32.8513   -9.2424 H         1 SRO         0.0481
     16 H3         -6.0347   35.3056   -8.9152 H         1 SRO         0.0526
     17 H4         -7.3510   37.8207   -9.5825 H         1 SRO         0.2193
     18 H5         -9.3122   38.4876  -11.1301 H         1 SRO         0.0790
     19 H6         -9.6806   33.6143  -11.7757 H         1 SRO         0.0435
     20 H7        -10.4228   35.6308  -13.2633 H         1 SRO         0.0399
     21 H8        -11.0053   37.2215  -12.6657 H         1 SRO         0.0399
     22 H9        -12.2293   36.1465  -10.8281 H         1 SRO         0.0828
     23 H10       -11.5269   34.5456  -11.2411 H         1 SRO         0.0828
     24 H11       -13.7164   34.8298  -12.1599 H         1 SRO         0.1995
     25 H12       -12.6050   34.7054  -13.3677 H         1 SRO         0.1995
     26 H13       -13.2486   36.1724  -12.9893 H         1 SRO         0.1995
@<TRIPOS>BOND
     1    1    2 1  
     2    2    3 ar 
     3    2   10 ar 
     4    3    4 ar 
     5    4    5 ar 
     6    5    6 1  
     7    5    9 ar 
     8    6    7 1  
     9    7    8 2  
    10    8    9 1  
    11    8   11 1  
    12    9   10 ar 
    13   11   12 1  
    14   12   13 1  
    15    1   14 1  
    16    3   15 1  
    17    4   16 1  
    18    6   17 1  
    19    7   18 1  
    20   10   19 1  
    21   11   20 1  
    22   11   21 1  
    23   12   22 1  
    24   12   23 1  
    25   13   24 1  
    26   13   25 1  
    27   13   26 1  
@<TRIPOS>SUBSTRUCTURE
     1 SRO         1

