### 
### Created by X-TOOL on Mon Sep 10 21:12:58 2018
### 

@<TRIPOS>MOLECULE
3bsc_ligand
   57    60     1     0     0
SMALL
GAST_HUCK


@<TRIPOS>ATOM
      1 O30        95.4380    5.6880   59.2740 O.2       1 2PD        -0.1445
      2 S33        96.1770    6.8860   58.9730 S.o2      1 2PD         0.0906
      3 O29        97.6190    6.8960   59.0780 O.2       1 2PD        -0.1445
      4 C12        95.5770    8.1840   59.9980 C.ar      1 2PD         0.1083
      5 C8         95.7690    8.0720   61.3900 C.ar      1 2PD        -0.0146
      6 C11        95.3260    9.0850   62.2440 C.ar      1 2PD         0.0837
      7 O32        95.4950    8.9880   63.6040 O.3       1 2PD        -0.3267
      8 C20        96.7880    9.2010   64.1730 C.3       1 2PD         0.0576
      9 C7         94.6850   10.1950   61.6850 C.ar      1 2PD        -0.0417
     10 N26        95.7390    7.4020   57.4290 N.am      1 2PD        -0.1640
     11 C16        95.0410    8.6010   57.1500 C.2       1 2PD         0.1285
     12 N24        94.7070    9.4800   58.0480 N.2       1 2PD        -0.3441
     13 C10        94.9380    9.2900   59.4240 C.ar      1 2PD        -0.0014
     14 C6         94.4940   10.2970   60.2970 C.ar      1 2PD        -0.0674
     15 C14        94.8680    8.8500   55.7000 C.2       1 2PD         0.1336
     16 C15        95.7230    8.2840   54.8090 C.2       1 2PD         0.1550
     17 O31        96.6970    7.3850   55.1870 O.3       1 2PD        -0.3081
     18 C17        93.8700    9.8430   55.1790 C.2       1 2PD         0.2387
     19 O28        93.0860   10.4120   55.9440 O.2       1 2PD        -0.4092
     20 N27        93.8510   10.0620   53.8060 N.am      1 2PD        -0.1314
     21 C22        92.9100   10.9690   53.1840 C.3       1 2PD         0.0880
     22 C21        91.9370   10.2190   52.2880 C.3       1 2PD        -0.0186
     23 C23        90.8340    9.5250   53.0970 C.3       1 2PD        -0.0439
     24 C19        90.3680   10.4040   54.2570 C.3       1 2PD        -0.0626
     25 C18        89.6560    9.1740   52.1870 C.3       1 2PD        -0.0626
     26 N25        94.6900    9.4590   52.9140 N.2       1 2PD        -0.1253
     27 C13        95.5620    8.6180   53.3660 C.2       1 2PD         0.1434
     28 C9         96.5220    7.9760   52.4230 C.ar      1 2PD         0.0008
     29 C4         96.7600    6.6040   52.4010 C.ar      1 2PD        -0.0562
     30 C2         97.7030    6.0800   51.5140 C.ar      1 2PD        -0.0642
     31 C5         97.2550    8.8090   51.5800 C.ar      1 2PD        -0.0562
     32 C3         98.1960    8.2850   50.6930 C.ar      1 2PD        -0.0642
     33 C1         98.4260    6.9120   50.6630 C.ar      1 2PD        -0.0645
     34 H1         96.2618    7.1974   61.7990 H         1 2PD         0.0542
     35 H2         96.7318    9.0833   65.2652 H         1 2PD         0.0574
     36 H3         97.1322   10.2173   63.9310 H         1 2PD         0.0574
     37 H4         97.4955    8.4664   63.7610 H         1 2PD         0.0574
     38 H5         94.3302   10.9887   62.3325 H         1 2PD         0.0522
     39 H6         95.9901    6.8198   56.6557 H         1 2PD         0.2317
     40 H7         93.9944   11.1695   59.8918 H         1 2PD         0.0509
     41 H8         96.2886    6.6296   55.5932 H         1 2PD         0.2633
     42 H9         93.4638   11.7018   52.5788 H         1 2PD         0.0666
     43 H10        92.3447   11.4936   53.9683 H         1 2PD         0.0666
     44 H11        92.4917    9.4591   51.7180 H         1 2PD         0.0298
     45 H12        91.4720   10.9326   51.5919 H         1 2PD         0.0298
     46 H13        91.2436    8.5926   53.5128 H         1 2PD         0.0296
     47 H14        89.5788    9.8823   54.8183 H         1 2PD         0.0232
     48 H15        89.9723   11.3517   53.8630 H         1 2PD         0.0232
     49 H16        91.2174   10.6106   54.9247 H         1 2PD         0.0232
     50 H17        90.0083    8.5419   51.3585 H         1 2PD         0.0232
     51 H18        89.2173   10.0980   51.7823 H         1 2PD         0.0232
     52 H19        88.8952    8.6296   52.7656 H         1 2PD         0.0232
     53 H20        96.2160    5.9460   53.0690 H         1 2PD         0.0598
     54 H21        97.8746    5.0100   51.4876 H         1 2PD         0.0610
     55 H22        97.0917    9.8801   51.6138 H         1 2PD         0.0598
     56 H23        98.7455    8.9437   50.0303 H         1 2PD         0.0610
     57 H24        99.1607    6.4949   49.9838 H         1 2PD         0.0594
@<TRIPOS>BOND
     1    1    2 2  
     2    2    3 2  
     3    2    4 1  
     4    2   10 am 
     5    4    5 ar 
     6    4   13 ar 
     7    5    6 ar 
     8    6    7 1  
     9    6    9 ar 
    10    7    8 1  
    11    9   14 ar 
    12   10   11 1  
    13   11   12 2  
    14   11   15 1  
    15   12   13 1  
    16   13   14 ar 
    17   15   16 2  
    18   15   18 1  
    19   16   17 1  
    20   16   27 1  
    21   18   19 2  
    22   18   20 am 
    23   20   21 1  
    24   20   26 1  
    25   21   22 1  
    26   22   23 1  
    27   23   24 1  
    28   23   25 1  
    29   26   27 2  
    30   27   28 1  
    31   28   29 ar 
    32   28   31 ar 
    33   29   30 ar 
    34   30   33 ar 
    35   31   32 ar 
    36   32   33 ar 
    37    5   34 1  
    38    8   35 1  
    39    8   36 1  
    40    8   37 1  
    41    9   38 1  
    42   10   39 1  
    43   14   40 1  
    44   17   41 1  
    45   21   42 1  
    46   21   43 1  
    47   22   44 1  
    48   22   45 1  
    49   23   46 1  
    50   24   47 1  
    51   24   48 1  
    52   24   49 1  
    53   25   50 1  
    54   25   51 1  
    55   25   52 1  
    56   29   53 1  
    57   30   54 1  
    58   31   55 1  
    59   32   56 1  
    60   33   57 1  
@<TRIPOS>SUBSTRUCTURE
     1 2PD         1

