### 
### Created by X-TOOL on Mon Sep 10 21:12:59 2018
### 

@<TRIPOS>MOLECULE
3bt9_ligand
   77    80     1     0     0
SMALL
GAST_HUCK


@<TRIPOS>ATOM
      1 C1        -71.4790  -49.7460    7.1730 C.ar      1 DEQ        -0.0451
      2 C2        -71.5780  -51.0210    6.5230 C.ar      1 DEQ        -0.0760
      3 C3        -72.7470  -51.8230    6.7060 C.ar      1 DEQ        -0.0772
      4 C4        -73.8150  -51.3510    7.5340 C.ar      1 DEQ        -0.0670
      5 C5        -72.5330  -49.2010    8.0320 C.ar      1 DEQ         0.0511
      6 C6        -73.7420  -50.0570    8.2050 C.ar      1 DEQ         0.0103
      7 C7        -74.8340  -49.6050    9.0350 C.2       1 DEQ         0.0200
      8 C8        -74.7740  -48.3450    9.6930 C.2       1 DEQ        -0.0597
      9 C9        -73.6950  -47.4420    9.6160 C.3       1 DEQ         0.0472
     10 N1        -72.5060  -47.8060    8.7890 N.pl3     1 DEQ        -0.2992
     11 C10       -62.4470  -45.3570    0.7260 C.ar      1 DEQ         0.0290
     12 C11       -62.6870  -45.0190    2.1640 C.ar      1 DEQ         0.0690
     13 N2        -61.4380  -45.0510    3.1990 N.pl3     1 DEQ        -0.2707
     14 C12       -60.1070  -45.4480    2.4650 C.2       1 DEQ         0.0248
     15 C13       -60.0370  -45.7420    1.0990 C.2       1 DEQ        -0.0400
     16 C14       -61.1290  -45.7180    0.2390 C.3       1 DEQ         0.0084
     17 C15       -63.5530  -45.3340   -0.2020 C.ar      1 DEQ        -0.0646
     18 C16       -64.8830  -44.9860    0.1910 C.ar      1 DEQ        -0.0817
     19 C17       -65.1470  -44.6510    1.5480 C.ar      1 DEQ        -0.0803
     20 C18       -64.0800  -44.6680    2.4960 C.ar      1 DEQ        -0.0461
     21 C19       -61.2780  -45.0800    4.8050 C.3       1 DEQ         0.0422
     22 C20       -62.7070  -45.1660    5.2910 C.3       1 DEQ        -0.0297
     23 C21       -62.8990  -45.1990    6.8060 C.3       1 DEQ        -0.0510
     24 C22       -64.3800  -45.3410    6.8990 C.3       1 DEQ        -0.0530
     25 C23       -65.0680  -45.3840    8.2440 C.3       1 DEQ        -0.0531
     26 C24       -66.5330  -45.5660    7.8070 C.3       1 DEQ        -0.0531
     27 C25       -67.5730  -45.6160    8.8930 C.3       1 DEQ        -0.0530
     28 C26       -68.9720  -45.8580    8.2810 C.3       1 DEQ        -0.0512
     29 C27       -70.0250  -46.9520    7.9960 C.3       1 DEQ        -0.0329
     30 C28       -71.3440  -46.7460    8.7890 C.3       1 DEQ         0.0293
     31 C30       -73.8900  -46.1440   10.4350 C.3       1 DEQ        -0.0376
     32 C29       -58.7530  -45.5520    3.1750 C.3       1 DEQ        -0.0147
     33 N4        -76.0410  -50.3550    9.2680 N.pl3     1 DEQ        -0.3493
     34 N3        -60.6980  -46.0770   -1.1020 N.4       1 DEQ         0.2343
     35 H1        -70.5813  -49.1577    7.0212 H         1 DEQ         0.0505
     36 H2        -70.7686  -51.3752    5.8949 H         1 DEQ         0.0562
     37 H3        -72.8247  -52.7879    6.2181 H         1 DEQ         0.0502
     38 H4        -74.6967  -51.9678    7.6654 H         1 DEQ         0.0560
     39 H5        -75.6282  -48.0560   10.3035 H         1 DEQ         0.0334
     40 H6        -74.1322  -46.9492    8.7351 H         1 DEQ         0.0646
     41 H7        -59.0658  -46.0063    0.6832 H         1 DEQ         0.0187
     42 H8        -61.3759  -46.7690    0.4496 H         1 DEQ         0.1015
     43 H9        -63.3675  -45.5910   -1.2386 H         1 DEQ         0.0514
     44 H10       -65.6839  -44.9775   -0.5395 H         1 DEQ         0.0491
     45 H11       -66.1505  -44.3849    1.8597 H         1 DEQ         0.0525
     46 H12       -64.3078  -44.4068    3.5231 H         1 DEQ         0.0495
     47 H13       -60.7914  -44.1634    5.1699 H         1 DEQ         0.0558
     48 H14       -60.6977  -45.9568    5.1282 H         1 DEQ         0.0558
     49 H15       -63.1489  -46.0838    4.8759 H         1 DEQ         0.0288
     50 H16       -63.2478  -44.2905    4.9024 H         1 DEQ         0.0288
     51 H17       -62.5515  -44.2682    7.2781 H         1 DEQ         0.0266
     52 H18       -62.3812  -46.0563    7.2608 H         1 DEQ         0.0266
     53 H19       -64.6388  -46.2777    6.3837 H         1 DEQ         0.0265
     54 H20       -64.8122  -44.4901    6.3521 H         1 DEQ         0.0265
     55 H21       -64.9248  -44.4476    8.8031 H         1 DEQ         0.0265
     56 H22       -64.7178  -46.2312    8.8519 H         1 DEQ         0.0265
     57 H23       -66.5960  -46.5094    7.2448 H         1 DEQ         0.0265
     58 H24       -66.7873  -44.7262    7.1437 H         1 DEQ         0.0265
     59 H25       -67.5752  -44.6607    9.4384 H         1 DEQ         0.0265
     60 H26       -67.3338  -46.4345    9.5879 H         1 DEQ         0.0265
     61 H27       -68.8197  -45.4575    7.2679 H         1 DEQ         0.0266
     62 H28       -69.5735  -45.1491    8.8690 H         1 DEQ         0.0266
     63 H29       -69.5995  -47.9283    8.2712 H         1 DEQ         0.0284
     64 H30       -70.2574  -46.9432    6.9209 H         1 DEQ         0.0284
     65 H31       -71.0503  -46.6151    9.8409 H         1 DEQ         0.0518
     66 H32       -71.7839  -45.8109    8.4120 H         1 DEQ         0.0518
     67 H33       -74.8689  -46.1702   10.9360 H         1 DEQ         0.0269
     68 H34       -73.8460  -45.2754    9.7615 H         1 DEQ         0.0269
     69 H35       -73.0939  -46.0636   11.1898 H         1 DEQ         0.0269
     70 H36       -57.9799  -45.8443    2.4491 H         1 DEQ         0.0409
     71 H37       -58.8135  -46.3089    3.9709 H         1 DEQ         0.0409
     72 H38       -58.4936  -44.5776    3.6145 H         1 DEQ         0.0409
     73 H39       -76.1664  -51.2784    8.8292 H         1 DEQ         0.1661
     74 H40       -76.7790  -49.9681    9.8735 H         1 DEQ         0.1661
     75 H41       -61.4899  -46.0595   -1.7254 H         1 DEQ         0.2011
     76 H42       -60.2999  -47.0030   -1.0904 H         1 DEQ         0.2011
     77 H43       -60.0054  -45.4174   -1.4202 H         1 DEQ         0.2011
@<TRIPOS>BOND
     1    1    2 ar 
     2    5    1 ar 
     3    2    3 ar 
     4    4    3 ar 
     5    6    4 ar 
     6    5    6 ar 
     7   10    5 1  
     8    6    7 1  
     9    8    7 2  
    10    7   33 1  
    11    9    8 1  
    12   10    9 1  
    13    9   31 1  
    14   30   10 1  
    15   12   11 ar 
    16   11   16 1  
    17   11   17 ar 
    18   13   12 1  
    19   12   20 ar 
    20   13   14 1  
    21   21   13 1  
    22   14   15 2  
    23   14   32 1  
    24   15   16 1  
    25   16   34 1  
    26   17   18 ar 
    27   19   18 ar 
    28   20   19 ar 
    29   22   21 1  
    30   23   22 1  
    31   24   23 1  
    32   25   24 1  
    33   26   25 1  
    34   27   26 1  
    35   28   27 1  
    36   29   28 1  
    37   29   30 1  
    38    1   35 1  
    39    2   36 1  
    40    3   37 1  
    41    4   38 1  
    42    8   39 1  
    43    9   40 1  
    44   15   41 1  
    45   16   42 1  
    46   17   43 1  
    47   18   44 1  
    48   19   45 1  
    49   20   46 1  
    50   21   47 1  
    51   21   48 1  
    52   22   49 1  
    53   22   50 1  
    54   23   51 1  
    55   23   52 1  
    56   24   53 1  
    57   24   54 1  
    58   25   55 1  
    59   25   56 1  
    60   26   57 1  
    61   26   58 1  
    62   27   59 1  
    63   27   60 1  
    64   28   61 1  
    65   28   62 1  
    66   29   63 1  
    67   29   64 1  
    68   30   65 1  
    69   30   66 1  
    70   31   67 1  
    71   31   68 1  
    72   31   69 1  
    73   32   70 1  
    74   32   71 1  
    75   32   72 1  
    76   33   73 1  
    77   33   74 1  
    78   34   75 1  
    79   34   76 1  
    80   34   77 1  
@<TRIPOS>SUBSTRUCTURE
     1 DEQ         1

