### 
### Created by X-TOOL on Mon Sep 10 21:12:59 2018
### 

@<TRIPOS>MOLECULE
3btc_ligand
   51    53     1     0     0
SMALL
GAST_HUCK


@<TRIPOS>ATOM
      1 C1        -70.1990  -46.1460    5.5050 C.3       1 MGR         0.0463
      2 C2        -70.7100  -47.5280    5.8090 C.ar      1 MGR        -0.0220
      3 C3        -70.8520  -48.0000    7.1700 C.ar      1 MGR        -0.0568
      4 C4        -71.3170  -49.2820    7.4660 C.ar      1 MGR        -0.0680
      5 C5        -71.6830  -50.1810    6.4230 C.ar      1 MGR        -0.0685
      6 C6        -71.5610  -49.7500    5.0630 C.ar      1 MGR        -0.0680
      7 C7        -71.0960  -48.4620    4.7640 C.ar      1 MGR        -0.0568
      8 C8        -68.9750  -45.9460    4.6850 C.ar      1 MGR        -0.0328
      9 C9        -68.0300  -47.0390    4.4270 C.ar      1 MGR        -0.0677
     10 C10       -66.8980  -46.9060    3.6510 C.ar      1 MGR        -0.0499
     11 C11       -66.5390  -45.6410    3.0850 C.ar      1 MGR         0.0335
     12 C12       -67.4600  -44.5270    3.3150 C.ar      1 MGR        -0.0499
     13 C13       -68.6050  -44.6850    4.1050 C.ar      1 MGR        -0.0677
     14 C14       -70.9620  -45.0260    6.0770 C.ar      1 MGR        -0.0328
     15 C15       -70.3560  -44.0770    6.9810 C.ar      1 MGR        -0.0677
     16 C16       -71.0750  -43.0340    7.5550 C.ar      1 MGR        -0.0499
     17 C17       -72.4320  -42.8530    7.2810 C.ar      1 MGR         0.0335
     18 C18       -73.0660  -43.7760    6.3760 C.ar      1 MGR        -0.0499
     19 C19       -72.3520  -44.8210    5.7990 C.ar      1 MGR        -0.0677
     20 C22       -65.0540  -44.1790    1.6750 C.3       1 MGR         0.0139
     21 C23       -64.4380  -46.5950    1.9930 C.3       1 MGR         0.0139
     22 C24       -73.3680  -41.7070    9.2830 C.3       1 MGR         0.0139
     23 C25       -73.7540  -40.7890    7.0680 C.3       1 MGR         0.0139
     24 N2        -65.4100  -45.5080    2.2910 N.pl3     1 MGR        -0.3183
     25 N3        -73.1370  -41.8420    7.8530 N.pl3     1 MGR        -0.3183
     26 H1        -70.8081  -46.1052    4.5900 H         1 MGR         0.0725
     27 H2        -70.5886  -47.3362    7.9856 H         1 MGR         0.0563
     28 H3        -71.4006  -49.5970    8.4998 H         1 MGR         0.0600
     29 H4        -72.0478  -51.1750    6.6553 H         1 MGR         0.0561
     30 H5        -71.8303  -50.4249    4.2586 H         1 MGR         0.0600
     31 H6        -71.0223  -48.1545    3.7271 H         1 MGR         0.0563
     32 H7        -68.2337  -48.0062    4.8720 H         1 MGR         0.0532
     33 H8        -66.2713  -47.7712    3.4670 H         1 MGR         0.0500
     34 H9        -67.2519  -43.5626    2.8658 H         1 MGR         0.0500
     35 H10       -69.2365  -43.8227    4.2859 H         1 MGR         0.0532
     36 H11       -69.3040  -44.1811    7.2206 H         1 MGR         0.0532
     37 H12       -70.5723  -42.3487    8.2278 H         1 MGR         0.0500
     38 H13       -74.1171  -43.6545    6.1404 H         1 MGR         0.0500
     39 H14       -72.8605  -45.4975    5.1217 H         1 MGR         0.0532
     40 H15       -64.1307  -44.2834    1.0862 H         1 MGR         0.0475
     41 H16       -64.8992  -43.4356    2.4709 H         1 MGR         0.0475
     42 H17       -65.8722  -43.8483    1.0183 H         1 MGR         0.0475
     43 H18       -64.7693  -47.5258    2.4765 H         1 MGR         0.0475
     44 H19       -63.4460  -46.3153    2.3772 H         1 MGR         0.0475
     45 H20       -64.3804  -46.7473    0.9051 H         1 MGR         0.0475
     46 H21       -73.9657  -40.8035    9.4742 H         1 MGR         0.0475
     47 H22       -72.4028  -41.6252    9.8042 H         1 MGR         0.0475
     48 H23       -73.9102  -42.5901    9.6518 H         1 MGR         0.0475
     49 H24       -73.5398  -40.9532    6.0016 H         1 MGR         0.0475
     50 H25       -73.3479  -39.8148    7.3777 H         1 MGR         0.0475
     51 H26       -74.8420  -40.8008    7.2295 H         1 MGR         0.0475
@<TRIPOS>BOND
     1    1    2 1  
     2    1    8 1  
     3    1   14 1  
     4    2    3 ar 
     5    2    7 ar 
     6    3    4 ar 
     7    4    5 ar 
     8    5    6 ar 
     9    6    7 ar 
    10    8    9 ar 
    11    8   13 ar 
    12    9   10 ar 
    13   10   11 ar 
    14   11   12 ar 
    15   11   24 1  
    16   12   13 ar 
    17   14   15 ar 
    18   14   19 ar 
    19   15   16 ar 
    20   16   17 ar 
    21   17   18 ar 
    22   17   25 1  
    23   18   19 ar 
    24   24   20 1  
    25   24   21 1  
    26   25   22 1  
    27   25   23 1  
    28    1   26 1  
    29    3   27 1  
    30    4   28 1  
    31    5   29 1  
    32    6   30 1  
    33    7   31 1  
    34    9   32 1  
    35   10   33 1  
    36   12   34 1  
    37   13   35 1  
    38   15   36 1  
    39   16   37 1  
    40   18   38 1  
    41   19   39 1  
    42   20   40 1  
    43   20   41 1  
    44   20   42 1  
    45   21   43 1  
    46   21   44 1  
    47   21   45 1  
    48   22   46 1  
    49   22   47 1  
    50   22   48 1  
    51   23   49 1  
    52   23   50 1  
    53   23   51 1  
@<TRIPOS>SUBSTRUCTURE
     1 MGR         1

