### 
### Created by X-TOOL on Mon Sep 10 21:12:58 2018
### 

@<TRIPOS>MOLECULE
3bti_ligand
   44    48     1     0     0
SMALL
GAST_HUCK


@<TRIPOS>ATOM
      1 C1        -64.7360  -44.6210    2.6970 C.2       1 BER         0.0324
      2 C2        -66.1490  -44.2640    3.1580 C.ar      1 BER        -0.0109
      3 N1        -64.4300  -44.5400    1.2970 N.pl3     1 BER        -0.2989
      4 C3        -63.7000  -44.9940    3.6140 C.2       1 BER        -0.0698
      5 C4        -66.9760  -43.4720    2.2510 C.ar      1 BER        -0.0452
      6 C5        -66.6830  -44.6590    4.4230 C.ar      1 BER        -0.0351
      7 C6        -63.1480  -44.8380    0.8190 C.3       1 BER         0.0551
      8 C7        -65.4900  -44.1460    0.3310 C.3       1 BER         0.0388
      9 C8        -62.3930  -45.2990    3.1160 C.ar      1 BER        -0.0663
     10 C9        -68.2910  -43.0930    2.6270 C.ar      1 BER        -0.0343
     11 C10       -66.4140  -43.0450    0.8940 C.3       1 BER        -0.0031
     12 C11       -68.0210  -44.2650    4.7860 C.ar      1 BER         0.1194
     13 C12       -62.1060  -45.1840    1.7060 C.ar      1 BER        -0.0029
     14 C13       -61.3490  -45.6450    4.0130 C.ar      1 BER        -0.0910
     15 C14       -68.8160  -43.4860    3.8910 C.ar      1 BER         0.1214
     16 O1        -68.7630  -44.4980    5.9060 O.3       1 BER        -0.2944
     17 C15       -60.7940  -45.4970    1.1780 C.ar      1 BER         0.1160
     18 C16       -60.0440  -45.9290    3.5220 C.ar      1 BER        -0.0542
     19 O2        -70.0190  -43.2560    4.4790 O.3       1 BER        -0.2896
     20 C17       -69.8430  -43.5510    5.8690 C.3       1 BER         0.1866
     21 C18       -59.7360  -45.8300    2.1090 C.ar      1 BER         0.1072
     22 O3        -60.5880  -45.3700   -0.2110 O.3       1 BER        -0.3309
     23 O4        -58.4580  -46.1020    1.6350 O.3       1 BER        -0.3303
     24 C19       -59.3220  -45.6080   -0.8800 C.3       1 BER         0.0548
     25 C20       -57.3670  -46.4600    2.5110 C.3       1 BER         0.0556
     26 H1        -63.9055  -45.0451    4.6822 H         1 BER         0.0247
     27 H2        -66.0852  -45.2517    5.1059 H         1 BER         0.0502
     28 H3        -62.8062  -43.9512    0.2651 H         1 BER         0.0647
     29 H4        -63.2614  -45.6832    0.1242 H         1 BER         0.0647
     30 H5        -66.0984  -45.0309    0.0926 H         1 BER         0.0544
     31 H6        -65.0118  -43.7719   -0.5862 H         1 BER         0.0544
     32 H7        -68.8976  -42.5025    1.9499 H         1 BER         0.0462
     33 H8        -65.8394  -42.1148    1.0148 H         1 BER         0.0438
     34 H9        -67.2449  -42.8745    0.1937 H         1 BER         0.0438
     35 H10       -61.5468  -45.6932    5.0777 H         1 BER         0.0414
     36 H11       -59.2664  -46.2246    4.2170 H         1 BER         0.0448
     37 H12       -69.5806  -42.6411    6.4286 H         1 BER         0.0973
     38 H13       -70.7588  -43.9901    6.2915 H         1 BER         0.0973
     39 H14       -59.4405  -45.4378   -1.9603 H         1 BER         0.0569
     40 H15       -59.0044  -46.6465   -0.7052 H         1 BER         0.0569
     41 H16       -58.5617  -44.9200   -0.4817 H         1 BER         0.0569
     42 H17       -56.4580  -46.6280    1.9147 H         1 BER         0.0571
     43 H18       -57.6222  -47.3799    3.0575 H         1 BER         0.0571
     44 H19       -57.1897  -45.6448    3.2279 H         1 BER         0.0571
@<TRIPOS>BOND
     1    1    2 1  
     2    1    3 1  
     3    1    4 2  
     4    2    5 ar 
     5    2    6 ar 
     6    3    7 1  
     7    3    8 1  
     8    4    9 1  
     9    5   10 ar 
    10    5   11 1  
    11    6   12 ar 
    12    7   13 1  
    13    8   11 1  
    14    9   13 ar 
    15    9   14 ar 
    16   10   15 ar 
    17   12   15 ar 
    18   12   16 1  
    19   13   17 ar 
    20   14   18 ar 
    21   15   19 1  
    22   16   20 1  
    23   17   21 ar 
    24   17   22 1  
    25   18   21 ar 
    26   19   20 1  
    27   21   23 1  
    28   22   24 1  
    29   23   25 1  
    30    4   26 1  
    31    6   27 1  
    32    7   28 1  
    33    7   29 1  
    34    8   30 1  
    35    8   31 1  
    36   10   32 1  
    37   11   33 1  
    38   11   34 1  
    39   14   35 1  
    40   18   36 1  
    41   20   37 1  
    42   20   38 1  
    43   24   39 1  
    44   24   40 1  
    45   24   41 1  
    46   25   42 1  
    47   25   43 1  
    48   25   44 1  
@<TRIPOS>SUBSTRUCTURE
     1 BER         1

