### 
### Created by X-TOOL on Mon Sep 10 21:12:58 2018
### 

@<TRIPOS>MOLECULE
3btj_ligand
   77    80     1     0     0
SMALL
GAST_HUCK


@<TRIPOS>ATOM
      1 C1        -71.4650  -50.6010    7.7690 C.ar      1 DEQ        -0.0451
      2 C2        -71.7190  -51.7530    6.9500 C.ar      1 DEQ        -0.0760
      3 C3        -73.0510  -52.2530    6.8240 C.ar      1 DEQ        -0.0772
      4 C4        -74.1240  -51.5980    7.5140 C.ar      1 DEQ        -0.0670
      5 C5        -72.5170  -49.8890    8.4970 C.ar      1 DEQ         0.0511
      6 C6        -73.8920  -50.4240    8.3460 C.ar      1 DEQ         0.0103
      7 C7        -74.9950  -49.7870    9.0270 C.2       1 DEQ         0.0200
      8 C8        -74.7900  -48.6390    9.8420 C.2       1 DEQ        -0.0597
      9 C9        -73.5350  -48.0330   10.0700 C.3       1 DEQ         0.0472
     10 N1        -72.3250  -48.6190    9.4180 N.pl3     1 DEQ        -0.2992
     11 C10       -62.5020  -45.4990    1.1680 C.ar      1 DEQ         0.0290
     12 C11       -62.8040  -45.4990    2.6280 C.ar      1 DEQ         0.0690
     13 N2        -61.5710  -45.4230    3.6760 N.pl3     1 DEQ        -0.2707
     14 C12       -60.1910  -45.3530    2.9320 C.2       1 DEQ         0.0248
     15 C13       -60.0630  -45.3620    1.5450 C.2       1 DEQ        -0.0400
     16 C14       -61.1360  -45.4300    0.6700 C.3       1 DEQ         0.0084
     17 C15       -63.5910  -45.5690    0.2180 C.ar      1 DEQ        -0.0646
     18 C16       -64.9640  -45.6360    0.6130 C.ar      1 DEQ        -0.0817
     19 C17       -65.2880  -45.6350    1.9920 C.ar      1 DEQ        -0.0803
     20 C18       -64.2340  -45.5670    2.9600 C.ar      1 DEQ        -0.0461
     21 C19       -61.4080  -45.5430    5.2820 C.3       1 DEQ         0.0422
     22 C20       -62.8160  -45.8250    5.7710 C.3       1 DEQ        -0.0297
     23 C21       -62.9270  -45.9870    7.2830 C.3       1 DEQ        -0.0510
     24 C22       -64.3700  -46.2850    7.5100 C.3       1 DEQ        -0.0530
     25 C23       -64.8170  -46.5110    8.9360 C.3       1 DEQ        -0.0531
     26 C24       -66.3170  -46.8060    8.8010 C.3       1 DEQ        -0.0531
     27 C25       -67.0350  -47.0750   10.0990 C.3       1 DEQ        -0.0530
     28 C26       -68.5070  -47.3620    9.8310 C.3       1 DEQ        -0.0512
     29 C27       -69.5850  -48.2880    9.2460 C.3       1 DEQ        -0.0329
     30 C28       -70.9840  -47.8770    9.7650 C.3       1 DEQ         0.0293
     31 C30       -73.5650  -46.7910   11.0080 C.3       1 DEQ        -0.0376
     32 C29       -58.8440  -45.2750    3.6590 C.3       1 DEQ        -0.0147
     33 N4        -76.3600  -50.2320    8.9480 N.pl3     1 DEQ        -0.3493
     34 N3        -60.6430  -45.4170   -0.6930 N.4       1 DEQ         0.2343
     35 H1        -70.4458  -50.2414    7.8522 H         1 DEQ         0.0505
     36 H2        -70.9030  -52.2412    6.4295 H         1 DEQ         0.0562
     37 H3        -73.2499  -53.1236    6.2096 H         1 DEQ         0.0502
     38 H4        -75.1316  -51.9852    7.4144 H         1 DEQ         0.0560
     39 H5        -75.6612  -48.1970   10.3233 H         1 DEQ         0.0334
     40 H6        -73.6643  -47.3742    9.1986 H         1 DEQ         0.0646
     41 H7        -59.0603  -45.3127    1.1229 H         1 DEQ         0.0187
     42 H8        -61.1209  -46.5299    0.6702 H         1 DEQ         0.1015
     43 H9        -63.3558  -45.5707   -0.8402 H         1 DEQ         0.0514
     44 H10       -65.7476  -45.6870   -0.1343 H         1 DEQ         0.0491
     45 H11       -66.3226  -45.6852    2.3115 H         1 DEQ         0.0525
     46 H12       -64.5100  -45.5656    4.0083 H         1 DEQ         0.0495
     47 H13       -61.0265  -44.6034    5.7081 H         1 DEQ         0.0558
     48 H14       -60.7295  -46.3675    5.5461 H         1 DEQ         0.0558
     49 H15       -63.1672  -46.7534    5.2971 H         1 DEQ         0.0288
     50 H16       -63.4624  -44.9895    5.4644 H         1 DEQ         0.0288
     51 H17       -62.6337  -45.0603    7.7979 H         1 DEQ         0.0266
     52 H18       -62.2966  -46.8171    7.6344 H         1 DEQ         0.0266
     53 H19       -64.6130  -47.1939    6.9400 H         1 DEQ         0.0265
     54 H20       -64.9484  -45.4377    7.1132 H         1 DEQ         0.0265
     55 H21       -64.6468  -45.6130    9.5480 H         1 DEQ         0.0265
     56 H22       -64.2874  -47.3652    9.3830 H         1 DEQ         0.0265
     57 H23       -66.4339  -47.6903    8.1573 H         1 DEQ         0.0265
     58 H24       -66.7933  -45.9380    8.3217 H         1 DEQ         0.0265
     59 H25       -66.9488  -46.1942   10.7522 H         1 DEQ         0.0265
     60 H26       -66.5787  -47.9448   10.5941 H         1 DEQ         0.0265
     61 H27       -68.7628  -46.4404    9.2877 H         1 DEQ         0.0266
     62 H28       -68.8828  -47.2957   10.8627 H         1 DEQ         0.0266
     63 H29       -69.3759  -49.3248    9.5481 H         1 DEQ         0.0284
     64 H30       -69.5693  -48.2156    8.1485 H         1 DEQ         0.0284
     65 H31       -70.9095  -47.9025   10.8622 H         1 DEQ         0.0518
     66 H32       -71.1278  -46.8388    9.4313 H         1 DEQ         0.0518
     67 H33       -74.5990  -46.6010   11.3318 H         1 DEQ         0.0269
     68 H34       -73.1832  -45.9131   10.4663 H         1 DEQ         0.0269
     69 H35       -72.9341  -46.9813   11.8888 H         1 DEQ         0.0269
     70 H36       -58.0302  -45.2357    2.9199 H         1 DEQ         0.0409
     71 H37       -58.7188  -46.1635    4.2953 H         1 DEQ         0.0409
     72 H38       -58.8162  -44.3698    4.2834 H         1 DEQ         0.0409
     73 H39       -76.6008  -51.0567    8.3798 H         1 DEQ         0.1661
     74 H40       -77.0970  -49.7261    9.4596 H         1 DEQ         0.1661
     75 H41       -61.4209  -45.4663   -1.3321 H         1 DEQ         0.2011
     76 H42       -60.0375  -46.2096   -0.8389 H         1 DEQ         0.2011
     77 H43       -60.1278  -44.5661   -0.8559 H         1 DEQ         0.2011
@<TRIPOS>BOND
     1    1    2 ar 
     2    5    1 ar 
     3    2    3 ar 
     4    4    3 ar 
     5    6    4 ar 
     6    5    6 ar 
     7   10    5 1  
     8    6    7 1  
     9    8    7 2  
    10    7   33 1  
    11    9    8 1  
    12   10    9 1  
    13    9   31 1  
    14   30   10 1  
    15   12   11 ar 
    16   11   16 1  
    17   11   17 ar 
    18   13   12 1  
    19   12   20 ar 
    20   13   14 1  
    21   21   13 1  
    22   14   15 2  
    23   14   32 1  
    24   15   16 1  
    25   16   34 1  
    26   17   18 ar 
    27   19   18 ar 
    28   20   19 ar 
    29   22   21 1  
    30   23   22 1  
    31   24   23 1  
    32   25   24 1  
    33   26   25 1  
    34   27   26 1  
    35   28   27 1  
    36   29   28 1  
    37   29   30 1  
    38    1   35 1  
    39    2   36 1  
    40    3   37 1  
    41    4   38 1  
    42    8   39 1  
    43    9   40 1  
    44   15   41 1  
    45   16   42 1  
    46   17   43 1  
    47   18   44 1  
    48   19   45 1  
    49   20   46 1  
    50   21   47 1  
    51   21   48 1  
    52   22   49 1  
    53   22   50 1  
    54   23   51 1  
    55   23   52 1  
    56   24   53 1  
    57   24   54 1  
    58   25   55 1  
    59   25   56 1  
    60   26   57 1  
    61   26   58 1  
    62   27   59 1  
    63   27   60 1  
    64   28   61 1  
    65   28   62 1  
    66   29   63 1  
    67   29   64 1  
    68   30   65 1  
    69   30   66 1  
    70   31   67 1  
    71   31   68 1  
    72   31   69 1  
    73   32   70 1  
    74   32   71 1  
    75   32   72 1  
    76   33   73 1  
    77   33   74 1  
    78   34   75 1  
    79   34   76 1  
    80   34   77 1  
@<TRIPOS>SUBSTRUCTURE
     1 DEQ         1

