### 
### Created by X-TOOL on Mon Sep 10 21:12:58 2018
### 

@<TRIPOS>MOLECULE
3btl_ligand
   51    53     1     0     0
SMALL
GAST_HUCK


@<TRIPOS>ATOM
      1 C1        -70.3360  -46.3280    5.9500 C.3       1 MGR         0.0463
      2 C2        -70.8320  -47.7320    6.2580 C.ar      1 MGR        -0.0220
      3 C3        -70.9740  -48.2340    7.6350 C.ar      1 MGR        -0.0568
      4 C4        -71.4300  -49.5870    7.9170 C.ar      1 MGR        -0.0680
      5 C5        -71.7780  -50.5120    6.8150 C.ar      1 MGR        -0.0685
      6 C6        -71.6530  -50.0260    5.4390 C.ar      1 MGR        -0.0680
      7 C7        -71.1990  -48.6720    5.1800 C.ar      1 MGR        -0.0568
      8 C8        -69.0870  -46.0890    5.0500 C.ar      1 MGR        -0.0328
      9 C9        -68.0730  -47.2160    4.8340 C.ar      1 MGR        -0.0677
     10 C10       -66.8930  -47.1060    4.0080 C.ar      1 MGR        -0.0499
     11 C11       -66.5950  -45.8090    3.3100 C.ar      1 MGR         0.0335
     12 C12       -67.5770  -44.6260    3.5040 C.ar      1 MGR        -0.0499
     13 C13       -68.7750  -44.7810    4.3580 C.ar      1 MGR        -0.0677
     14 C14       -71.0700  -45.2170    6.5850 C.ar      1 MGR        -0.0328
     15 C15       -70.3530  -44.2860    7.4750 C.ar      1 MGR        -0.0677
     16 C16       -71.0390  -43.2050    8.1100 C.ar      1 MGR        -0.0499
     17 C17       -72.4410  -43.0150    7.8630 C.ar      1 MGR         0.0335
     18 C18       -73.1760  -43.9220    7.0000 C.ar      1 MGR        -0.0499
     19 C19       -72.4970  -44.9870    6.3750 C.ar      1 MGR        -0.0677
     20 C22       -65.1430  -44.3950    1.7150 C.3       1 MGR         0.0139
     21 C23       -64.4760  -46.8640    2.1970 C.3       1 MGR         0.0139
     22 C24       -73.2940  -41.8310    9.9060 C.3       1 MGR         0.0139
     23 C25       -73.7290  -40.9430    7.5320 C.3       1 MGR         0.0139
     24 N2        -65.4560  -45.7130    2.4590 N.pl3     1 MGR        -0.3183
     25 N3        -73.0910  -42.0000    8.4210 N.pl3     1 MGR        -0.3183
     26 H1        -70.9840  -46.2717    5.0629 H         1 MGR         0.0725
     27 H2        -70.7319  -47.5769    8.4624 H         1 MGR         0.0563
     28 H3        -71.5157  -49.9208    8.9447 H         1 MGR         0.0600
     29 H4        -72.1160  -51.5212    7.0207 H         1 MGR         0.0561
     30 H5        -71.9005  -50.6801    4.6108 H         1 MGR         0.0600
     31 H6        -71.1263  -48.3366    4.1517 H         1 MGR         0.0563
     32 H7        -68.2529  -48.1604    5.3349 H         1 MGR         0.0532
     33 H8        -66.2269  -47.9534    3.8924 H         1 MGR         0.0500
     34 H9        -67.3850  -43.6797    3.0112 H         1 MGR         0.0500
     35 H10       -69.4440  -43.9384    4.4907 H         1 MGR         0.0532
     36 H11       -69.2920  -44.4230    7.6500 H         1 MGR         0.0532
     37 H12       -70.5053  -42.5336    8.7730 H         1 MGR         0.0500
     38 H13       -74.2385  -43.7812    6.8377 H         1 MGR         0.0500
     39 H14       -73.0483  -45.6531    5.7212 H         1 MGR         0.0532
     40 H15       -64.2307  -44.5212    1.1136 H         1 MGR         0.0475
     41 H16       -64.9909  -43.5880    2.4468 H         1 MGR         0.0475
     42 H17       -65.9845  -44.1377    1.0550 H         1 MGR         0.0475
     43 H18       -64.7881  -47.7491    2.7708 H         1 MGR         0.0475
     44 H19       -63.4650  -46.5629    2.5086 H         1 MGR         0.0475
     45 H20       -64.4723  -47.1054    1.1238 H         1 MGR         0.0475
     46 H21       -73.8629  -40.9089   10.0957 H         1 MGR         0.0475
     47 H22       -72.3157  -41.7674   10.4049 H         1 MGR         0.0475
     48 H23       -73.8514  -42.6934   10.3004 H         1 MGR         0.0475
     49 H24       -73.5135  -41.1718    6.4779 H         1 MGR         0.0475
     50 H25       -73.3173  -39.9546    7.7842 H         1 MGR         0.0475
     51 H26       -74.8174  -40.9384    7.6911 H         1 MGR         0.0475
@<TRIPOS>BOND
     1    1    2 1  
     2    1    8 1  
     3    1   14 1  
     4    2    3 ar 
     5    2    7 ar 
     6    3    4 ar 
     7    4    5 ar 
     8    5    6 ar 
     9    6    7 ar 
    10    8    9 ar 
    11    8   13 ar 
    12    9   10 ar 
    13   10   11 ar 
    14   11   12 ar 
    15   11   24 1  
    16   12   13 ar 
    17   14   15 ar 
    18   14   19 ar 
    19   15   16 ar 
    20   16   17 ar 
    21   17   18 ar 
    22   17   25 1  
    23   18   19 ar 
    24   24   20 1  
    25   24   21 1  
    26   25   22 1  
    27   25   23 1  
    28    1   26 1  
    29    3   27 1  
    30    4   28 1  
    31    5   29 1  
    32    6   30 1  
    33    7   31 1  
    34    9   32 1  
    35   10   33 1  
    36   12   34 1  
    37   13   35 1  
    38   15   36 1  
    39   16   37 1  
    40   18   38 1  
    41   19   39 1  
    42   20   40 1  
    43   20   41 1  
    44   20   42 1  
    45   21   43 1  
    46   21   44 1  
    47   21   45 1  
    48   22   46 1  
    49   22   47 1  
    50   22   48 1  
    51   23   49 1  
    52   23   50 1  
    53   23   51 1  
@<TRIPOS>SUBSTRUCTURE
     1 MGR         1

