### 
### Created by X-TOOL on Mon Sep 10 21:12:57 2018
### 

@<TRIPOS>MOLECULE
3bu1_ligand
   18    18     1     0     0
SMALL
GAST_HUCK


@<TRIPOS>ATOM
      1 N          18.1750   22.9850    7.5870 N.4       1 HSM         0.2200
      2 CA         17.3610   23.1390    8.7890 C.3       1 HSM        -0.0241
      3 CB         16.2830   24.1870    8.5480 C.3       1 HSM         0.0424
      4 CG         15.5020   24.4820    9.8120 C.2       1 HSM         0.0567
      5 ND1        16.0040   24.9860   10.9670 N.pl3     1 HSM        -0.2623
      6 CD2        14.1430   24.2900    9.9970 C.2       1 HSM        -0.0276
      7 CE1        14.9900   25.1060   11.8470 C.2       1 HSM         0.0875
      8 NE2        13.8510   24.6830   11.2560 N.2       1 HSM        -0.3437
      9 H1         18.8873   22.2907    7.7503 H         1 HSM         0.1996
     10 H2         18.6099   23.8657    7.3606 H         1 HSM         0.1996
     11 H3         17.5899   22.6922    6.8202 H         1 HSM         0.1996
     12 H4         18.0005   23.4579    9.6253 H         1 HSM         0.0837
     13 H5         16.8873   22.1773    9.0356 H         1 HSM         0.0837
     14 H6         15.5901   23.8164    7.7782 H         1 HSM         0.0496
     15 H7         16.7586   25.1147    8.1972 H         1 HSM         0.0496
     16 H8         16.9884   25.2338   11.1412 H         1 HSM         0.2386
     17 H9         13.4407   23.8957    9.2641 H         1 HSM         0.0324
     18 H10        15.0748   25.4817   12.8656 H         1 HSM         0.1149
@<TRIPOS>BOND
     1    1    2 1  
     2    2    3 1  
     3    3    4 1  
     4    4    5 1  
     5    4    6 2  
     6    5    7 1  
     7    6    8 1  
     8    7    8 2  
     9    1    9 1  
    10    1   10 1  
    11    1   11 1  
    12    2   12 1  
    13    2   13 1  
    14    3   14 1  
    15    3   15 1  
    16    5   16 1  
    17    6   17 1  
    18    7   18 1  
@<TRIPOS>SUBSTRUCTURE
     1 HSM         1

