### 
### Created by X-TOOL on Mon Sep 10 21:12:58 2018
### 

@<TRIPOS>MOLECULE
3buf_ligand
   25    25     1     0     0
SMALL
GAST_HUCK


@<TRIPOS>ATOM
      1 C4        -18.4800   40.2670   93.5670 C.3       1 AEG         0.0187
      2 C5        -22.1480   39.3720   94.0320 C.ar      1 AEG        -0.0398
      3 C6        -22.0020   41.6410   93.1150 C.ar      1 AEG        -0.0398
      4 C7        -17.9010   39.2740   92.5510 C.3       1 AEG        -0.0192
      5 C8        -22.7490   40.5500   93.5790 C.ar      1 AEG         0.0805
      6 O11       -24.1120   40.6300   93.5950 O.3       1 AEG        -0.3376
      7 C3        -20.6090   41.5360   93.1120 C.ar      1 AEG        -0.0686
      8 C2        -20.7570   39.2880   94.0210 C.ar      1 AEG        -0.0686
      9 C1        -19.9870   40.3610   93.5600 C.ar      1 AEG        -0.0484
     10 N10       -16.4320   39.0320   92.8300 N.4       1 AEG         0.2218
     11 C9        -18.0940   39.7920   91.1230 C.3       1 AEG        -0.0200
     12 H1        -18.0724   41.2640   93.3440 H         1 AEG         0.0460
     13 H2        -18.1596   39.9563   94.5724 H         1 AEG         0.0460
     14 H3        -22.7505   38.5424   94.3840 H         1 AEG         0.0525
     15 H4        -22.4924   42.5431   92.7674 H         1 AEG         0.0525
     16 H5        -18.4379   38.3192   92.6512 H         1 AEG         0.0868
     17 H6        -24.4718   39.8184   93.9333 H         1 AEG         0.2458
     18 H7        -20.0060   42.3660   92.7620 H         1 AEG         0.0530
     19 H8        -20.2689   38.3859   94.3717 H         1 AEG         0.0530
     20 H9        -16.0652   38.3786   92.1558 H         1 AEG         0.1998
     21 H10       -16.3241   38.6534   93.7579 H         1 AEG         0.1998
     22 H11       -15.9291   39.9029   92.7618 H         1 AEG         0.1998
     23 H12       -19.1646   39.9625   90.9364 H         1 AEG         0.0286
     24 H13       -17.7111   39.0486   90.4084 H         1 AEG         0.0286
     25 H14       -17.5451   40.7370   90.9984 H         1 AEG         0.0286
@<TRIPOS>BOND
     1    1    4 1  
     2    9    1 1  
     3    5    2 ar 
     4    2    8 ar 
     5    3    5 ar 
     6    7    3 ar 
     7    4   10 1  
     8    4   11 1  
     9    5    6 1  
    10    7    9 ar 
    11    8    9 ar 
    12    1   12 1  
    13    1   13 1  
    14    2   14 1  
    15    3   15 1  
    16    4   16 1  
    17    6   17 1  
    18    7   18 1  
    19    8   19 1  
    20   10   20 1  
    21   10   21 1  
    22   10   22 1  
    23   11   23 1  
    24   11   24 1  
    25   11   25 1  
@<TRIPOS>SUBSTRUCTURE
     1 AEG         1

