### 
### Created by X-TOOL on Mon Sep 10 21:12:59 2018
### 

@<TRIPOS>MOLECULE
3bug_ligand
   28    28     1     0     0
SMALL
GAST_HUCK


@<TRIPOS>ATOM
      1 C4        -21.8880   42.5680   89.8670 C.3       1 AEH        -0.0253
      2 C5        -18.9760   40.4590   91.1360 C.ar      1 AEH        -0.0554
      3 C6        -20.9740   39.8150   92.3530 C.ar      1 AEH        -0.0463
      4 C8        -21.9620   42.2620   88.3660 C.3       1 AEH        -0.0571
      5 C10       -17.5030   40.2880   90.8800 C.3       1 AEH         0.0145
      6 N12       -15.4220   39.9580   92.2110 N.4       1 AEH         0.2198
      7 O7        -23.0310   40.8860   91.8710 O.3       1 AEH        -0.3413
      8 C3        -21.6890   40.7550   91.6160 C.ar      1 AEH         0.0821
      9 C9        -19.6090   39.6690   92.1070 C.ar      1 AEH        -0.0756
     10 C11       -16.6670   40.7980   92.0590 C.3       1 AEH        -0.0273
     11 C2        -19.7080   41.4010   90.4010 C.ar      1 AEH        -0.0668
     12 C1        -21.0780   41.5560   90.6360 C.ar      1 AEH        -0.0205
     13 H1        -22.9103   42.5800   90.2730 H         1 AEH         0.0400
     14 H2        -21.4288   43.5586   90.0004 H         1 AEH         0.0400
     15 H3        -21.4684   39.2085   93.1032 H         1 AEH         0.0505
     16 H4        -22.5641   43.0335   87.8638 H         1 AEH         0.0249
     17 H5        -22.4283   41.2772   88.2151 H         1 AEH         0.0249
     18 H6        -20.9468   42.2559   87.9425 H         1 AEH         0.0249
     19 H7        -17.2290   40.8524   89.9765 H         1 AEH         0.0456
     20 H8        -17.2884   39.2204   90.7246 H         1 AEH         0.0456
     21 H9        -14.8786   40.3002   92.9880 H         1 AEH         0.1996
     22 H10       -14.8737   40.0141   91.3670 H         1 AEH         0.1996
     23 H11       -15.6823   38.9989   92.3795 H         1 AEH         0.1996
     24 H12       -23.1568   41.1349   92.7791 H         1 AEH         0.2433
     25 H13       -19.0344   38.9415   92.6689 H         1 AEH         0.0472
     26 H14       -17.2628   40.7364   92.9816 H         1 AEH         0.0834
     27 H15       -16.3804   41.8442   91.8767 H         1 AEH         0.0834
     28 H16       -19.2134   42.0084   89.6517 H         1 AEH         0.0467
@<TRIPOS>BOND
     1    1    4 1  
     2   12    1 1  
     3    2    5 1  
     4    9    2 ar 
     5    2   11 ar 
     6    8    3 ar 
     7    3    9 ar 
     8    5   10 1  
     9   10    6 1  
    10    8    7 1  
    11    8   12 ar 
    12   11   12 ar 
    13    1   13 1  
    14    1   14 1  
    15    3   15 1  
    16    4   16 1  
    17    4   17 1  
    18    4   18 1  
    19    5   19 1  
    20    5   20 1  
    21    6   21 1  
    22    6   22 1  
    23    6   23 1  
    24    7   24 1  
    25    9   25 1  
    26   10   26 1  
    27   10   27 1  
    28   11   28 1  
@<TRIPOS>SUBSTRUCTURE
     1 AEH         1

