### 
### Created by X-TOOL on Mon Sep 10 21:12:58 2018
### 

@<TRIPOS>MOLECULE
3buh_ligand
   38    39     1     0     0
SMALL
GAST_HUCK


@<TRIPOS>ATOM
      1 C4        -22.2320   40.0130   93.2330 C.ar      1 AED         0.0824
      2 C5        -21.8980   43.1020   91.8040 C.3       1 AED        -0.0421
      3 C6        -21.9500   41.4290   89.8230 C.3       1 AED        -0.0421
      4 C7        -19.5630   39.3770   92.7550 C.ar      1 AED        -0.0554
      5 C8        -21.6010   39.0620   94.0430 C.ar      1 AED        -0.0463
      6 C10       -22.4100   44.1760   90.8400 C.3       1 AED        -0.0512
      7 C13       -18.1160   39.0400   92.4780 C.3       1 AED         0.0145
      8 C15       -17.2610   38.9800   93.7530 C.3       1 AED        -0.0273
      9 O9        -23.5460   40.3090   93.4930 O.3       1 AED        -0.3413
     10 C12       -20.2640   38.7460   93.7930 C.ar      1 AED        -0.0756
     11 N16       -15.8360   38.7100   93.4430 N.4       1 AED         0.2198
     12 C3        -20.2120   40.3290   91.9570 C.ar      1 AED        -0.0666
     13 C1        -21.5540   40.6580   92.1840 C.ar      1 AED        -0.0172
     14 C2        -22.2550   41.6830   91.3190 C.3       1 AED        -0.0106
     15 C14       -21.7170   43.9680   89.4910 C.3       1 AED        -0.0528
     16 C11       -22.1550   42.6290   88.8820 C.3       1 AED        -0.0512
     17 H1        -22.3514   43.2652   92.7928 H         1 AED         0.0287
     18 H2        -20.8042   43.1867   91.8836 H         1 AED         0.0287
     19 H3        -22.6052   40.6152   89.4789 H         1 AED         0.0287
     20 H4        -20.8995   41.1130   89.7421 H         1 AED         0.0287
     21 H5        -22.1404   38.5794   94.8499 H         1 AED         0.0505
     22 H6        -22.1706   45.1752   91.2327 H         1 AED         0.0267
     23 H7        -23.4992   44.0808   90.7190 H         1 AED         0.0267
     24 H8        -17.6981   39.8086   91.8112 H         1 AED         0.0456
     25 H9        -18.0730   38.0600   91.9803 H         1 AED         0.0456
     26 H10       -17.6432   38.1781   94.4017 H         1 AED         0.0834
     27 H11       -17.3355   39.9435   94.2784 H         1 AED         0.0834
     28 H12       -24.0702   39.5216   93.4051 H         1 AED         0.2433
     29 H13       -19.7633   38.0061   94.4069 H         1 AED         0.0472
     30 H14       -15.3061   38.6775   94.2999 H         1 AED         0.1996
     31 H15       -15.4757   39.4434   92.8528 H         1 AED         0.1996
     32 H16       -15.7577   37.8256   92.9657 H         1 AED         0.1996
     33 H17       -19.6690   40.8161   91.1551 H         1 AED         0.0467
     34 H18       -23.3393   41.5558   91.4536 H         1 AED         0.0438
     35 H19       -20.6268   43.9632   89.6375 H         1 AED         0.0265
     36 H20       -21.9918   44.7864   88.8093 H         1 AED         0.0265
     37 H21       -23.2236   42.6946   88.6295 H         1 AED         0.0267
     38 H22       -21.5716   42.4562   87.9656 H         1 AED         0.0267
@<TRIPOS>BOND
     1    1    5 ar 
     2    1    9 1  
     3   13    1 ar 
     4    2    6 1  
     5   14    2 1  
     6   14    3 1  
     7    3   16 1  
     8    4    7 1  
     9    4   10 ar 
    10   12    4 ar 
    11    5   10 ar 
    12    6   15 1  
    13    7    8 1  
    14    8   11 1  
    15   13   12 ar 
    16   13   14 1  
    17   15   16 1  
    18    2   17 1  
    19    2   18 1  
    20    3   19 1  
    21    3   20 1  
    22    5   21 1  
    23    6   22 1  
    24    6   23 1  
    25    7   24 1  
    26    7   25 1  
    27    8   26 1  
    28    8   27 1  
    29    9   28 1  
    30   10   29 1  
    31   11   30 1  
    32   11   31 1  
    33   11   32 1  
    34   12   33 1  
    35   14   34 1  
    36   15   35 1  
    37   15   36 1  
    38   16   37 1  
    39   16   38 1  
@<TRIPOS>SUBSTRUCTURE
     1 AED         1

