### 
### Created by X-TOOL on Mon Sep 10 21:12:58 2018
### 

@<TRIPOS>MOLECULE
3bv2_ligand
   78    83     1     0     0
SMALL
GAST_HUCK


@<TRIPOS>ATOM
      1 C18        -4.6210   -2.3900   28.1990 C.ar      1 P38        -0.0685
      2 C17        -3.3940   -2.0640   27.5530 C.ar      1 P38        -0.0582
      3 C16        -2.6750   -3.1160   26.9230 C.ar      1 P38        -0.0184
      4 C15        -0.2280   -3.6620   26.6750 C.3       1 P38        -0.0320
      5 C19        -5.1040   -3.7340   28.2120 C.ar      1 P38        -0.0687
      6 C20        -4.3950   -4.7980   27.5870 C.ar      1 P38        -0.0685
      7 C21        -3.1650   -4.4680   26.9360 C.ar      1 P38        -0.0582
      8 C23        -3.6960    0.7600   17.8220 C.ar      1 P38         0.0565
      9 C24        -5.1580    0.7550   17.3610 C.ar      1 P38        -0.0351
     10 C11        -2.2820   -2.5240   23.7620 C.2       1 P38         0.1825
     11 C34         1.0670    2.4780   13.4420 C.ar      1 P38         0.0038
     12 C27        -3.1380    1.9920   15.7970 C.ar      1 P38         0.0503
     13 C33        -0.1410    3.0770   13.8620 C.ar      1 P38         0.0633
     14 N1         -2.5110    0.7680   22.4150 N.pl3     1 P38        -0.1649
     15 N2         -2.4590    2.2540   22.4020 N.2       1 P38        -0.1689
     16 C3         -2.4540    2.8430   21.1750 C.2       1 P38         0.0753
     17 N4         -2.8990    2.1270   20.0870 N.2       1 P38        -0.2775
     18 C5         -3.0100    0.7870   20.1140 C.2       1 P38         0.1672
     19 C6         -2.7790    0.0060   21.2370 C.2       1 P38         0.1544
     20 C7         -2.7130   -1.4730   21.5090 C.2       1 P38        -0.0207
     21 C8         -2.4500   -1.5140   22.8980 C.2       1 P38         0.0430
     22 C9         -2.3150   -0.1640   23.3680 C.2       1 P38         0.0714
     23 C10        -2.8580   -2.6610   20.5020 C.3       1 P38        -0.0434
     24 O12        -2.5680   -3.6960   23.4820 O.2       1 P38        -0.3987
     25 N13        -1.6840   -2.0030   24.9620 N.am      1 P38        -0.2768
     26 C14        -1.4190   -2.7940   26.2730 C.3       1 P38         0.0717
     27 N22        -3.3300    0.1510   18.9590 N.pl3     1 P38        -0.2519
     28 C25        -5.5350    1.4210   16.0450 C.ar      1 P38        -0.0817
     29 C26        -4.5020    1.9940   15.3150 C.ar      1 P38        -0.0584
     30 C28        -2.7150    1.3850   17.0610 C.ar      1 P38        -0.0236
     31 C29        -6.3420    0.0670   18.1160 C.3       1 P38        -0.0399
     32 N30        -2.2140    2.6620   14.9740 N.am      1 P38        -0.2378
     33 C31        -0.8420    2.3370   14.8910 C.2       1 P38         0.2371
     34 O32        -0.1690    1.5720   15.6070 O.2       1 P38        -0.3688
     35 C35         1.9020    3.1080   12.4600 C.ar      1 P38         0.1191
     36 N36         1.4660    4.2550   11.9600 N.ar      1 P38        -0.2809
     37 C37         0.2560    4.7960   12.3830 C.ar      1 P38         0.0010
     38 C38        -0.6150    4.3310   13.3230 C.ar      1 P38        -0.0284
     39 N39         3.1150    2.5080   12.0900 N.pl3     1 P38        -0.2890
     40 C40         3.4800    1.2660   12.8530 C.3       1 P38         0.0532
     41 C41         4.5050    0.4330   12.1230 C.3       1 P38         0.0678
     42 O42         5.5990    1.2240   11.8600 O.3       1 P38        -0.3758
     43 C43         5.3920    2.4260   11.0600 C.3       1 P38         0.0678
     44 C44         4.2530    3.3140   11.5620 C.3       1 P38         0.0532
     45 H1         -5.1944   -1.6095   28.6860 H         1 P38         0.0599
     46 H2         -3.0206   -1.0464   27.5422 H         1 P38         0.0557
     47 H3          0.6669   -3.3336   26.1260 H         1 P38         0.0274
     48 H4         -0.4419   -4.7133   26.4321 H         1 P38         0.0274
     49 H5         -0.0513   -3.5641   27.7563 H         1 P38         0.0274
     50 H6         -6.0402   -3.9505   28.7138 H         1 P38         0.0559
     51 H7         -4.7709   -5.8146   27.6036 H         1 P38         0.0599
     52 H8         -2.5940   -5.2480   26.4455 H         1 P38         0.0557
     53 H9          1.3679    1.5277   13.8681 H         1 P38         0.0660
     54 H10        -2.1027    3.8669   21.0557 H         1 P38         0.1036
     55 H11        -2.0759    0.0841   24.4011 H         1 P38         0.0911
     56 H12        -3.0622   -2.2660   19.4959 H         1 P38         0.0341
     57 H13        -3.6889   -3.3093   20.8169 H         1 P38         0.0341
     58 H14        -1.9248   -3.2432   20.4849 H         1 P38         0.0341
     59 H15        -1.4131   -1.0404   24.9516 H         1 P38         0.1866
     60 H16        -1.1227   -1.9261   26.8804 H         1 P38         0.0715
     61 H17        -3.2886   -0.8782   18.9554 H         1 P38         0.2184
     62 H18        -6.5605    1.4467   15.6946 H         1 P38         0.0491
     63 H19        -4.7234    2.4548   14.3591 H         1 P38         0.0398
     64 H20        -1.6823    1.4215   17.3886 H         1 P38         0.0402
     65 H21        -5.9704   -0.3822   19.0488 H         1 P38         0.0343
     66 H22        -6.7767   -0.7174   17.4790 H         1 P38         0.0343
     67 H23        -7.1118    0.8166   18.3514 H         1 P38         0.0343
     68 H24        -2.5505    3.4172   14.4114 H         1 P38         0.2232
     69 H25        -0.0359    5.7191   11.8955 H         1 P38         0.0791
     70 H26        -1.5299    4.8294   13.6224 H         1 P38         0.0644
     71 H27         2.5730    0.6618   13.0023 H         1 P38         0.0542
     72 H28         3.8912    1.5580   13.8306 H         1 P38         0.0542
     73 H29         4.0788    0.0626   11.1790 H         1 P38         0.0580
     74 H30         4.8052   -0.4199   12.7495 H         1 P38         0.0580
     75 H31         5.1644    2.1206   10.0281 H         1 P38         0.0580
     76 H32         6.3212    3.0145   11.0718 H         1 P38         0.0580
     77 H33         4.6339    3.9616   12.3655 H         1 P38         0.0542
     78 H34         3.8929    3.9360   10.7293 H         1 P38         0.0542
@<TRIPOS>BOND
     1    2    1 ar 
     2    1    5 ar 
     3    3    2 ar 
     4    3    7 ar 
     5   26    3 1  
     6   26    4 1  
     7    6    5 ar 
     8    7    6 ar 
     9    8    9 ar 
    10    8   27 1  
    11   30    8 ar 
    12   28    9 ar 
    13    9   31 1  
    14   21   10 1  
    15   10   24 2  
    16   10   25 am 
    17   13   11 ar 
    18   11   35 ar 
    19   12   29 ar 
    20   12   30 ar 
    21   32   12 1  
    22   33   13 1  
    23   13   38 ar 
    24   14   15 1  
    25   19   14 1  
    26   14   22 1  
    27   16   15 2  
    28   17   16 1  
    29   18   17 2  
    30   18   19 1  
    31   27   18 1  
    32   19   20 2  
    33   20   21 1  
    34   20   23 1  
    35   21   22 2  
    36   25   26 1  
    37   29   28 ar 
    38   32   33 am 
    39   33   34 2  
    40   35   36 ar 
    41   35   39 1  
    42   36   37 ar 
    43   37   38 ar 
    44   39   40 1  
    45   39   44 1  
    46   40   41 1  
    47   41   42 1  
    48   42   43 1  
    49   43   44 1  
    50    1   45 1  
    51    2   46 1  
    52    4   47 1  
    53    4   48 1  
    54    4   49 1  
    55    5   50 1  
    56    6   51 1  
    57    7   52 1  
    58   11   53 1  
    59   16   54 1  
    60   22   55 1  
    61   23   56 1  
    62   23   57 1  
    63   23   58 1  
    64   25   59 1  
    65   26   60 1  
    66   27   61 1  
    67   28   62 1  
    68   29   63 1  
    69   30   64 1  
    70   31   65 1  
    71   31   66 1  
    72   31   67 1  
    73   32   68 1  
    74   37   69 1  
    75   38   70 1  
    76   40   71 1  
    77   40   72 1  
    78   41   73 1  
    79   41   74 1  
    80   43   75 1  
    81   43   76 1  
    82   44   77 1  
    83   44   78 1  
@<TRIPOS>SUBSTRUCTURE
     1 P38         1

