### 
### Created by X-TOOL on Mon Sep 10 21:12:58 2018
### 

@<TRIPOS>MOLECULE
3bv3_ligand
   79    84     1     0     0
SMALL
GAST_HUCK


@<TRIPOS>ATOM
      1 C18        -3.1210   42.0110   10.5780 C.ar      1 P39        -0.0685
      2 C17        -2.0570   42.0580   11.5180 C.ar      1 P39        -0.0582
      3 C16        -1.7050   40.7680   12.0830 C.ar      1 P39        -0.0184
      4 C15         0.5810   40.5540   12.1950 C.3       1 P39        -0.0320
      5 C19        -3.7780   40.7700   10.2400 C.ar      1 P39        -0.0687
      6 C20        -3.4320   39.5250   10.8110 C.ar      1 P39        -0.0685
      7 C21        -2.3860   39.5570   11.7340 C.ar      1 P39        -0.0582
      8 C23        -3.3010   36.5990   21.1500 C.ar      1 P39         0.0565
      9 C24        -4.6660   36.6370   21.4480 C.ar      1 P39        -0.0351
     10 C11        -1.3300   39.8620   15.0570 C.2       1 P39         0.1825
     11 C34         1.6060   34.9550   25.4500 C.ar      1 P39        -0.0243
     12 C27        -2.7630   35.1910   23.1740 C.ar      1 P39         0.0500
     13 C33         0.3770   34.2810   25.0320 C.ar      1 P39         0.0439
     14 N1         -1.7780   36.5650   16.5530 N.pl3     1 P39        -0.1649
     15 N2         -1.8320   35.2570   16.7080 N.2       1 P39        -0.1689
     16 C3         -2.2080   34.6090   17.8390 C.2       1 P39         0.0753
     17 N4         -2.5160   35.3560   18.9560 N.2       1 P39        -0.2775
     18 C5         -2.4580   36.6280   18.8230 C.2       1 P39         0.1672
     19 C6         -2.0820   37.3640   17.6620 C.2       1 P39         0.1544
     20 C7         -1.9240   38.7700   17.3470 C.2       1 P39        -0.0207
     21 C8         -1.5390   38.7350   15.9400 C.2       1 P39         0.0430
     22 C9         -1.4600   37.3440   15.5180 C.2       1 P39         0.0714
     23 C10        -2.1680   40.0650   18.2810 C.3       1 P39        -0.0434
     24 O12        -1.5330   41.0780   15.3650 O.2       1 P39        -0.3987
     25 N13        -1.0070   39.5390   13.8130 N.am      1 P39        -0.2768
     26 C14        -0.6260   40.6740   13.0510 C.3       1 P39         0.0717
     27 N22        -2.8140   37.2500   20.0220 N.pl3     1 P39        -0.2519
     28 C25        -5.0760   35.9430   22.6320 C.ar      1 P39        -0.0817
     29 C26        -4.1700   35.2330   23.4870 C.ar      1 P39        -0.0584
     30 C28        -2.4340   35.9090   21.9750 C.ar      1 P39        -0.0237
     31 C29        -5.6490   37.3630   20.5470 C.3       1 P39        -0.0399
     32 N30        -1.8860   34.5260   24.0210 N.am      1 P39        -0.2395
     33 C31        -0.6110   34.9410   24.0770 C.2       1 P39         0.2274
     34 O32        -0.0920   35.7840   23.3280 O.2       1 P39        -0.3739
     35 C35         2.4440   34.3440   26.3030 C.ar      1 P39         0.0458
     36 C36         2.0730   33.1370   26.7000 C.ar      1 P39        -0.0400
     37 C37         1.0180   32.4280   26.3940 C.ar      1 P39        -0.0680
     38 C38         0.1450   32.9960   25.5360 C.ar      1 P39        -0.0549
     39 N39         3.6130   34.8840   26.7000 N.pl3     1 P39        -0.3037
     40 C40         3.8250   36.2370   26.3570 C.3       1 P39         0.0502
     41 C41         5.2620   36.6910   26.7640 C.3       1 P39         0.0673
     42 O42         6.0890   35.8790   27.5880 O.3       1 P39        -0.3759
     43 C43         5.5030   34.9030   28.4070 C.3       1 P39         0.0673
     44 C44         4.6850   34.0590   27.3560 C.3       1 P39         0.0502
     45 H1         -3.4478   42.9289   10.1028 H         1 P39         0.0599
     46 H2         -1.5516   42.9776   11.7899 H         1 P39         0.0557
     47 H3          1.4751   40.4748   12.8309 H         1 P39         0.0274
     48 H4          0.6652   41.4433   11.5531 H         1 P39         0.0274
     49 H5          0.4971   39.6549   11.5668 H         1 P39         0.0274
     50 H6         -4.5787   40.7952    9.5098 H         1 P39         0.0559
     51 H7         -3.9447   38.6064   10.5496 H         1 P39         0.0599
     52 H8         -2.0771   38.6306   12.2046 H         1 P39         0.0557
     53 H9          1.8395   35.9440   25.0726 H         1 P39         0.0564
     54 H10        -2.2653   33.5218   17.8640 H         1 P39         0.1036
     55 H11        -1.1867   36.9970   14.5226 H         1 P39         0.0911
     56 H12        -2.4483   39.7392   19.2936 H         1 P39         0.0341
     57 H13        -2.9772   40.6767   17.8556 H         1 P39         0.0341
     58 H14        -1.2447   40.6610   18.3300 H         1 P39         0.0341
     59 H15        -1.0291   38.6060   13.4538 H         1 P39         0.1866
     60 H16        -0.5434   41.5585   13.6997 H         1 P39         0.0715
     61 H17        -2.7072   38.2731   20.0748 H         1 P39         0.2184
     62 H18        -6.1274   35.9552   22.8958 H         1 P39         0.0491
     63 H19        -4.5433   34.7270   24.3700 H         1 P39         0.0397
     64 H20        -1.3895   35.9097   21.6850 H         1 P39         0.0402
     65 H21        -5.1072   37.8183   19.7049 H         1 P39         0.0343
     66 H22        -6.1613   38.1490   21.1213 H         1 P39         0.0343
     67 H23        -6.3907   36.6477   20.1619 H         1 P39         0.0343
     68 H24        -2.1976   33.7552   24.5767 H         1 P39         0.2229
     69 H25         2.7558   32.6579   27.3923 H         1 P39         0.0550
     70 H26         0.8537   31.4391   26.8065 H         1 P39         0.0594
     71 H27        -0.7432   32.4526   25.2346 H         1 P39         0.0556
     72 H28         3.0870   36.8622   26.8808 H         1 P39         0.0536
     73 H29         3.7025   36.3575   25.2705 H         1 P39         0.0536
     74 H30         5.1480   37.6514   27.2881 H         1 P39         0.0579
     75 H31         5.8157   36.8483   25.8266 H         1 P39         0.0579
     76 H32         4.8418   35.3554   29.1608 H         1 P39         0.0579
     77 H33         6.2655   34.2892   28.9089 H         1 P39         0.0579
     78 H34         5.3734   33.6875   26.5827 H         1 P39         0.0536
     79 H35         4.2160   33.2068   27.8695 H         1 P39         0.0536
@<TRIPOS>BOND
     1    2    1 ar 
     2    1    5 ar 
     3    3    2 ar 
     4    3    7 ar 
     5   26    3 1  
     6   26    4 1  
     7    6    5 ar 
     8    7    6 ar 
     9    8    9 ar 
    10    8   27 1  
    11   30    8 ar 
    12   28    9 ar 
    13    9   31 1  
    14   21   10 1  
    15   10   24 2  
    16   10   25 am 
    17   13   11 ar 
    18   11   35 ar 
    19   12   29 ar 
    20   12   30 ar 
    21   32   12 1  
    22   33   13 1  
    23   13   38 ar 
    24   14   15 1  
    25   19   14 1  
    26   14   22 1  
    27   16   15 2  
    28   17   16 1  
    29   18   17 2  
    30   18   19 1  
    31   27   18 1  
    32   19   20 2  
    33   20   21 1  
    34   20   23 1  
    35   21   22 2  
    36   25   26 1  
    37   29   28 ar 
    38   32   33 am 
    39   33   34 2  
    40   35   36 ar 
    41   35   39 1  
    42   36   37 ar 
    43   37   38 ar 
    44   39   40 1  
    45   39   44 1  
    46   40   41 1  
    47   41   42 1  
    48   42   43 1  
    49   43   44 1  
    50    1   45 1  
    51    2   46 1  
    52    4   47 1  
    53    4   48 1  
    54    4   49 1  
    55    5   50 1  
    56    6   51 1  
    57    7   52 1  
    58   11   53 1  
    59   16   54 1  
    60   22   55 1  
    61   23   56 1  
    62   23   57 1  
    63   23   58 1  
    64   25   59 1  
    65   26   60 1  
    66   27   61 1  
    67   28   62 1  
    68   29   63 1  
    69   30   64 1  
    70   31   65 1  
    71   31   66 1  
    72   31   67 1  
    73   32   68 1  
    74   36   69 1  
    75   37   70 1  
    76   38   71 1  
    77   40   72 1  
    78   40   73 1  
    79   41   74 1  
    80   41   75 1  
    81   43   76 1  
    82   43   77 1  
    83   44   78 1  
    84   44   79 1  
@<TRIPOS>SUBSTRUCTURE
     1 P39         1

