### 
### Created by X-TOOL on Mon Sep 10 21:12:57 2018
### 

@<TRIPOS>MOLECULE
3bv9_ligand
   98   101     1     0     0
SMALL
GAST_HUCK


@<TRIPOS>ATOM
      1 N          11.7390   16.6600   12.2050 N.4       1 DAR         0.2425
      2 CA         12.2190   17.8200   12.6330 C.3       1 DAR         0.0939
      3 CB         12.3040   18.9690   11.5750 C.3       1 DAR         0.0987
      4 CG         10.9970   19.6800   11.3960 C.2       1 DAR         0.0878
      5 CD          9.6910   19.2600   11.0360 C.2       1 DAR         0.1621
      6 NE          9.3830   17.7860   11.0730 N.pl3     1 DAR        -0.2291
      7 CZ          8.3930   17.1820   10.5640 C.cat     1 DAR         0.1708
      8 NH1         7.4410   17.8480    9.8840 N.pl3     1 DAR        -0.3481
      9 NH2         8.3300   15.8920   10.7060 N.pl3     1 DAR        -0.3481
     10 C          13.6600   17.6060   13.1490 C.2       1 DAR         0.2359
     11 O          14.3910   16.7870   12.4920 O.2       1 DAR        -0.3899
     12 N          14.1550   18.2360   14.3540 N.am      1 OIC        -0.2434
     13 CA         15.6290   18.3080   14.6410 C.3       1 OIC         0.1347
     14 C          15.6680   16.7870   15.0130 C.2       1 OIC         0.2066
     15 O          14.8150   16.0880   15.6440 O.2       1 OIC        -0.3942
     16 CB         15.6620   19.0960   15.8740 C.3       1 OIC        -0.0072
     17 CG         14.8480   20.2470   15.4020 C.3       1 OIC        -0.0134
     18 CD         13.5950   19.5530   14.8370 C.3       1 OIC         0.0510
     19 C4         14.4890   21.3810   16.4020 C.3       1 OIC        -0.0479
     20 C5         13.5320   20.8730   17.5160 C.3       1 OIC        -0.0527
     21 C6         12.2250   20.3500   16.8910 C.3       1 OIC        -0.0509
     22 C7         12.5250   19.1880   15.9230 C.3       1 OIC        -0.0292
     23 N          16.8510   15.9920   14.5970 N.am      1 PRO        -0.2498
     24 CA         17.1570   14.5490   14.8280 C.3       1 PRO         0.1338
     25 C          17.1490   14.3330   16.3830 C.2       1 PRO         0.2041
     26 O          17.8260   15.0210   17.1960 O.2       1 PRO        -0.3944
     27 CB         18.4610   14.3690   14.2000 C.3       1 PRO        -0.0104
     28 CG         19.0920   15.6380   13.8150 C.3       1 PRO        -0.0281
     29 CD         17.9600   16.6050   13.8440 C.3       1 PRO         0.0369
     30 N          16.2500   13.3460   16.6600 N.am      1 DAL        -0.2640
     31 CA         15.8490   12.8330   17.9400 C.3       1 DAL         0.1282
     32 CB         16.1530   11.3590   18.2000 C.3       1 DAL        -0.0244
     33 C          15.0450   13.5100   19.0040 C.2       1 DAL         0.2037
     34 O          15.1260   13.0390   20.2120 O.2       1 DAL        -0.3944
     35 C1         13.4320   15.2750   19.3650 C.3       1 4PH         0.1438
     36 C3         13.0520   16.3840   18.5050 C.3       1 4PH        -0.0016
     37 C4         12.0920   17.2960   19.1710 C.ar      1 4PH        -0.0201
     38 C5         10.5440   17.2540   18.9290 C.ar      1 4PH        -0.0951
     39 C6         12.6250   18.3470   20.1420 C.ar      1 4PH        -0.0416
     40 C7          9.5950   18.1810   19.5890 C.ar      1 4PH        -0.0956
     41 C8         11.6520   19.3360   20.8520 C.ar      1 4PH        -0.0421
     42 C9         10.1340   19.2290   20.5490 C.ar      1 4PH        -0.0272
     43 C32        12.3320   14.2920   19.7620 C.2       1 4PH         0.2572
     44 C33         9.1640   20.2120   21.2250 C.3       1 4PH        -0.0557
     45 O5         11.7600   13.4910   18.9690 O.2       1 4PH        -0.3680
     46 N3         14.3250   14.4920   18.5440 N.am      1 4PH        -0.2622
     47 O          11.9481   14.2781   21.0353 N.am      1 NH2        -0.2910
     48 H1         10.7986   16.7900   11.8662 H         1 DAR         0.2020
     49 H2         11.7339   15.9976   12.9648 H         1 DAR         0.2020
     50 H3         12.3197   16.3109   11.4587 H         1 DAR         0.2020
     51 H4         11.5772   18.1614   13.4585 H         1 DAR         0.1174
     52 H5         12.6066   18.5380   10.6092 H         1 DAR         0.0843
     53 H6         13.0598   19.6972   11.9045 H         1 DAR         0.0843
     54 H7         11.0646   20.7507   11.5827 H         1 DAR         0.1627
     55 H8          8.9320   19.9831   10.7410 H         1 DAR         0.1896
     56 H9         10.0620   17.1959   11.5747 H         1 DAR         0.2519
     57 H10         6.6445   17.3362    9.4784 H         1 DAR         0.1671
     58 H11         7.5092   18.8693    9.7693 H         1 DAR         0.1671
     59 H12         9.0652   15.3949   11.2287 H         1 DAR         0.1671
     60 H13         7.5448   15.3665   10.2958 H         1 DAR         0.1671
     61 H14        16.3091   18.6513   13.8475 H         1 OIC         0.0802
     62 H15        16.6839   19.3938   16.1516 H         1 OIC         0.0316
     63 H16        15.1912   18.5703   16.7178 H         1 OIC         0.0316
     64 H17        15.3959   20.7313   14.5802 H         1 OIC         0.0325
     65 H18        13.1394   20.1473   14.0313 H         1 OIC         0.0563
     66 H19        13.9982   22.1990   15.8543 H         1 OIC         0.0269
     67 H20        15.4134   21.7539   16.8671 H         1 OIC         0.0269
     68 H21        13.3013   21.7004   18.2031 H         1 OIC         0.0265
     69 H22        14.0204   20.0595   18.0725 H         1 OIC         0.0265
     70 H23        11.7346   21.1653   16.3389 H         1 OIC         0.0266
     71 H24        11.5573   19.9944   17.6895 H         1 OIC         0.0266
     72 H25        12.8964   18.3330   16.5069 H         1 OIC         0.0288
     73 H26        11.5914   18.9066   15.4139 H         1 OIC         0.0288
     74 H27        16.4124   13.8901   14.3574 H         1 PRO         0.0802
     75 H28        18.3336   13.7529   13.2977 H         1 PRO         0.0313
     76 H29        19.1227   13.8492   14.9085 H         1 PRO         0.0313
     77 H30        19.5280   15.5717   12.8073 H         1 PRO         0.0287
     78 H31        19.8733   15.9241   14.5345 H         1 PRO         0.0287
     79 H32        18.2771   17.5349   14.3387 H         1 PRO         0.0524
     80 H33        17.6346   16.8284   12.8173 H         1 PRO         0.0524
     81 H34        15.8118   12.9233   15.8667 H         1 DAL         0.1883
     82 H35        16.7879   13.1812   18.3952 H         1 DAL         0.0797
     83 H36        15.8019   11.0841   19.2056 H         1 DAL         0.0277
     84 H37        17.2379   11.1907   18.1317 H         1 DAL         0.0277
     85 H38        15.6381   10.7406   17.4501 H         1 DAL         0.0277
     86 H39        13.9254   15.6608   20.2693 H         1 4PH         0.0818
     87 H40        12.5870   15.9832   17.5923 H         1 4PH         0.0336
     88 H41        13.9551   16.9522   18.2373 H         1 4PH         0.0336
     89 H42        10.1486   16.5110   18.2459 H         1 4PH         0.0000
     90 H43        13.6893   18.4057   20.3392 H         1 4PH         0.0000
     91 H44         8.5316   18.1128   19.3901 H         1 4PH         0.0000
     92 H45        12.0276   20.0824   21.5425 H         1 4PH         0.0000
     93 H46        11.2308   13.6488   21.3344 H         1 NH2         0.0000
     94 H47        12.3767   14.8970   21.6936 H         1 NH2         0.0000
     95 H50         8.1359   19.9946   20.8999 H         1 4PH         0.0252
     96 H51         9.4282   21.2414   20.9413 H         1 4PH         0.0252
     97 H52         9.2338   20.1033   22.3174 H         1 4PH         0.0252
     98 H53        14.3939   14.7157   17.5718 H         1 4PH         0.1885
@<TRIPOS>BOND
     1    2    1 1  
     2    2    3 1  
     3   10    2 1  
     4    3    4 1  
     5    4    5 2  
     6    5    6 1  
     7    6    7 ar 
     8    7    8 ar 
     9    7    9 ar 
    10   10   11 2  
    11   12   10 am 
    12   13   12 1  
    13   12   18 1  
    14   14   13 1  
    15   13   16 1  
    16   14   15 2  
    17   23   14 am 
    18   16   17 1  
    19   17   18 1  
    20   17   19 1  
    21   18   22 1  
    22   19   20 1  
    23   20   21 1  
    24   22   21 1  
    25   24   23 1  
    26   23   29 1  
    27   25   24 1  
    28   24   27 1  
    29   25   26 2  
    30   30   25 am 
    31   27   28 1  
    32   28   29 1  
    33   31   30 1  
    34   31   32 1  
    35   33   31 1  
    36   33   34 2  
    37   46   33 am 
    38   35   36 1  
    39   35   43 1  
    40   35   46 1  
    41   36   37 1  
    42   37   38 ar 
    43   37   39 ar 
    44   38   40 ar 
    45   39   41 ar 
    46   40   42 ar 
    47   41   42 ar 
    48   42   44 1  
    49   43   45 2  
    50   43   47 am 
    51    1   48 1  
    52    1   49 1  
    53    1   50 1  
    54    2   51 1  
    55    3   52 1  
    56    3   53 1  
    57    4   54 1  
    58    5   55 1  
    59    6   56 1  
    60    8   57 1  
    61    8   58 1  
    62    9   59 1  
    63    9   60 1  
    64   13   61 1  
    65   16   62 1  
    66   16   63 1  
    67   17   64 1  
    68   18   65 1  
    69   19   66 1  
    70   19   67 1  
    71   20   68 1  
    72   20   69 1  
    73   21   70 1  
    74   21   71 1  
    75   22   72 1  
    76   22   73 1  
    77   24   74 1  
    78   27   75 1  
    79   27   76 1  
    80   28   77 1  
    81   28   78 1  
    82   29   79 1  
    83   29   80 1  
    84   30   81 1  
    85   31   82 1  
    86   32   83 1  
    87   32   84 1  
    88   32   85 1  
    89   35   86 1  
    90   36   87 1  
    91   36   88 1  
    92   38   89 1  
    93   39   90 1  
    94   40   91 1  
    95   41   92 1  
    96   47   93 1  
    97   47   94 1  
    98   44   95 1  
    99   44   96 1  
   100   44   97 1  
   101   46   98 1  
@<TRIPOS>SUBSTRUCTURE
     1 DAR         1

