### 
### Created by X-TOOL on Mon Sep 10 21:12:57 2018
### 

@<TRIPOS>MOLECULE
3bva_ligand
  123   122     1     0     0
SMALL
GAST_HUCK


@<TRIPOS>ATOM
      1 N4         23.5130   25.2630   18.7010 N.am      1 2NC        -0.2635
      2 C5         22.9570   26.5810   18.6720 C.3       1 2NC         0.1564
      3 C6         21.5600   26.6530   18.0060 C.2       1 2NC         0.2065
      4 O7         20.9080   27.6950   18.1040 O.2       1 2NC        -0.3943
      5 C8         23.8680   27.6060   17.9800 C.3       1 2NC         0.0924
      6 O9         24.0350   27.1310   16.6510 O.3       1 2NC        -0.3874
      7 C10        25.2550   27.6750   18.6780 C.3       1 2NC        -0.0346
      8 N11        21.1080   25.5940   17.3570 N.am      1 2NC        -0.2634
      9 C12        19.8230   25.5800   16.6520 C.3       1 2NC         0.1334
     10 C13        18.9780   24.4680   17.1950 C.2       1 2NC         0.2023
     11 O14        19.0370   23.3320   16.8010 O.2       1 2NC        -0.3945
     12 C15        20.0090   25.4230   15.1210 C.3       1 2NC        -0.0037
     13 C16        21.0470   26.3660   14.5320 C.3       1 2NC        -0.0491
     14 C17        18.6810   25.5440   14.4350 C.3       1 2NC        -0.0582
     15 C18        20.7000   27.8180   14.6180 C.3       1 2NC        -0.0648
     16 N36        13.2950   21.0540   18.0540 N.am      1 2NC        -0.2609
     17 C37        13.1250   19.6530   18.4510 C.3       1 2NC         0.1331
     18 C38        11.7040   19.2390   18.0730 C.2       1 2NC         0.2040
     19 O39        10.7210   19.9210   18.3560 O.2       1 2NC        -0.3944
     20 C40        13.4570   19.4510   19.9070 C.3       1 2NC         0.0045
     21 C41        13.2250   18.0700   20.4260 C.3       1 2NC         0.0412
     22 C42        11.8320   17.7650   20.8780 C.2       1 2NC         0.1737
     23 O43        11.1010   18.6710   21.2590 O.2       1 2NC        -0.3973
     24 N44        11.3790   16.5420   20.8190 N.am      1 2NC        -0.3009
     25 N45        11.6200   18.0400   17.5350 N.am      1 2NC        -0.2637
     26 C46        10.3540   17.4770   17.1340 C.3       1 2NC         0.1307
     27 C47        10.2450   16.0810   17.7450 C.2       1 2NC         0.1992
     28 O48        11.1950   15.3030   17.7680 O.2       1 2NC        -0.3947
     29 N56         8.9850   15.7220   18.2850 N.am      1 2NC        -0.2990
     30 C49        10.2140   17.4190   15.6260 C.3       1 2NC        -0.0092
     31 C50        10.6520   18.6750   14.8900 C.3       1 2NC        -0.0156
     32 C51        10.6780   18.4630   13.3710 C.3       1 2NC         0.0627
     33 N52         9.3550   18.0530   12.8630 N.pl3     1 2NC        -0.2723
     34 C53         9.0810   17.8760   11.5920 C.cat     1 2NC         0.2882
     35 N54        10.0980   18.0770   10.7490 N.pl3     1 2NC        -0.2849
     36 N55         7.8840   17.5060   11.1510 N.pl3     1 2NC        -0.2849
     37 C1         23.6500   24.5060   19.9100 C.2       1 2NC         0.1752
     38 O2         23.2500   25.0390   20.9460 O.2       1 2NC        -0.3972
     39 C3         24.2670   23.1760   19.7500 C.3       1 2NC         0.0258
     40 N19        18.1910   24.8030   18.2780 N.am      1 2NC        -0.2769
     41 C20        17.4300   23.8350   19.0620 C.3       1 2NC         0.0817
     42 C21        15.9730   23.8170   18.7570 C.3       1 2NC        -0.0081
     43 C22        17.7360   24.0470   20.5580 C.3       1 2NC        -0.0249
     44 C23        19.1910   24.0780   20.9400 C.3       1 2NC        -0.0510
     45 C24        19.9770   22.8930   20.5270 C.3       1 2NC        -0.0558
     46 C25        19.4160   21.5720   21.0660 C.3       1 2NC        -0.0653
     47 N26        15.6780   23.6430   17.3630 N.4       1 2NC         0.2477
     48 C27        14.4680   22.9350   17.0580 C.3       1 2NC         0.0668
     49 C28        14.4680   21.5300   17.6480 C.2       1 2NC         0.2268
     50 O29        15.4760   20.8120   17.6670 O.2       1 2NC        -0.3907
     51 C30        14.1020   22.9110   15.5610 C.3       1 2NC         0.0079
     52 C31        15.0530   22.1010   14.7650 C.3       1 2NC        -0.0460
     53 C34        14.5350   21.5870   13.4440 C.3       1 2NC        -0.0556
     54 C35        14.0640   20.1500   13.6340 C.3       1 2NC        -0.0653
     55 H1         23.8188   24.8530   17.8417 H         1 2NC         0.1883
     56 H2         22.8402   26.8940   19.7200 H         1 2NC         0.0826
     57 H3         23.4001   28.6015   17.9836 H         1 2NC         0.0639
     58 H4         24.5944   27.7295   16.1700 H         1 2NC         0.2101
     59 H5         25.8873   28.4145   18.1648 H         1 2NC         0.0257
     60 H6         25.7370   26.6872   18.6344 H         1 2NC         0.0257
     61 H7         25.1224   27.9723   19.7287 H         1 2NC         0.0257
     62 H8         21.6677   24.7654   17.3465 H         1 2NC         0.1883
     63 H9         19.3120   26.5358   16.8397 H         1 2NC         0.0802
     64 H10        20.3772   24.4017   14.9442 H         1 2NC         0.0345
     65 H11        21.1792   26.1087   13.4707 H         1 2NC         0.0267
     66 H12        21.9945   26.2089   15.0682 H         1 2NC         0.0267
     67 H13        17.9662   24.8453   14.8941 H         1 2NC         0.0235
     68 H14        18.7961   25.3024   13.3681 H         1 2NC         0.0235
     69 H15        18.3066   26.5730   14.5397 H         1 2NC         0.0235
     70 H16        21.5071   28.4151   14.1685 H         1 2NC         0.0230
     71 H17        20.5765   28.1037   15.6731 H         1 2NC         0.0230
     72 H18        19.7612   28.0034   14.0756 H         1 2NC         0.0230
     73 H19        12.5069   21.6685   18.0896 H         1 2NC         0.1885
     74 H20        13.8252   19.0365   17.8682 H         1 2NC         0.0801
     75 H21        12.8391   20.1444   20.4964 H         1 2NC         0.0337
     76 H22        14.5200   19.6945   20.0507 H         1 2NC         0.0337
     77 H23        13.8982   17.9146   21.2819 H         1 2NC         0.0504
     78 H24        13.4814   17.3617   19.6244 H         1 2NC         0.0504
     79 H25        10.4477   16.3386   21.1213 H         1 2NC         0.1814
     80 H26        11.9633   15.8086   20.4715 H         1 2NC         0.1814
     81 H27        12.4550   17.5063   17.4011 H         1 2NC         0.1883
     82 H28         9.5440   18.1064   17.5310 H         1 2NC         0.0800
     83 H29         8.8565   14.8203   18.6977 H         1 2NC         0.1815
     84 H30         8.2244   16.3704   18.2533 H         1 2NC         0.1815
     85 H31         9.1556   17.2363   15.3886 H         1 2NC         0.0313
     86 H32        10.8224   16.5792   15.2591 H         1 2NC         0.0313
     87 H33        11.6611   18.9528   15.2284 H         1 2NC         0.0301
     88 H34         9.9498   19.4886   15.1243 H         1 2NC         0.0301
     89 H35        11.4121   17.6796   13.1313 H         1 2NC         0.0689
     90 H36        10.9730   19.4037   12.8831 H         1 2NC         0.0689
     91 H37         8.6011   17.8963   13.5471 H         1 2NC         0.2642
     92 H38         9.9584   17.9568    9.7356 H         1 2NC         0.2615
     93 H39        11.0216   18.3521   11.1126 H         1 2NC         0.2615
     94 H40         7.1132   17.3562   11.8176 H         1 2NC         0.2615
     95 H41         7.7265   17.3688   10.1424 H         1 2NC         0.2615
     96 H42        24.3263   22.6791   20.7296 H         1 2NC         0.0467
     97 H43        25.2791   23.2889   19.3343 H         1 2NC         0.0467
     98 H44        23.6557   22.5680   19.0669 H         1 2NC         0.0467
     99 H45        18.1390   25.7663   18.5414 H         1 2NC         0.1857
    100 H46        17.8094   22.8380   18.7936 H         1 2NC         0.0609
    101 H47        15.5370   24.7711   19.0879 H         1 2NC         0.0837
    102 H48        15.5113   22.9895   19.3157 H         1 2NC         0.0837
    103 H49        17.2595   23.2285   21.1174 H         1 2NC         0.0289
    104 H50        17.2893   25.0059   20.8594 H         1 2NC         0.0289
    105 H51        19.2536   24.1630   22.0349 H         1 2NC         0.0266
    106 H52        19.6456   24.9661   20.4767 H         1 2NC         0.0266
    107 H53        21.0063   23.0112   20.8966 H         1 2NC         0.0263
    108 H54        19.9851   22.8457   19.4281 H         1 2NC         0.0263
    109 H55        20.0460   20.7385   20.7219 H         1 2NC         0.0230
    110 H56        18.3892   21.4320   20.6972 H         1 2NC         0.0230
    111 H57        19.4104   21.5975   22.1657 H         1 2NC         0.0230
    112 H58        16.4441   23.1372   16.9468 H         1 2NC         0.2036
    113 H59        15.6131   24.5581   16.9453 H         1 2NC         0.2036
    114 H60        13.6599   23.4868   17.5604 H         1 2NC         0.1099
    115 H61        14.1084   23.9422   15.1782 H         1 2NC         0.0346
    116 H62        13.0941   22.4847   15.4496 H         1 2NC         0.0346
    117 H63        15.3472   21.2326   15.3727 H         1 2NC         0.0269
    118 H64        15.9374   22.7227   14.5615 H         1 2NC         0.0269
    119 H65        15.3384   21.6177   12.6933 H         1 2NC         0.0263
    120 H66        13.6943   22.2113   13.1071 H         1 2NC         0.0263
    121 H67        13.6828   19.7598   12.6788 H         1 2NC         0.0230
    122 H68        13.2626   20.1233   14.3870 H         1 2NC         0.0230
    123 H69        14.9067   19.5297   13.9732 H         1 2NC         0.0230
@<TRIPOS>BOND
     1    2    1 1  
     2    1   37 am 
     3    3    2 1  
     4    2    5 1  
     5    3    4 2  
     6    8    3 am 
     7    5    6 1  
     8    5    7 1  
     9    9    8 1  
    10   10    9 1  
    11    9   12 1  
    12   10   11 2  
    13   40   10 am 
    14   12   13 1  
    15   12   14 1  
    16   13   15 1  
    17   16   17 1  
    18   49   16 am 
    19   17   18 1  
    20   17   20 1  
    21   18   19 2  
    22   18   25 am 
    23   20   21 1  
    24   21   22 1  
    25   22   23 2  
    26   22   24 am 
    27   25   26 1  
    28   26   27 1  
    29   26   30 1  
    30   27   28 2  
    31   27   29 am 
    32   30   31 1  
    33   31   32 1  
    34   32   33 1  
    35   33   34 ar 
    36   34   35 ar 
    37   34   36 ar 
    38   37   38 2  
    39   37   39 1  
    40   41   40 1  
    41   42   41 1  
    42   41   43 1  
    43   47   42 1  
    44   43   44 1  
    45   44   45 1  
    46   45   46 1  
    47   48   47 1  
    48   48   49 1  
    49   48   51 1  
    50   49   50 2  
    51   51   52 1  
    52   52   53 1  
    53   53   54 1  
    54    1   55 1  
    55    2   56 1  
    56    5   57 1  
    57    6   58 1  
    58    7   59 1  
    59    7   60 1  
    60    7   61 1  
    61    8   62 1  
    62    9   63 1  
    63   12   64 1  
    64   13   65 1  
    65   13   66 1  
    66   14   67 1  
    67   14   68 1  
    68   14   69 1  
    69   15   70 1  
    70   15   71 1  
    71   15   72 1  
    72   16   73 1  
    73   17   74 1  
    74   20   75 1  
    75   20   76 1  
    76   21   77 1  
    77   21   78 1  
    78   24   79 1  
    79   24   80 1  
    80   25   81 1  
    81   26   82 1  
    82   29   83 1  
    83   29   84 1  
    84   30   85 1  
    85   30   86 1  
    86   31   87 1  
    87   31   88 1  
    88   32   89 1  
    89   32   90 1  
    90   33   91 1  
    91   35   92 1  
    92   35   93 1  
    93   36   94 1  
    94   36   95 1  
    95   39   96 1  
    96   39   97 1  
    97   39   98 1  
    98   40   99 1  
    99   41  100 1  
   100   42  101 1  
   101   42  102 1  
   102   43  103 1  
   103   43  104 1  
   104   44  105 1  
   105   44  106 1  
   106   45  107 1  
   107   45  108 1  
   108   46  109 1  
   109   46  110 1  
   110   46  111 1  
   111   47  112 1  
   112   47  113 1  
   113   48  114 1  
   114   51  115 1  
   115   51  116 1  
   116   52  117 1  
   117   52  118 1  
   118   53  119 1  
   119   53  120 1  
   120   54  121 1  
   121   54  122 1  
   122   54  123 1  
@<TRIPOS>SUBSTRUCTURE
     1 2NC         1

