### 
### Created by X-TOOL on Mon Sep 10 21:12:57 2018
### 

@<TRIPOS>MOLECULE
3bvb_ligand
   75    78     1     0     0
SMALL
GAST_HUCK


@<TRIPOS>ATOM
      1 N1          8.0340   57.2280   13.7800 N.pl3     1 017        -0.3369
      2 C2          8.4550   58.4550   14.2740 C.ar      1 017         0.0353
      3 C3          9.7570   58.9070   14.0660 C.ar      1 017        -0.0429
      4 C4         10.2000   60.1120   14.5510 C.ar      1 017        -0.0471
      5 C5          9.3540   60.9140   15.2930 C.ar      1 017         0.0949
      6 C6          8.0190   60.5100   15.4740 C.ar      1 017        -0.0471
      7 C7          7.6000   59.2520   15.0290 C.ar      1 017        -0.0429
      8 S8         10.4420   62.2660   15.8340 S.o2      1 017         0.0648
      9 O9         11.4800   62.4290   14.8370 O.2       1 017        -0.1518
     10 O10         9.5230   63.3280   16.2310 O.2       1 017        -0.1518
     11 N11        11.1830   61.7540   17.2860 N.am      1 017        -0.2327
     12 C12        10.3420   61.5500   18.4840 C.3       1 017         0.0319
     13 C13        10.7190   62.2700   19.8050 C.3       1 017        -0.0296
     14 C14        10.4990   63.7900   19.5990 C.3       1 017        -0.0612
     15 C15         9.6690   61.7890   20.8300 C.3       1 017        -0.0612
     16 C16        12.5300   61.1070   17.2530 C.3       1 017         0.0578
     17 C17        13.5730   62.0410   17.9410 C.3       1 017         0.0967
     18 O18        14.6860   61.3240   18.4980 O.3       1 017        -0.3877
     19 C19        14.1090   63.1300   17.0060 C.3       1 017         0.0807
     20 N20        15.0270   63.9890   17.7960 N.am      1 017        -0.2550
     21 C21        14.7050   65.2870   18.0430 C.2       1 017         0.3203
     22 O22        13.7070   65.9000   17.6560 O.2       1 017        -0.3775
     23 O23        15.6850   65.8030   18.8400 O.3       1 017        -0.2578
     24 C24        15.5860   67.2390   19.1250 C.3       1 017         0.1189
     25 C25        16.2060   67.4560   20.5090 C.3       1 017         0.0815
     26 O26        17.6270   67.3850   20.3100 O.3       1 017        -0.3480
     27 C27        17.9210   67.9290   19.0010 C.3       1 017         0.1648
     28 O28        18.7560   67.0290   18.3360 O.3       1 017        -0.3509
     29 C29        18.0690   66.4330   17.2620 C.3       1 017         0.0512
     30 C30        16.9400   67.4030   16.8700 C.3       1 017        -0.0191
     31 C31        16.5730   68.0030   18.2470 C.3       1 017         0.0449
     32 C32        14.8840   62.6330   15.7620 C.3       1 017         0.0064
     33 C33        16.6120   64.2390   14.7830 C.ar      1 017        -0.0603
     34 C34        17.0310   65.3160   14.0040 C.ar      1 017        -0.0686
     35 C35        16.0340   66.0110   13.3300 C.ar      1 017        -0.0687
     36 C36        14.7220   65.5930   13.3960 C.ar      1 017        -0.0686
     37 C37        14.3230   64.5230   14.1760 C.ar      1 017        -0.0603
     38 C38        15.3010   63.7860   14.8580 C.ar      1 017        -0.0408
     39 H1          8.6780   56.6488   13.2226 H         1 017         0.1719
     40 H2          7.0776   56.8967   13.9708 H         1 017         0.1719
     41 H3         10.4431   58.2856   13.5019 H         1 017         0.0515
     42 H4         11.2153   60.4352   14.3517 H         1 017         0.0602
     43 H5          7.3136   61.1748   15.9593 H         1 017         0.0602
     44 H6          6.6055   58.8965   15.2732 H         1 017         0.0515
     45 H7         10.3405   60.4705   18.6956 H         1 017         0.0480
     46 H8          9.3241   61.8735   18.2210 H         1 017         0.0480
     47 H9         11.7480   62.0462   20.1228 H         1 017         0.0311
     48 H10        10.7595   64.3267   20.5232 H         1 017         0.0233
     49 H11         9.4438   63.9775   19.3511 H         1 017         0.0233
     50 H12        11.1375   64.1448   18.7766 H         1 017         0.0233
     51 H13         9.7935   60.7099   21.0034 H         1 017         0.0233
     52 H14         8.6593   61.9835   20.4393 H         1 017         0.0233
     53 H15         9.8063   62.3308   21.7774 H         1 017         0.0233
     54 H16        12.8273   60.9323   16.2085 H         1 017         0.0504
     55 H17        12.4887   60.1468   17.7881 H         1 017         0.0504
     56 H18        13.0518   62.5419   18.7701 H         1 017         0.0634
     57 H19        15.1336   60.8498   17.8071 H         1 017         0.2100
     58 H20        13.2541   63.7272   16.6561 H         1 017         0.0604
     59 H21        15.8841   63.6122   18.1473 H         1 017         0.1873
     60 H22        14.5531   67.6071   19.0379 H         1 017         0.0675
     61 H23        15.8759   66.6709   21.2052 H         1 017         0.0590
     62 H24        15.9226   68.4417   20.9067 H         1 017         0.0590
     63 H25        18.3916   68.9205   19.0750 H         1 017         0.0913
     64 H26        17.6475   65.4652   17.5712 H         1 017         0.0561
     65 H27        18.7511   66.2813   16.4125 H         1 017         0.0561
     66 H28        16.0881   66.8709   16.4215 H         1 017         0.0293
     67 H29        17.2962   68.1771   16.1744 H         1 017         0.0293
     68 H30        16.2182   69.0363   18.1192 H         1 017         0.0380
     69 H31        14.2398   61.9480   15.1912 H         1 017         0.0449
     70 H32        15.7853   62.0972   16.0945 H         1 017         0.0449
     71 H33        17.3603   63.7193   15.3705 H         1 017         0.0557
     72 H34        18.0755   65.5958   13.9281 H         1 017         0.0599
     73 H35        16.2900   66.8888   12.7477 H         1 017         0.0559
     74 H36        13.9756   66.1226   12.8151 H         1 017         0.0599
     75 H37        13.2747   64.2595   14.2583 H         1 017         0.0557
@<TRIPOS>BOND
     1    2    1 1  
     2    3    2 ar 
     3    7    2 ar 
     4    4    3 ar 
     5    5    4 ar 
     6    5    6 ar 
     7    8    5 1  
     8    6    7 ar 
     9    8    9 2  
    10    8   10 2  
    11   11    8 am 
    12   11   12 1  
    13   16   11 1  
    14   12   13 1  
    15   13   14 1  
    16   13   15 1  
    17   17   16 1  
    18   17   18 1  
    19   19   17 1  
    20   19   20 1  
    21   32   19 1  
    22   20   21 am 
    23   21   22 2  
    24   21   23 1  
    25   23   24 1  
    26   24   25 1  
    27   24   31 1  
    28   25   26 1  
    29   27   26 1  
    30   27   28 1  
    31   31   27 1  
    32   29   28 1  
    33   30   29 1  
    34   31   30 1  
    35   38   32 1  
    36   33   34 ar 
    37   33   38 ar 
    38   34   35 ar 
    39   35   36 ar 
    40   36   37 ar 
    41   37   38 ar 
    42    1   39 1  
    43    1   40 1  
    44    3   41 1  
    45    4   42 1  
    46    6   43 1  
    47    7   44 1  
    48   12   45 1  
    49   12   46 1  
    50   13   47 1  
    51   14   48 1  
    52   14   49 1  
    53   14   50 1  
    54   15   51 1  
    55   15   52 1  
    56   15   53 1  
    57   16   54 1  
    58   16   55 1  
    59   17   56 1  
    60   18   57 1  
    61   19   58 1  
    62   20   59 1  
    63   24   60 1  
    64   25   61 1  
    65   25   62 1  
    66   27   63 1  
    67   29   64 1  
    68   29   65 1  
    69   30   66 1  
    70   30   67 1  
    71   31   68 1  
    72   32   69 1  
    73   32   70 1  
    74   33   71 1  
    75   34   72 1  
    76   35   73 1  
    77   36   74 1  
    78   37   75 1  
@<TRIPOS>SUBSTRUCTURE
     1 017         1

