### 
### Created by X-TOOL on Mon Sep 10 21:13:01 2018
### 

@<TRIPOS>MOLECULE
3bwj_ligand
   99   101     1     0     0
SMALL
GAST_HUCK


@<TRIPOS>ATOM
      1 C5         25.0130   24.8410    8.0200 C.ar      1 ARX         0.1045
      2 O77        35.4060   21.3600   13.5000 O.2       1 ARX        -0.3947
      3 C75        36.3220   21.9960   12.9650 C.2       1 ARX         0.1992
      4 N76        37.4730   22.2240   13.6370 N.am      1 ARX        -0.2990
      5 C32        36.1130   22.5140   11.5270 C.3       1 ARX         0.1307
      6 C78        36.7070   23.9100   11.2190 C.3       1 ARX        -0.0092
      7 C79        38.2280   23.9250   11.0120 C.3       1 ARX        -0.0156
      8 C85        38.7890   25.3250   10.7680 C.3       1 ARX         0.0627
      9 N77        40.0010   25.3040    9.9650 N.pl3     1 ARX        -0.2723
     10 C86        40.2690   26.2090    9.0070 C.cat     1 ARX         0.2882
     11 N94        40.5510   25.8200    7.7540 N.pl3     1 ARX        -0.2849
     12 N93        40.2770   27.4440    9.2820 N.pl3     1 ARX        -0.2849
     13 N31        36.3500   21.5330   10.4370 N.am      1 ARX        -0.2637
     14 C30        37.3900   20.7160   10.1890 C.2       1 ARX         0.2039
     15 O35        38.5710   21.0280   10.3210 O.2       1 ARX        -0.3944
     16 C29        37.0350   19.3320    9.6920 C.3       1 ARX         0.1310
     17 C37        36.8030   18.3720   10.8750 C.3       1 ARX        -0.0092
     18 C38        38.0340   18.0830   11.7410 C.3       1 ARX        -0.0156
     19 C39        38.0240   18.8420   13.0850 C.3       1 ARX         0.0627
     20 N40        37.4000   18.1340   14.2020 N.pl3     1 ARX        -0.2723
     21 C41        36.1530   18.3920   14.6260 C.cat     1 ARX         0.2882
     22 N42        35.1530   18.0260   13.9310 N.pl3     1 ARX        -0.2849
     23 N43        35.9590   19.0230   15.7930 N.pl3     1 ARX        -0.2849
     24 N27        35.8270   19.3740    8.8720 N.am      1 ARX        -0.2656
     25 C26        35.7640   19.7640    7.6010 C.2       1 ARX         0.1782
     26 O28        36.7260   20.1060    6.9220 O.2       1 ARX        -0.3969
     27 C25        34.4010   19.7650    6.9550 C.3       1 ARX         0.0374
     28 C24        34.0940   21.1600    6.4050 C.3       1 ARX        -0.0360
     29 C23        33.5710   22.0920    7.4870 C.3       1 ARX        -0.0492
     30 C22        32.4400   21.4350    8.2830 C.3       1 ARX        -0.0326
     31 C21        32.2310   22.0290    9.6720 C.3       1 ARX         0.0310
     32 N20        31.8460   23.4180    9.5940 N.am      1 ARX        -0.2847
     33 C5'        30.5390   23.7150    9.5380 C.2       1 ARX         0.2080
     34 O5'        29.6630   22.8450    9.4920 O.2       1 ARX        -0.3941
     35 C4'        30.1970   25.1850    9.5590 C.3       1 ARX         0.1788
     36 O4'        29.4840   25.5210    8.3440 O.3       1 ARX        -0.3181
     37 C1'        28.3280   26.3210    8.6350 C.3       1 ARX         0.2035
     38 C2'        28.3910   26.6480   10.1030 C.3       1 ARX         0.1408
     39 O2'        29.0070   27.9100   10.1370 O.3       1 ARX        -0.3834
     40 C3'        29.2820   25.6030   10.7420 C.3       1 ARX         0.1295
     41 O3'        29.9640   26.1520   11.9030 O.3       1 ARX        -0.3840
     42 N9         27.0960   25.5190    8.4280 N.pl3     1 ARX        -0.1918
     43 C4         25.8840   26.0060    8.1280 C.ar      1 ARX         0.1613
     44 N7         25.7800   23.7630    8.2720 N.2       1 ARX        -0.2958
     45 C8         27.0270   24.1860    8.5130 C.2       1 ARX         0.1123
     46 N3         25.3550   27.2370    7.9450 N.ar      1 ARX        -0.2714
     47 C2         24.0430   27.3810    7.6620 C.ar      1 ARX         0.0533
     48 N1         23.1710   26.3690    7.5560 N.ar      1 ARX        -0.2698
     49 C6         23.5810   25.0690    7.7130 C.ar      1 ARX         0.1298
     50 N6         22.7430   23.9950    7.6090 N.pl3     1 ARX        -0.3152
     51 H1         38.2122   22.7385   13.2024 H         1 ARX         0.1815
     52 H2         37.5850   21.8781   14.5686 H         1 ARX         0.1815
     53 H3         35.0270   22.6836   11.4847 H         1 ARX         0.0800
     54 H4         36.4685   24.5777   12.0600 H         1 ARX         0.0313
     55 H5         36.2322   24.2905   10.3026 H         1 ARX         0.0313
     56 H6         38.4686   23.2957   10.1425 H         1 ARX         0.0301
     57 H7         38.7071   23.5082   11.9102 H         1 ARX         0.0301
     58 H8         39.0167   25.7886   11.7392 H         1 ARX         0.0689
     59 H9         38.0290   25.9240   10.2449 H         1 ARX         0.0689
     60 H10        40.6895   24.5579   10.1388 H         1 ARX         0.2642
     61 H11        40.7544   26.5236    7.0298 H         1 ARX         0.2615
     62 H12        40.5640   24.8178    7.5165 H         1 ARX         0.2615
     63 H13        40.0628   27.7600   10.2387 H         1 ARX         0.2615
     64 H14        40.4977   28.1334    8.5492 H         1 ARX         0.2615
     65 H15        35.6067   21.4685    9.7711 H         1 ARX         0.1883
     66 H16        37.8683   18.9531    9.0821 H         1 ARX         0.0800
     67 H17        36.4418   17.4154   10.4695 H         1 ARX         0.0313
     68 H18        36.0294   18.8117   11.5217 H         1 ARX         0.0313
     69 H19        38.9331   18.3776   11.1799 H         1 ARX         0.0301
     70 H20        38.0691   17.0035   11.9495 H         1 ARX         0.0301
     71 H21        37.4809   19.7870   12.9367 H         1 ARX         0.0689
     72 H22        39.0669   19.0577   13.3604 H         1 ARX         0.0689
     73 H23        37.9423   17.4039   14.6855 H         1 ARX         0.2642
     74 H24        34.1972   18.2254   14.2590 H         1 ARX         0.2615
     75 H25        35.2988   17.5301   13.0401 H         1 ARX         0.2615
     76 H26        36.7671   19.3206   16.3581 H         1 ARX         0.2615
     77 H27        35.0019   19.2101   16.1244 H         1 ARX         0.2615
     78 H28        34.9725   19.0844    9.3033 H         1 ARX         0.1883
     79 H29        33.6416   19.4909    7.7021 H         1 ARX         0.0502
     80 H30        34.3856   19.0355    6.1318 H         1 ARX         0.0502
     81 H31        33.3348   21.0716    5.6140 H         1 ARX         0.0290
     82 H32        35.0156   21.5868    5.9826 H         1 ARX         0.0290
     83 H33        33.1919   23.0112    7.0166 H         1 ARX         0.0267
     84 H34        34.3936   22.3433    8.1727 H         1 ARX         0.0267
     85 H35        32.6725   20.3658    8.3958 H         1 ARX         0.0285
     86 H36        31.5054   21.5490    7.7142 H         1 ARX         0.0285
     87 H37        33.1686   21.9482   10.2415 H         1 ARX         0.0520
     88 H38        31.4392   21.4658   10.1875 H         1 ARX         0.0520
     89 H39        32.5366   24.1411    9.5820 H         1 ARX         0.1851
     90 H40        31.1338   25.7589    9.6139 H         1 ARX         0.0869
     91 H41        28.3131   27.2311    8.0174 H         1 ARX         0.0998
     92 H42        27.3976   26.6660   10.5751 H         1 ARX         0.0678
     93 H43        29.0881   28.1974   11.0388 H         1 ARX         0.2101
     94 H44        28.6894   24.7378   11.0738 H         1 ARX         0.0673
     95 H45        30.4983   26.8905   11.6352 H         1 ARX         0.2102
     96 H46        27.8684   23.5351    8.7459 H         1 ARX         0.1349
     97 H47        23.6682   28.3867    7.5097 H         1 ARX         0.0996
     98 H48        21.7456   24.1388    7.3961 H         1 ARX         0.1820
     99 H49        23.1087   23.0415    7.7435 H         1 ARX         0.1820
@<TRIPOS>BOND
     1   43    1 ar 
     2    1   44 1  
     3    1   49 ar 
     4    3    2 2  
     5    3    4 am 
     6    5    3 1  
     7    5    6 1  
     8   13    5 1  
     9    6    7 1  
    10    7    8 1  
    11    8    9 1  
    12    9   10 ar 
    13   10   11 ar 
    14   10   12 ar 
    15   14   13 am 
    16   14   15 2  
    17   16   14 1  
    18   16   17 1  
    19   24   16 1  
    20   17   18 1  
    21   18   19 1  
    22   19   20 1  
    23   20   21 ar 
    24   21   22 ar 
    25   21   23 ar 
    26   25   24 am 
    27   25   26 2  
    28   27   25 1  
    29   28   27 1  
    30   29   28 1  
    31   30   29 1  
    32   31   30 1  
    33   32   31 1  
    34   33   32 am 
    35   33   34 2  
    36   35   33 1  
    37   36   35 1  
    38   40   35 1  
    39   37   36 1  
    40   37   38 1  
    41   42   37 1  
    42   38   39 1  
    43   38   40 1  
    44   40   41 1  
    45   42   43 1  
    46   42   45 1  
    47   43   46 ar 
    48   44   45 2  
    49   46   47 ar 
    50   47   48 ar 
    51   48   49 ar 
    52   49   50 1  
    53    4   51 1  
    54    4   52 1  
    55    5   53 1  
    56    6   54 1  
    57    6   55 1  
    58    7   56 1  
    59    7   57 1  
    60    8   58 1  
    61    8   59 1  
    62    9   60 1  
    63   11   61 1  
    64   11   62 1  
    65   12   63 1  
    66   12   64 1  
    67   13   65 1  
    68   16   66 1  
    69   17   67 1  
    70   17   68 1  
    71   18   69 1  
    72   18   70 1  
    73   19   71 1  
    74   19   72 1  
    75   20   73 1  
    76   22   74 1  
    77   22   75 1  
    78   23   76 1  
    79   23   77 1  
    80   24   78 1  
    81   27   79 1  
    82   27   80 1  
    83   28   81 1  
    84   28   82 1  
    85   29   83 1  
    86   29   84 1  
    87   30   85 1  
    88   30   86 1  
    89   31   87 1  
    90   31   88 1  
    91   32   89 1  
    92   35   90 1  
    93   37   91 1  
    94   38   92 1  
    95   39   93 1  
    96   40   94 1  
    97   41   95 1  
    98   45   96 1  
    99   47   97 1  
   100   50   98 1  
   101   50   99 1  
@<TRIPOS>SUBSTRUCTURE
     1 ARX         1

