### 
### Created by X-TOOL on Mon Sep 10 21:13:00 2018
### 

@<TRIPOS>MOLECULE
3bwk_ligand
   76    78     1     0     0
SMALL
GAST_HUCK


@<TRIPOS>ATOM
      1 N1          8.7230  -20.2820   52.2150 N.am      1 C1P        -0.2517
      2 C15         8.8950  -21.4270   52.8710 C.2       1 C1P         0.2623
      3 O16         8.0060  -22.2820   52.8880 O.2       1 C1P        -0.4005
      4 N9         10.0410  -21.6910   53.5470 N.am      1 C1P        -0.2550
      5 C14        11.1710  -20.7480   53.6540 C.3       1 C1P         0.0577
      6 C13        12.4860  -21.5070   53.4910 C.3       1 C1P         0.0678
      7 O12        12.4500  -22.6370   54.2870 O.3       1 C1P        -0.3758
      8 C11        11.4860  -23.5950   53.9330 C.3       1 C1P         0.0678
      9 C10        10.1790  -22.9470   54.2930 C.3       1 C1P         0.0577
     10 C2          7.5140  -20.0320   51.4130 C.3       1 C1P         0.1314
     11 C3          7.7340  -21.0070   50.2160 C.2       1 C1P         0.2017
     12 O4          8.8470  -21.1150   49.6600 O.2       1 C1P        -0.3946
     13 N28         6.6900  -21.7460   49.8830 N.am      1 C1P        -0.2818
     14 C19         6.7380  -22.7370   48.7710 C.3       1 C1P         0.0453
     15 C18         5.8250  -22.3050   47.6310 C.3       1 C1P        -0.0099
     16 C17         4.3300  -22.3660   47.9880 C.3       1 C1P         0.0730
     17 S33         3.3210  -23.6420   47.1550 S.o2      1 C1P        -0.0030
     18 O34         2.9470  -23.1890   45.8420 O.2       1 C1P        -0.1694
     19 O35         4.1160  -24.8720   46.9760 O.2       1 C1P        -0.1694
     20 C32         1.8450  -23.9340   48.0120 C.ar      1 C1P         0.0882
     21 C36         1.6450  -23.4550   49.3100 C.ar      1 C1P        -0.0369
     22 C37         0.4610  -23.7020   50.0060 C.ar      1 C1P        -0.0600
     23 C29        -0.5660  -24.4220   49.3780 C.ar      1 C1P        -0.0616
     24 C30        -0.3960  -24.9230   48.0690 C.ar      1 C1P        -0.0600
     25 C31         0.8200  -24.6640   47.3840 C.ar      1 C1P        -0.0369
     26 C20         6.3830  -24.1390   49.2640 C.3       1 C1P        -0.0201
     27 C21         7.4740  -24.6640   50.1760 C.3       1 C1P        -0.0171
     28 C22         7.1390  -26.0240   50.7290 C.ar      1 C1P        -0.0429
     29 C23         7.6630  -27.1680   50.1290 C.ar      1 C1P        -0.0603
     30 C24         7.3540  -28.4360   50.6240 C.ar      1 C1P        -0.0686
     31 C25         6.5050  -28.5600   51.7310 C.ar      1 C1P        -0.0687
     32 C26         5.9840  -27.4020   52.3590 C.ar      1 C1P        -0.0686
     33 C27         6.3090  -26.1240   51.8560 C.ar      1 C1P        -0.0603
     34 C5          7.5040  -18.6130   50.8350 C.3       1 C1P        -0.0103
     35 C6          7.4270  -17.4990   51.8490 C.3       1 C1P        -0.0425
     36 C7          6.2710  -17.6320   52.8270 C.3       1 C1P        -0.0625
     37 C8          7.4170  -16.1680   51.1070 C.3       1 C1P        -0.0625
     38 H           9.4440  -19.5625   52.2690 H         1 C1P         0.1877
     39 H          11.1494  -20.2650   54.6309 H         1 C1P         0.0542
     40 H          11.0886  -19.9927   52.8725 H         1 C1P         0.0542
     41 H          13.3191  -20.8709   53.7901 H         1 C1P         0.0580
     42 H          12.6199  -21.7940   52.4480 H         1 C1P         0.0580
     43 H          11.6344  -24.5416   54.4526 H         1 C1P         0.0580
     44 H          11.5375  -23.8620   52.8775 H         1 C1P         0.0580
     45 H           9.3569  -23.6158   54.0382 H         1 C1P         0.0542
     46 H          10.1555  -22.7411   55.3631 H         1 C1P         0.0542
     47 H           6.5970  -20.1577   51.9887 H         1 C1P         0.0797
     48 H           5.8211  -21.6341   50.4054 H         1 C1P         0.1855
     49 H           7.7594  -22.7737   48.3923 H         1 C1P         0.0558
     50 H           5.9921  -22.9894   46.7992 H         1 C1P         0.0303
     51 H           6.0639  -21.2683   47.3940 H         1 C1P         0.0303
     52 H           3.9126  -21.4089   47.6751 H         1 C1P         0.0505
     53 H           4.2899  -22.6053   49.0507 H         1 C1P         0.0505
     54 H           2.4329  -22.8746   49.7900 H         1 C1P         0.0636
     55 H           0.3356  -23.3395   51.0263 H         1 C1P         0.0618
     56 H          -1.5039  -24.5963   49.9054 H         1 C1P         0.0618
     57 H          -1.1873  -25.5005   47.5912 H         1 C1P         0.0618
     58 H           0.9598  -25.0322   46.3676 H         1 C1P         0.0636
     59 H           6.2833  -24.8045   48.4065 H         1 C1P         0.0309
     60 H           5.4449  -24.0961   49.8174 H         1 C1P         0.0309
     61 H           7.5822  -23.9728   51.0118 H         1 C1P         0.0427
     62 H           8.3928  -24.7483   49.5957 H         1 C1P         0.0427
     63 H           8.3204  -27.0714   49.2649 H         1 C1P         0.0557
     64 H           7.7713  -29.3252   50.1514 H         1 C1P         0.0599
     65 H           6.2449  -29.5485   52.1097 H         1 C1P         0.0559
     66 H           5.3337  -27.4978   53.2285 H         1 C1P         0.0599
     67 H           5.9203  -25.2263   52.3367 H         1 C1P         0.0557
     68 H           6.6077  -18.5349   50.2197 H         1 C1P         0.0315
     69 H           8.4488  -18.4866   50.3064 H         1 C1P         0.0315
     70 H           8.3102  -17.5574   52.4852 H         1 C1P         0.0298
     71 H           5.3299  -17.6330   52.2771 H         1 C1P         0.0232
     72 H           6.3708  -18.5656   53.3807 H         1 C1P         0.0232
     73 H           6.2863  -16.7925   53.5220 H         1 C1P         0.0232
     74 H           8.3303  -16.0741   50.5195 H         1 C1P         0.0232
     75 H           6.5520  -16.1291   50.4449 H         1 C1P         0.0232
     76 H           7.3615  -15.3521   51.8277 H         1 C1P         0.0232
@<TRIPOS>BOND
     1    1    2 am 
     2    1   10 1  
     3    2    3 2  
     4    2    4 am 
     5    4    5 1  
     6    4    9 1  
     7    5    6 1  
     8    6    7 1  
     9    7    8 1  
    10    8    9 1  
    11   10   11 1  
    12   10   34 1  
    13   11   12 2  
    14   11   13 am 
    15   13   14 1  
    16   14   15 1  
    17   14   26 1  
    18   15   16 1  
    19   16   17 1  
    20   17   18 2  
    21   17   19 2  
    22   17   20 1  
    23   20   21 ar 
    24   20   25 ar 
    25   21   22 ar 
    26   22   23 ar 
    27   23   24 ar 
    28   24   25 ar 
    29   26   27 1  
    30   27   28 1  
    31   28   29 ar 
    32   28   33 ar 
    33   29   30 ar 
    34   30   31 ar 
    35   31   32 ar 
    36   32   33 ar 
    37   34   35 1  
    38   35   36 1  
    39   35   37 1  
    40    1   38 1  
    41    5   39 1  
    42    5   40 1  
    43    6   41 1  
    44    6   42 1  
    45    8   43 1  
    46    8   44 1  
    47    9   45 1  
    48    9   46 1  
    49   10   47 1  
    50   13   48 1  
    51   14   49 1  
    52   15   50 1  
    53   15   51 1  
    54   16   52 1  
    55   16   53 1  
    56   21   54 1  
    57   22   55 1  
    58   23   56 1  
    59   24   57 1  
    60   25   58 1  
    61   26   59 1  
    62   26   60 1  
    63   27   61 1  
    64   27   62 1  
    65   29   63 1  
    66   30   64 1  
    67   31   65 1  
    68   32   66 1  
    69   33   67 1  
    70   34   68 1  
    71   34   69 1  
    72   35   70 1  
    73   36   71 1  
    74   36   72 1  
    75   36   73 1  
    76   37   74 1  
    77   37   75 1  
    78   37   76 1  
@<TRIPOS>SUBSTRUCTURE
     1 C1P         1

