### 
### Created by X-TOOL on Mon Sep 10 21:12:59 2018
### 

@<TRIPOS>MOLECULE
3bx5_ligand
   46    47     1     0     0
SMALL
GAST_HUCK


@<TRIPOS>ATOM
      1 C1         -3.9560   34.7720   23.4390 C.ar      1 304        -0.0638
      2 C2         -5.1100   35.2550   22.8030 C.ar      1 304        -0.0675
      3 C3         -2.5920   36.0230   21.9120 C.ar      1 304        -0.0279
      4 C4         -2.9960   39.3860   18.0620 C.2       1 304        -0.0141
      5 C5         -2.6850   35.1400   23.0000 C.ar      1 304         0.0291
      6 C6         -5.0320   36.1310   21.7100 C.ar      1 304        -0.0193
      7 C7         -3.7470   36.5130   21.2620 C.ar      1 304         0.0732
      8 C8         -2.8280   38.0290   17.9980 C.2       1 304         0.1103
      9 C9         -2.4400   39.2510   15.9130 C.2       1 304         0.1881
     10 C10        -1.4200   34.6560   23.6620 C.2       1 304         0.1962
     11 C11        -2.9530   37.0090   19.0050 C.2       1 304         0.2242
     12 C12        -6.3040   36.6290   21.0810 C.3       1 304        -0.0328
     13 C13         0.7640   39.1240   14.9160 C.3       1 304        -0.0631
     14 C14        -2.1660   38.4070   12.5310 C.3       1 304        -0.0410
     15 C15        -0.4420   33.2660   25.4660 C.3       1 304         0.0189
     16 C16        -0.2700   38.2900   14.1850 C.3       1 304        -0.0320
     17 C17        -1.3500   39.1690   13.5850 C.3       1 304         0.0425
     18 N18        -2.7830   40.0720   16.8930 N.2       1 304        -0.3057
     19 N19        -3.6010   37.4070   20.1650 N.am      1 304        -0.2387
     20 N20        -2.1910   39.7250   14.6500 N.pl3     1 304        -0.2777
     21 N21        -1.5220   33.6100   24.5640 N.am      1 304        -0.2904
     22 O22        -0.3440   35.1940   23.4060 O.2       1 304        -0.3878
     23 O23        -2.5090   35.8740   18.8350 O.2       1 304        -0.3870
     24 S24        -2.3850   37.5820   16.4130 S.3       1 304         0.0300
     25 H1         -4.0545   34.1019   24.2854 H         1 304         0.0525
     26 H2         -6.0836   34.9442   23.1644 H         1 304         0.0526
     27 H3         -1.6141   36.3351   21.5637 H         1 304         0.0529
     28 H4         -3.2812   39.8902   18.9842 H         1 304         0.0645
     29 H5         -7.1673   36.1913   21.6036 H         1 304         0.0372
     30 H6         -6.3289   36.3344   20.0215 H         1 304         0.0372
     31 H7         -6.3463   37.7255   21.1579 H         1 304         0.0372
     32 H8          1.5342   38.4634   15.3407 H         1 304         0.0231
     33 H9          0.2759   39.6861   15.7258 H         1 304         0.0231
     34 H10         1.2321   39.8275   14.2118 H         1 304         0.0231
     35 H11        -1.4896   38.0123   11.7586 H         1 304         0.0253
     36 H12        -2.8938   39.0890   12.0672 H         1 304         0.0253
     37 H13        -2.6992   37.5737   13.0120 H         1 304         0.0253
     38 H14        -0.7420   32.4092   26.0872 H         1 304         0.0483
     39 H15        -0.2163   34.1266   26.1128 H         1 304         0.0483
     40 H16         0.4523   33.0009   24.8830 H         1 304         0.0483
     41 H17        -0.7312   37.5863   14.8936 H         1 304         0.0286
     42 H18         0.2251   37.7277   13.3796 H         1 304         0.0286
     43 H19        -0.8573   40.0100   13.0752 H         1 304         0.0565
     44 H20        -3.9702   38.3340   20.2310 H         1 304         0.2220
     45 H21        -2.6679   40.6067   14.4134 H         1 304         0.1926
     46 H22        -2.3669   33.0760   24.5935 H         1 304         0.1839
@<TRIPOS>BOND
     1    2    1 ar 
     2    5    1 ar 
     3    6    2 ar 
     4    3    5 ar 
     5    7    3 ar 
     6    8    4 2  
     7   18    4 1  
     8    5   10 1  
     9    7    6 ar 
    10    6   12 1  
    11   19    7 1  
    12    8   11 1  
    13   24    8 1  
    14    9   18 2  
    15   20    9 1  
    16    9   24 1  
    17   10   21 am 
    18   10   22 2  
    19   11   19 am 
    20   11   23 2  
    21   16   13 1  
    22   17   14 1  
    23   21   15 1  
    24   17   16 1  
    25   17   20 1  
    26    1   25 1  
    27    2   26 1  
    28    3   27 1  
    29    4   28 1  
    30   12   29 1  
    31   12   30 1  
    32   12   31 1  
    33   13   32 1  
    34   13   33 1  
    35   13   34 1  
    36   14   35 1  
    37   14   36 1  
    38   14   37 1  
    39   15   38 1  
    40   15   39 1  
    41   15   40 1  
    42   16   41 1  
    43   16   42 1  
    44   17   43 1  
    45   19   44 1  
    46   20   45 1  
    47   21   46 1  
@<TRIPOS>SUBSTRUCTURE
     1 304         1

