### 
### Created by X-TOOL on Mon Sep 10 21:12:57 2018
### 

@<TRIPOS>MOLECULE
3bxs_ligand
   51    52     1     0     0
SMALL
GAST_HUCK


@<TRIPOS>ATOM
      1 CAA         0.6290    2.1110   11.2580 C.3       1 DRS        -0.0584
      2 CAX         1.6930    1.1060   11.7040 C.3       1 DRS        -0.0063
      3 CAB         1.2360    0.3760   12.9690 C.3       1 DRS        -0.0584
      4 CAZ         3.0390    1.8050   11.9230 C.3       1 DRS         0.1331
      5 CAU         4.0770    0.7950   12.4180 C.2       1 DRS         0.2037
      6 OAE         4.1770   -0.3150   11.8980 O.2       1 DRS        -0.3944
      7 N           4.8290    1.2110   13.4340 N.am      1 DRS        -0.2679
      8 CA          5.8410    0.3490   14.0630 C.3       1 DRS         0.1025
      9 C           5.3400    0.0150   15.4710 C.2       1 DRS         0.0619
     10 OXT         4.1500    0.1630   15.7470 O.co2     1 DRS        -0.5665
     11 O           6.1020   -0.4260   16.3300 O.co2     1 DRS        -0.5665
     12 CB          7.1910    1.0650   14.1520 C.3       1 DRS         0.0108
     13 CG          7.5810    1.6630   12.7980 C.ar      1 DRS        -0.0499
     14 CD2         7.5240    3.0430   12.6370 C.ar      1 DRS        -0.0686
     15 CE2         7.7210    3.6070   11.3800 C.ar      1 DRS        -0.0396
     16 CD1         7.8600    0.8410   11.7100 C.ar      1 DRS        -0.0686
     17 CE1         8.0570    1.4060   10.4520 C.ar      1 DRS        -0.0396
     18 CZ          7.9770    2.7860   10.2860 C.ar      1 DRS         0.0840
     19 OH          8.0800    3.3590    9.0550 O.3       1 DRS        -0.3224
     20 CAM         7.1850    2.7860    8.0850 C.3       1 DRS         0.0691
     21 CAK         5.7150    2.8350    8.5100 C.3       1 DRS        -0.0232
     22 CAL         5.2100    4.2670    8.7060 C.3       1 DRS        -0.0336
     23 CAN         3.7400    4.2910    9.1340 C.3       1 DRS         0.0375
     24 CAS         3.5430    3.7630   10.5580 C.2       1 DRS         0.1782
     25 OAC         3.4460    4.5350   11.5110 O.2       1 DRS        -0.3969
     26 NAP         3.4900    2.4390   10.6760 N.am      1 DRS        -0.2654
     27 H1         -0.3275    1.5893   11.1067 H         1 DRS         0.0234
     28 H2          0.9425    2.5827   10.3150 H         1 DRS         0.0234
     29 H3          0.5070    2.8834   12.0316 H         1 DRS         0.0234
     30 H4          1.8207    0.3610   10.9049 H         1 DRS         0.0343
     31 H5          2.0098   -0.3423   13.2776 H         1 DRS         0.0234
     32 H6          0.2981   -0.1610   12.7639 H         1 DRS         0.0234
     33 H7          1.0716    1.1065   13.7748 H         1 DRS         0.0234
     34 H8          2.9126    2.5848   12.6884 H         1 DRS         0.0802
     35 H9          4.7018    2.1401   13.7812 H         1 DRS         0.1877
     36 H10         5.9585   -0.5744   13.4769 H         1 DRS         0.0747
     37 H11         7.9615    0.3441   14.4629 H         1 DRS         0.0446
     38 H12         7.1225    1.8722   14.8961 H         1 DRS         0.0446
     39 H13         7.3259    3.6801   13.4914 H         1 DRS         0.0530
     40 H14         7.6752    4.6826   11.2535 H         1 DRS         0.0525
     41 H15         7.9237   -0.2332   11.8409 H         1 DRS         0.0530
     42 H16         8.2729    0.7702    9.6010 H         1 DRS         0.0525
     43 H17         7.4676    1.7346    7.9282 H         1 DRS         0.0611
     44 H18         7.2935    3.3397    7.1407 H         1 DRS         0.0611
     45 H19         5.6032    2.2885    9.4581 H         1 DRS         0.0292
     46 H20         5.1065    2.3494    7.7329 H         1 DRS         0.0292
     47 H21         5.3152    4.8158    7.7585 H         1 DRS         0.0290
     48 H22         5.8162    4.7565    9.4825 H         1 DRS         0.0290
     49 H23         3.1590    3.6651    8.4407 H         1 DRS         0.0502
     50 H24         3.3742    5.3273    9.0868 H         1 DRS         0.0502
     51 H25         3.7616    1.8654    9.9032 H         1 DRS         0.1883
@<TRIPOS>BOND
     1    1    2 1  
     2    2    3 1  
     3    2    4 1  
     4    4    5 1  
     5    4   26 1  
     6    5    6 2  
     7    5    7 am 
     8    7    8 1  
     9    8    9 1  
    10    8   12 1  
    11    9   10 ar 
    12    9   11 ar 
    13   12   13 1  
    14   13   14 ar 
    15   13   16 ar 
    16   14   15 ar 
    17   15   18 ar 
    18   16   17 ar 
    19   17   18 ar 
    20   18   19 1  
    21   19   20 1  
    22   20   21 1  
    23   21   22 1  
    24   22   23 1  
    25   23   24 1  
    26   24   25 2  
    27   24   26 am 
    28    1   27 1  
    29    1   28 1  
    30    1   29 1  
    31    2   30 1  
    32    3   31 1  
    33    3   32 1  
    34    3   33 1  
    35    4   34 1  
    36    7   35 1  
    37    8   36 1  
    38   12   37 1  
    39   12   38 1  
    40   14   39 1  
    41   15   40 1  
    42   16   41 1  
    43   17   42 1  
    44   20   43 1  
    45   20   44 1  
    46   21   45 1  
    47   21   46 1  
    48   22   47 1  
    49   22   48 1  
    50   23   49 1  
    51   23   50 1  
    52   26   51 1  
@<TRIPOS>SUBSTRUCTURE
     1 DRS         1

