### 
### Created by X-TOOL on Mon Sep 10 21:12:59 2018
### 

@<TRIPOS>MOLECULE
3bym_ligand
   58    62     1     0     0
SMALL
GAST_HUCK


@<TRIPOS>ATOM
      1 N3         25.0650   34.8940   81.7620 N.ar      1 AM0        -0.2342
      2 C7         23.7580   34.9420   82.1330 C.ar      1 AM0         0.0782
      3 N4         23.3400   35.7460   83.1420 N.ar      1 AM0        -0.2283
      4 C8         24.2580   36.5810   83.8560 C.ar      1 AM0         0.2477
      5 N5         25.5940   36.4960   83.4510 N.ar      1 AM0        -0.1983
      6 C10        25.9740   35.6700   82.4240 C.ar      1 AM0         0.2124
      7 N2         27.3060   35.6270   82.0250 N.pl3     1 AM0        -0.2476
      8 C11        29.6000   35.9630   82.1980 C.ar      1 AM0        -0.0279
      9 C13        28.3280   36.5210   82.3500 C.ar      1 AM0         0.0406
     10 C14        28.1480   37.8810   82.8230 C.ar      1 AM0        -0.0279
     11 C15        29.2730   38.6780   83.1500 C.ar      1 AM0         0.1030
     12 C16        30.5460   38.0680   82.9760 C.ar      1 AM0         0.1355
     13 C17        30.7430   36.7390   82.5140 C.ar      1 AM0         0.1030
     14 O1         31.6050   38.8850   83.2770 O.3       1 AM0        -0.3365
     15 O2         32.0480   36.2840   82.4220 O.3       1 AM0        -0.3305
     16 C9         32.1140   38.6530   84.5860 C.3       1 AM0         0.0518
     17 C1         25.8310   40.2690   87.6430 C.ar      1 AM0        -0.0792
     18 C2         24.3930   40.0980   87.4960 C.ar      1 AM0        -0.0667
     19 C3         23.8540   39.1370   86.5230 C.ar      1 AM0         0.0205
     20 C4         24.7910   38.3500   85.6920 C.ar      1 AM0         0.1048
     21 C5         26.2520   38.5530   85.8710 C.ar      1 AM0        -0.0390
     22 C6         26.7810   39.5040   86.8410 C.ar      1 AM0        -0.0767
     23 N6         22.5730   38.7250   86.1420 N.2       1 AM0        -0.3002
     24 C12        22.6550   37.7910   85.1880 C.2       1 AM0         0.2622
     25 N7         23.9360   37.5280   84.8760 N.pl3     1 AM0        -0.1291
     26 N1         21.4660   37.1380   84.5920 N.pl3     1 AM0        -0.2230
     27 O3         29.2130   39.9900   83.6540 O.3       1 AM0        -0.3305
     28 C18        32.3130   34.9400   81.9810 C.3       1 AM0         0.0562
     29 C19        28.0190   40.8030   83.5440 C.3       1 AM0         0.0562
     30 C20        18.2390   38.0560   86.3490 C.ar      1 AM0        -0.0714
     31 C21        17.4900   38.2460   85.1150 C.ar      1 AM0        -0.0733
     32 C22        17.9920   38.1070   83.7680 C.ar      1 AM0        -0.0714
     33 C23        19.3690   37.7400   83.6390 C.ar      1 AM0        -0.0379
     34 C24        20.1680   37.5290   84.8280 C.ar      1 AM0         0.0689
     35 C25        19.6180   37.6870   86.1920 C.ar      1 AM0        -0.0379
     36 H1         23.0351   34.3250   81.6116 H         1 AM0         0.1155
     37 H2         27.5705   34.8398   81.4156 H         1 AM0         0.2184
     38 H3         29.7116   34.9454   81.8415 H         1 AM0         0.0349
     39 H4         27.1490   38.2888   82.9266 H         1 AM0         0.0349
     40 H5         32.9587   39.3313   84.7765 H         1 AM0         0.0564
     41 H6         32.4554   37.6105   84.6673 H         1 AM0         0.0564
     42 H7         31.3213   38.8380   85.3258 H         1 AM0         0.0564
     43 H8         26.2063   40.9832   88.3670 H         1 AM0         0.0519
     44 H9         23.7156   40.6828   88.1077 H         1 AM0         0.0524
     45 H10        26.9428   37.9788   85.2643 H         1 AM0         0.0549
     46 H11        27.8496   39.6393   86.9633 H         1 AM0         0.0520
     47 H12        21.6211   36.3396   83.9600 H         1 AM0         0.2222
     48 H13        33.3988   34.7642   81.9729 H         1 AM0         0.0572
     49 H14        31.9115   34.8011   80.9664 H         1 AM0         0.0572
     50 H15        31.8313   34.2274   82.6667 H         1 AM0         0.0572
     51 H16        28.2007   41.7855   84.0042 H         1 AM0         0.0572
     52 H17        27.1866   40.3040   84.0618 H         1 AM0         0.0572
     53 H18        27.7631   40.9370   82.4826 H         1 AM0         0.0572
     54 H19        17.7845   38.1849   87.3246 H         1 AM0         0.0587
     55 H20        16.4464   38.5205   85.2181 H         1 AM0         0.0520
     56 H21        17.3605   38.2716   82.9025 H         1 AM0         0.0587
     57 H22        19.8115   37.6206   82.6567 H         1 AM0         0.0537
     58 H23        20.2466   37.5266   87.0604 H         1 AM0         0.0537
@<TRIPOS>BOND
     1    2    1 ar 
     2    6    1 ar 
     3    3    2 ar 
     4    4    3 ar 
     5    4    5 ar 
     6   25    4 1  
     7    5    6 ar 
     8    6    7 1  
     9    7    9 1  
    10    9    8 ar 
    11    8   13 ar 
    12    9   10 ar 
    13   10   11 ar 
    14   11   12 ar 
    15   11   27 1  
    16   13   12 ar 
    17   12   14 1  
    18   13   15 1  
    19   14   16 1  
    20   15   28 1  
    21   18   17 ar 
    22   22   17 ar 
    23   19   18 ar 
    24   20   19 ar 
    25   23   19 1  
    26   20   21 ar 
    27   25   20 1  
    28   21   22 ar 
    29   24   23 2  
    30   24   25 1  
    31   26   24 1  
    32   34   26 1  
    33   27   29 1  
    34   31   30 ar 
    35   30   35 ar 
    36   32   31 ar 
    37   33   32 ar 
    38   33   34 ar 
    39   34   35 ar 
    40    2   36 1  
    41    7   37 1  
    42    8   38 1  
    43   10   39 1  
    44   16   40 1  
    45   16   41 1  
    46   16   42 1  
    47   17   43 1  
    48   18   44 1  
    49   21   45 1  
    50   22   46 1  
    51   26   47 1  
    52   28   48 1  
    53   28   49 1  
    54   28   50 1  
    55   29   51 1  
    56   29   52 1  
    57   29   53 1  
    58   30   54 1  
    59   31   55 1  
    60   32   56 1  
    61   33   57 1  
    62   35   58 1  
@<TRIPOS>SUBSTRUCTURE
     1 AM0         1

