### 
### Created by X-TOOL on Mon Sep 10 21:12:58 2018
### 

@<TRIPOS>MOLECULE
3byo_ligand
   71    77     1     0     0
SMALL
GAST_HUCK


@<TRIPOS>ATOM
      1 C1         25.7590   35.8000   82.9300 C.ar      1 AM9         0.2028
      2 N1         25.5740   36.5460   84.0690 N.ar      1 AM9        -0.2189
      3 C2         24.3710   36.7680   84.6330 C.ar      1 AM9         0.1924
      4 C3         23.2140   36.1410   83.9380 C.ar      1 AM9         0.1310
      5 C4         23.3890   35.3280   82.7270 C.ar      1 AM9         0.0282
      6 N2         24.6820   35.2020   82.2770 N.ar      1 AM9        -0.2568
      7 N3         27.0450   35.7260   82.4150 N.pl3     1 AM9        -0.2483
      8 C5         28.2330   36.4210   82.7610 C.ar      1 AM9         0.0541
      9 C6         28.1530   37.6860   83.5170 C.ar      1 AM9        -0.0485
     10 C7         29.3120   38.3470   83.9820 C.ar      1 AM9        -0.0526
     11 C8         30.5360   37.6840   83.6490 C.ar      1 AM9         0.0299
     12 C9         30.6720   36.4210   82.8680 C.ar      1 AM9        -0.0526
     13 C10        29.4780   35.7770   82.4100 C.ar      1 AM9        -0.0485
     14 N4         24.2500   37.6210   85.8210 N.pl3     1 AM9        -0.1409
     15 C11        23.0450   37.9130   86.4290 C.2       1 AM9         0.2891
     16 N5         21.8920   37.3370   85.8330 N.am      1 AM9        -0.1228
     17 C12        22.0070   36.4960   84.6180 C.2       1 AM9         0.2645
     18 C13        25.1870   38.3540   86.6280 C.ar      1 AM9         0.1009
     19 C14        24.5080   39.0960   87.7040 C.ar      1 AM9         0.0161
     20 N6         23.1760   38.7930   87.5500 N.2       1 AM9        -0.3027
     21 C15        26.6570   38.5220   86.5770 C.ar      1 AM9        -0.0402
     22 C16        27.4240   39.3580   87.5150 C.ar      1 AM9        -0.0777
     23 C17        26.6810   40.0600   88.5420 C.ar      1 AM9        -0.0803
     24 C18        25.2440   39.9510   88.6590 C.ar      1 AM9        -0.0684
     25 O1         21.0240   36.0870   84.0120 O.2       1 AM9        -0.3717
     26 C19        20.6760   37.4860   86.4460 C.ar      1 AM9         0.1088
     27 C20        20.1540   36.4340   87.3170 C.ar      1 AM9        -0.0215
     28 C21        18.8550   36.6050   87.9530 C.ar      1 AM9        -0.0768
     29 C22        18.0550   37.7750   87.7670 C.ar      1 AM9        -0.0873
     30 C23        18.6080   38.7620   86.9160 C.ar      1 AM9        -0.0768
     31 C24        19.8840   38.6710   86.2410 C.ar      1 AM9        -0.0215
     32 C25        20.3180   39.7880   85.3160 C.3       1 AM9        -0.0349
     33 C26        20.9810   35.1790   87.5170 C.3       1 AM9        -0.0349
     34 N7         31.5780   38.3640   84.2280 N.pl3     1 AM9        -0.3044
     35 C27        32.6420   38.7400   83.3310 C.3       1 AM9         0.0649
     36 C28        33.9950   38.4600   83.9710 C.3       1 AM9        -0.0123
     37 N8         33.9450   39.0150   85.3340 N.4       1 AM9         0.2358
     38 C29        33.0200   38.2750   86.2060 C.3       1 AM9        -0.0123
     39 C30        31.6620   38.7480   85.6950 C.3       1 AM9         0.0649
     40 C31        35.2380   38.6380   85.8840 C.3       1 AM9        -0.0430
     41 H1         22.5532   34.8581   82.2212 H         1 AM9         0.0922
     42 H2         27.1572   35.0483   81.6475 H         1 AM9         0.2160
     43 H3         27.1803   38.1190   83.7207 H         1 AM9         0.0508
     44 H4         29.2772   39.2747   84.5417 H         1 AM9         0.0490
     45 H5         31.6483   36.0018   82.6529 H         1 AM9         0.0490
     46 H6         29.5064   34.8595   81.8334 H         1 AM9         0.0508
     47 H7         27.2022   37.9970   85.8010 H         1 AM9         0.0546
     48 H8         28.5019   39.4450   87.4404 H         1 AM9         0.0512
     49 H9         27.2192   40.6863   89.2443 H         1 AM9         0.0517
     50 H10        24.7137   40.4890   89.4365 H         1 AM9         0.0515
     51 H11        18.4801   35.8141   88.5925 H         1 AM9         0.0468
     52 H12        17.0900   37.8982   88.2453 H         1 AM9         0.0479
     53 H13        18.0257   39.6624   86.7567 H         1 AM9         0.0468
     54 H14        21.3059   39.5515   84.8940 H         1 AM9         0.0366
     55 H15        20.3766   40.7300   85.8809 H         1 AM9         0.0366
     56 H16        19.5870   39.8940   84.5009 H         1 AM9         0.0366
     57 H17        21.9187   35.2633   86.9482 H         1 AM9         0.0366
     58 H18        20.4141   34.3058   87.1619 H         1 AM9         0.0366
     59 H19        21.2102   35.0574   88.5859 H         1 AM9         0.0366
     60 H20        32.5631   39.8134   83.1038 H         1 AM9         0.0562
     61 H21        32.5539   38.1606   82.4001 H         1 AM9         0.0562
     62 H22        34.7949   38.9464   83.3934 H         1 AM9         0.0834
     63 H23        34.1781   37.3761   84.0102 H         1 AM9         0.0834
     64 H24        33.7642   40.0066   85.3354 H         1 AM9         0.2032
     65 H25        33.1654   38.5428   87.2629 H         1 AM9         0.0834
     66 H26        33.1374   37.1882   86.0836 H         1 AM9         0.0834
     67 H27        30.8550   38.2585   86.2599 H         1 AM9         0.0562
     68 H28        31.5768   39.8392   85.8048 H         1 AM9         0.0562
     69 H29        36.0376   39.1321   85.3126 H         1 AM9         0.0778
     70 H30        35.3606   37.5469   85.8178 H         1 AM9         0.0778
     71 H31        35.2935   38.9500   86.9373 H         1 AM9         0.0778
@<TRIPOS>BOND
     1    1    2 ar 
     2    1    6 ar 
     3    1    7 1  
     4    2    3 ar 
     5    3    4 ar 
     6    3   14 1  
     7    4    5 ar 
     8    4   17 1  
     9    5    6 ar 
    10    7    8 1  
    11    8    9 ar 
    12    8   13 ar 
    13    9   10 ar 
    14   10   11 ar 
    15   11   12 ar 
    16   11   34 1  
    17   12   13 ar 
    18   14   15 1  
    19   14   18 1  
    20   15   16 1  
    21   15   20 2  
    22   16   17 am 
    23   16   26 1  
    24   17   25 2  
    25   18   19 ar 
    26   18   21 ar 
    27   19   20 1  
    28   19   24 ar 
    29   21   22 ar 
    30   22   23 ar 
    31   23   24 ar 
    32   26   27 ar 
    33   26   31 ar 
    34   27   28 ar 
    35   27   33 1  
    36   28   29 ar 
    37   29   30 ar 
    38   30   31 ar 
    39   31   32 1  
    40   34   35 1  
    41   34   39 1  
    42   35   36 1  
    43   36   37 1  
    44   37   38 1  
    45   37   40 1  
    46   38   39 1  
    47    5   41 1  
    48    7   42 1  
    49    9   43 1  
    50   10   44 1  
    51   12   45 1  
    52   13   46 1  
    53   21   47 1  
    54   22   48 1  
    55   23   49 1  
    56   24   50 1  
    57   28   51 1  
    58   29   52 1  
    59   30   53 1  
    60   32   54 1  
    61   32   55 1  
    62   32   56 1  
    63   33   57 1  
    64   33   58 1  
    65   33   59 1  
    66   35   60 1  
    67   35   61 1  
    68   36   62 1  
    69   36   63 1  
    70   37   64 1  
    71   38   65 1  
    72   38   66 1  
    73   39   67 1  
    74   39   68 1  
    75   40   69 1  
    76   40   70 1  
    77   40   71 1  
@<TRIPOS>SUBSTRUCTURE
     1 AM9         1

