### 
### Created by X-TOOL on Mon Sep 10 21:12:59 2018
### 

@<TRIPOS>MOLECULE
3bys_ligand
   74    78     1     0     0
SMALL
GAST_HUCK


@<TRIPOS>ATOM
      1 C7         15.8440   -2.0780   42.6210 C.ar      1 AM5        -0.0489
      2 C9         15.2730   -1.1080   41.7380 C.ar      1 AM5        -0.0438
      3 C10        16.1100   -0.3910   40.7610 C.ar      1 AM5         0.0546
      4 C11        15.6140    0.5960   39.7630 C.2       1 AM5         0.2287
      5 N3         14.3510    1.0020   40.0750 N.am      1 AM5        -0.2283
      6 C14        13.5200    1.7080   39.2520 C.ar      1 AM5         0.0947
      7 C15        12.3290    2.2830   39.8380 C.ar      1 AM5        -0.0111
      8 C19        11.3610    3.0710   39.0830 C.ar      1 AM5        -0.0433
      9 C18        11.5980    3.2830   37.6900 C.ar      1 AM5        -0.0450
     10 C17        12.7880    2.7060   37.0800 C.ar      1 AM5         0.0335
     11 C16        13.7600    1.9160   37.8550 C.ar      1 AM5        -0.0124
     12 C20        13.0720    2.8560   35.6060 C.3       1 AM5         0.3727
     13 F1         13.5270    1.6570   35.1850 F         1 AM5        -0.2209
     14 F3         14.0050    3.7700   35.5280 F         1 AM5        -0.2209
     15 F2         12.0700    3.2460   34.8320 F         1 AM5        -0.2209
     16 C12        17.5030   -0.5960   40.6450 C.ar      1 AM5        -0.0273
     17 C13        18.0360   -1.5420   41.5160 C.ar      1 AM5         0.0629
     18 C21        17.2430   -2.2750   42.4770 C.ar      1 AM5        -0.0205
     19 C22        17.8590   -3.2860   43.3430 C.3       1 AM5        -0.0253
     20 N1         22.9890   -3.2910   38.6360 N.ar      1 AM5        -0.2647
     21 C23        21.6720   -3.1870   38.9830 C.ar      1 AM5         0.0365
     22 C24        21.2520   -2.4670   40.1590 C.ar      1 AM5         0.1056
     23 C25        22.3000   -1.8680   40.9400 C.ar      1 AM5         0.0365
     24 N4         23.5710   -1.9970   40.5640 N.ar      1 AM5        -0.2647
     25 C26        23.9290   -2.6980   39.4220 C.ar      1 AM5         0.1965
     26 N6         19.9180   -2.4170   40.4800 N.am      1 AM5        -0.2297
     27 C8         19.4110   -1.7140   41.4870 C.2       1 AM5         0.2284
     28 O2         20.0610   -1.2060   42.3950 O.2       1 AM5        -0.3771
     29 N7         25.2690   -2.8020   39.0330 N.pl3     1 AM5        -0.2559
     30 C27        27.2200   -0.0210   40.5300 C.ar      1 AM5        -0.0533
     31 C28        28.5010   -0.6770   40.4930 C.ar      1 AM5         0.0293
     32 C29        28.7520   -2.0170   39.9880 C.ar      1 AM5        -0.0533
     33 C30        27.6450   -2.7460   39.4850 C.ar      1 AM5        -0.0498
     34 C5         26.3470   -2.1070   39.5120 C.ar      1 AM5         0.0499
     35 C31        26.1460   -0.7600   40.0290 C.ar      1 AM5        -0.0498
     36 C1         30.6470    0.6910   43.0410 C.3       1 AM5        -0.0124
     37 N2         31.9210    0.4930   42.3310 N.4       1 AM5         0.2358
     38 C3         31.9460   -0.5240   41.2810 C.3       1 AM5        -0.0124
     39 C4         30.8910   -0.2190   40.2410 C.3       1 AM5         0.0648
     40 N5         29.5880   -0.0570   40.9240 N.pl3     1 AM5        -0.3047
     41 C6         29.4890    0.8090   42.0850 C.3       1 AM5         0.0648
     42 C2         32.8630   -0.0860   43.2830 C.3       1 AM5        -0.0430
     43 O1         16.3190    1.0250   38.8360 O.2       1 AM5        -0.3761
     44 H1         15.2518   -2.6230   43.3472 H         1 AM5         0.0581
     45 H2         14.2107   -0.8980   41.7887 H         1 AM5         0.0686
     46 H3         14.0036    0.7632   40.9818 H         1 AM5         0.2253
     47 H4         12.1462    2.1197   40.8939 H         1 AM5         0.0759
     48 H5         10.4838    3.4854   39.5667 H         1 AM5         0.0664
     49 H6         10.9024    3.8647   37.0960 H         1 AM5         0.0741
     50 H7         14.6399    1.5001   37.3776 H         1 AM5         0.0712
     51 H8         18.1125   -0.0558   39.9296 H         1 AM5         0.0705
     52 H9         17.0915   -3.7251   43.9973 H         1 AM5         0.0414
     53 H10        18.6397   -2.8152   43.9584 H         1 AM5         0.0414
     54 H11        18.3077   -4.0759   42.7228 H         1 AM5         0.0414
     55 H12        20.9227   -3.6585   38.3574 H         1 AM5         0.0789
     56 H13        22.0551   -1.3103   41.8367 H         1 AM5         0.0789
     57 H14        19.2838   -2.9466   39.9166 H         1 AM5         0.2247
     58 H15        25.4700   -3.4887   38.2921 H         1 AM5         0.2104
     59 H16        27.0969    0.9823   40.9216 H         1 AM5         0.0489
     60 H17        29.7488   -2.4430   39.9958 H         1 AM5         0.0489
     61 H18        27.7669   -3.7493   39.0930 H         1 AM5         0.0503
     62 H19        25.1524   -0.3267   40.0248 H         1 AM5         0.0503
     63 H20        30.7113    1.6123   43.6385 H         1 AM5         0.0834
     64 H21        30.4731   -0.1668   43.7073 H         1 AM5         0.0834
     65 H22        32.2366    1.3789   41.9682 H         1 AM5         0.2032
     66 H23        31.7460   -1.5106   41.7244 H         1 AM5         0.0834
     67 H24        32.9370   -0.5306   40.8036 H         1 AM5         0.0834
     68 H25        30.8309   -1.0475   39.5199 H         1 AM5         0.0562
     69 H26        31.1499    0.7098   39.7117 H         1 AM5         0.0562
     70 H27        29.4345    1.8505   41.7353 H         1 AM5         0.0562
     71 H28        28.5662    0.5555   42.6273 H         1 AM5         0.0562
     72 H29        32.9581    0.5781   44.1547 H         1 AM5         0.0778
     73 H30        33.8454   -0.2026   42.8020 H         1 AM5         0.0778
     74 H31        32.4957   -1.0699   43.6100 H         1 AM5         0.0778
@<TRIPOS>BOND
     1    1    2 ar 
     2   18    1 ar 
     3    3    2 ar 
     4    3    4 1  
     5   16    3 ar 
     6    4    5 am 
     7    4   43 2  
     8    5    6 1  
     9    6    7 ar 
    10    6   11 ar 
    11    7    8 ar 
    12    8    9 ar 
    13   10    9 ar 
    14   11   10 ar 
    15   10   12 1  
    16   12   13 1  
    17   12   14 1  
    18   12   15 1  
    19   17   16 ar 
    20   17   18 ar 
    21   27   17 1  
    22   18   19 1  
    23   20   21 ar 
    24   25   20 ar 
    25   21   22 ar 
    26   23   22 ar 
    27   22   26 1  
    28   24   23 ar 
    29   25   24 ar 
    30   29   25 1  
    31   26   27 am 
    32   27   28 2  
    33   34   29 1  
    34   31   30 ar 
    35   30   35 ar 
    36   31   32 ar 
    37   40   31 1  
    38   32   33 ar 
    39   33   34 ar 
    40   35   34 ar 
    41   37   36 1  
    42   36   41 1  
    43   38   37 1  
    44   37   42 1  
    45   39   38 1  
    46   39   40 1  
    47   40   41 1  
    48    1   44 1  
    49    2   45 1  
    50    5   46 1  
    51    7   47 1  
    52    8   48 1  
    53    9   49 1  
    54   11   50 1  
    55   16   51 1  
    56   19   52 1  
    57   19   53 1  
    58   19   54 1  
    59   21   55 1  
    60   23   56 1  
    61   26   57 1  
    62   29   58 1  
    63   30   59 1  
    64   32   60 1  
    65   33   61 1  
    66   35   62 1  
    67   36   63 1  
    68   36   64 1  
    69   37   65 1  
    70   38   66 1  
    71   38   67 1  
    72   39   68 1  
    73   39   69 1  
    74   41   70 1  
    75   41   71 1  
    76   42   72 1  
    77   42   73 1  
    78   42   74 1  
@<TRIPOS>SUBSTRUCTURE
     1 AM5         1

