### 
### Created by X-TOOL on Mon Sep 10 21:12:59 2018
### 

@<TRIPOS>MOLECULE
3byu_ligand
   77    81     1     0     0
SMALL
GAST_HUCK


@<TRIPOS>ATOM
      1 C9         16.4110   -2.6680   42.8290 C.ar      1 AM6        -0.0672
      2 C10        15.5150   -1.7630   42.1840 C.ar      1 AM6        -0.0427
      3 C11        16.0080   -0.7930   41.2340 C.ar      1 AM6         0.0647
      4 N3         15.0810   -0.0140   40.5860 N.am      1 AM6        -0.2368
      5 C7         15.2360    0.7860   39.4390 C.2       1 AM6         0.2327
      6 C14        14.0420    1.4690   39.0110 C.ar      1 AM6         0.0875
      7 C15        13.2190    2.0870   40.0040 C.ar      1 AM6        -0.0203
      8 C19        12.0590    2.7960   39.6250 C.ar      1 AM6        -0.0338
      9 C18        11.7300    2.8830   38.2460 C.ar      1 AM6        -0.0339
     10 C17        12.5280    2.2750   37.1970 C.ar      1 AM6         0.0548
     11 C16        13.7110    1.5480   37.5940 C.ar      1 AM6         0.0093
     12 C20        12.0700    2.4480   35.7070 C.3       1 AM6         0.3717
     13 F1         11.1300    3.3030   35.4990 F         1 AM6        -0.2262
     14 F3         11.5220    1.3120   35.2520 F         1 AM6        -0.2262
     15 F2         13.0950    2.9440   34.9770 F         1 AM6        -0.2262
     16 C12        17.3920   -0.6740   40.9050 C.ar      1 AM6        -0.0271
     17 C13        18.2550   -1.5890   41.5620 C.ar      1 AM6         0.0443
     18 C21        17.7970   -2.5650   42.4910 C.ar      1 AM6        -0.0395
     19 C22        18.8380   -3.4970   43.0680 C.3       1 AM6        -0.0343
     20 N1         23.1340   -3.3940   38.5690 N.ar      1 AM6        -0.2647
     21 C23        21.8460   -3.2760   38.8860 C.ar      1 AM6         0.0365
     22 C24        21.4490   -2.5430   40.0720 C.ar      1 AM6         0.1056
     23 C25        22.4320   -1.9440   40.9170 C.ar      1 AM6         0.0365
     24 N4         23.6340   -2.1080   40.5390 N.ar      1 AM6        -0.2647
     25 C26        23.9770   -2.8070   39.4000 C.ar      1 AM6         0.1965
     26 N6         20.1570   -2.4150   40.3940 N.am      1 AM6        -0.2299
     27 C8         19.6470   -1.4760   41.2770 C.2       1 AM6         0.2239
     28 O2         20.2570   -0.5640   41.8300 O.2       1 AM6        -0.3773
     29 N7         25.2210   -2.8840   39.1070 N.pl3     1 AM6        -0.2559
     30 O1         16.2740    0.9610   38.7930 O.2       1 AM6        -0.3774
     31 C27        14.5690    0.8760   36.5390 C.3       1 AM6        -0.0114
     32 C28        27.0160    0.1090   40.4560 C.ar      1 AM6        -0.0533
     33 C29        28.3450   -0.5490   40.3810 C.ar      1 AM6         0.0293
     34 C30        28.4850   -1.9620   39.8900 C.ar      1 AM6        -0.0533
     35 C31        27.2970   -2.7580   39.4580 C.ar      1 AM6        -0.0498
     36 C5         26.1090   -2.0060   39.5660 C.ar      1 AM6         0.0499
     37 C32        25.8810   -0.6230   40.0290 C.ar      1 AM6        -0.0498
     38 C1         30.1370    1.0030   42.9610 C.3       1 AM6        -0.0124
     39 N2         31.4820    0.7410   42.3210 N.4       1 AM6         0.2358
     40 C3         31.5920   -0.5110   41.4800 C.3       1 AM6        -0.0124
     41 C4         30.8280   -0.0750   40.3670 C.3       1 AM6         0.0648
     42 N5         29.3840    0.2420   40.7710 N.pl3     1 AM6        -0.3047
     43 C6         29.3780    1.4240   41.7860 C.3       1 AM6         0.0648
     44 C2         32.1540    0.3250   43.5220 C.3       1 AM6        -0.0430
     45 H1         16.0563   -3.4015   43.5440 H         1 AM6         0.0533
     46 H2         14.4554   -1.8041   42.4091 H         1 AM6         0.0525
     47 H3         14.1648   -0.0156   40.9867 H         1 AM6         0.2227
     48 H4         13.4871    2.0106   41.0515 H         1 AM6         0.0883
     49 H5         11.4304    3.2657   40.3729 H         1 AM6         0.0659
     50 H6         10.8385    3.4308   37.9628 H         1 AM6         0.0853
     51 H7         17.7586    0.0647   40.2015 H         1 AM6         0.0535
     52 H8         18.3564   -4.1971   43.7665 H         1 AM6         0.0377
     53 H9         19.5990   -2.9103   43.6034 H         1 AM6         0.0377
     54 H10        19.3160   -4.0618   42.2541 H         1 AM6         0.0377
     55 H11        21.0911   -3.7301   38.2544 H         1 AM6         0.0789
     56 H12        22.1725   -1.3914   41.8128 H         1 AM6         0.0789
     57 H13        19.5096   -3.0449   39.9649 H         1 AM6         0.2247
     58 H14        25.5441   -3.6489   38.4975 H         1 AM6         0.2104
     59 H15        15.4199    0.3745   37.0233 H         1 AM6         0.0483
     60 H16        14.9426    1.6328   35.8335 H         1 AM6         0.0483
     61 H17        13.9668    0.1333   35.9951 H         1 AM6         0.0483
     62 H18        26.9170    1.1225   40.8276 H         1 AM6         0.0489
     63 H19        29.4695   -2.4137   39.8483 H         1 AM6         0.0489
     64 H20        27.3424   -3.7824   39.1065 H         1 AM6         0.0503
     65 H21        24.8887   -0.1868   40.0417 H         1 AM6         0.0503
     66 H22        30.1928    1.7989   43.7182 H         1 AM6         0.0834
     67 H23        29.7163    0.0937   43.4150 H         1 AM6         0.0834
     68 H24        31.8599    1.5492   41.8519 H         1 AM6         0.2032
     69 H25        31.1439   -1.3852   41.9750 H         1 AM6         0.0834
     70 H26        32.6330   -0.7380   41.2064 H         1 AM6         0.0834
     71 H27        30.8207   -0.8682   39.6049 H         1 AM6         0.0562
     72 H28        31.2899    0.8314   39.9485 H         1 AM6         0.0562
     73 H29        29.8485    2.3092   41.3332 H         1 AM6         0.0562
     74 H30        28.3442    1.6652   42.0742 H         1 AM6         0.0562
     75 H31        32.1542    1.1520   44.2473 H         1 AM6         0.0778
     76 H32        33.1910    0.0458   43.2840 H         1 AM6         0.0778
     77 H33        31.6309   -0.5411   43.9537 H         1 AM6         0.0778
@<TRIPOS>BOND
     1    1    2 ar 
     2   18    1 ar 
     3    3    2 ar 
     4    3    4 1  
     5   16    3 ar 
     6    4    5 am 
     7    5    6 1  
     8    5   30 2  
     9    6    7 ar 
    10    6   11 ar 
    11    7    8 ar 
    12    8    9 ar 
    13   10    9 ar 
    14   11   10 ar 
    15   10   12 1  
    16   11   31 1  
    17   12   13 1  
    18   12   14 1  
    19   12   15 1  
    20   17   16 ar 
    21   17   18 ar 
    22   27   17 1  
    23   18   19 1  
    24   20   21 ar 
    25   25   20 ar 
    26   21   22 ar 
    27   23   22 ar 
    28   22   26 1  
    29   24   23 ar 
    30   25   24 ar 
    31   29   25 1  
    32   26   27 am 
    33   27   28 2  
    34   36   29 1  
    35   33   32 ar 
    36   32   37 ar 
    37   33   34 ar 
    38   42   33 1  
    39   34   35 ar 
    40   35   36 ar 
    41   37   36 ar 
    42   39   38 1  
    43   38   43 1  
    44   40   39 1  
    45   39   44 1  
    46   41   40 1  
    47   41   42 1  
    48   42   43 1  
    49    1   45 1  
    50    2   46 1  
    51    4   47 1  
    52    7   48 1  
    53    8   49 1  
    54    9   50 1  
    55   16   51 1  
    56   19   52 1  
    57   19   53 1  
    58   19   54 1  
    59   21   55 1  
    60   23   56 1  
    61   26   57 1  
    62   29   58 1  
    63   31   59 1  
    64   31   60 1  
    65   31   61 1  
    66   32   62 1  
    67   34   63 1  
    68   35   64 1  
    69   37   65 1  
    70   38   66 1  
    71   38   67 1  
    72   39   68 1  
    73   40   69 1  
    74   40   70 1  
    75   41   71 1  
    76   41   72 1  
    77   43   73 1  
    78   43   74 1  
    79   44   75 1  
    80   44   76 1  
    81   44   77 1  
@<TRIPOS>SUBSTRUCTURE
     1 AM6         1

