### 
### Created by X-TOOL on Mon Sep 10 21:12:57 2018
### 

@<TRIPOS>MOLECULE
3bz3_ligand
   55    58     1     0     0
SMALL
GAST_HUCK


@<TRIPOS>ATOM
      1 C35         7.2060    1.7490    8.4340 C.3       1 YAM         0.0470
      2 C34         6.4770    4.4940   10.5380 C.3       1 YAM         0.0794
      3 N2         14.2790    3.8010    6.7730 N.ar      1 YAM        -0.2282
      4 C7         13.9140    4.9040    7.4010 C.ar      1 YAM         0.0368
      5 C6         12.5840    5.2750    7.4520 C.ar      1 YAM         0.0965
      6 C13         7.9820    4.1550    6.2180 C.ar      1 YAM         0.0267
      7 C20         7.0960    3.9320    7.2730 C.ar      1 YAM         0.1410
      8 C21        11.7980   -0.2350    2.6010 C.ar      1 YAM         0.0648
      9 C8         12.2360    6.5400    8.2100 C.3       1 YAM         0.3606
     10 C18         6.2440    5.3390    5.0870 C.ar      1 YAM        -0.0599
     11 C16        11.7640    1.0410    4.6440 C.ar      1 YAM        -0.0524
     12 C19         5.4100    5.0740    6.1560 C.ar      1 YAM        -0.0178
     13 O33         8.7670    5.0540    9.2680 O.2       1 YAM        -0.1495
     14 S31         8.0250    3.9480    9.7600 S.o2      1 YAM         0.0614
     15 O32         8.6220    2.8850   10.4820 O.2       1 YAM        -0.1495
     16 N30         7.4760    3.1920    8.3950 N.am      1 YAM        -0.1662
     17 C17         7.5450    4.8560    5.1080 C.ar      1 YAM        -0.0548
     18 N1          5.8430    4.3860    7.2030 N.ar      1 YAM        -0.2978
     19 C12         9.3970    3.6440    6.2570 C.3       1 YAM         0.0716
     20 N10        10.2950    4.6680    6.8030 N.pl3     1 YAM        -0.2752
     21 C5         11.6570    4.4380    6.7960 C.ar      1 YAM         0.1506
     22 F29        11.3120    6.2820    9.2180 F         1 YAM        -0.2427
     23 F28        11.7330    7.5280    7.3710 F         1 YAM        -0.2427
     24 F27        13.3970    7.0620    8.7780 F         1 YAM        -0.2427
     25 N4         12.1030    3.3470    6.1710 N.ar      1 YAM        -0.2087
     26 C3         13.3890    3.0320    6.1780 C.ar      1 YAM         0.2256
     27 N9         13.8880    1.9310    5.5100 N.pl3     1 YAM        -0.2364
     28 C11        13.1490    1.1950    4.5730 C.ar      1 YAM         0.0560
     29 C14        13.8490    0.6270    3.5140 C.ar      1 YAM        -0.0419
     30 C22        13.1810   -0.0890    2.5510 C.ar      1 YAM        -0.0067
     31 C23        13.6520   -0.8140    1.3110 C.3       1 YAM         0.0702
     32 C15        11.0890    0.3320    3.6640 C.ar      1 YAM        -0.0516
     33 N25        11.3590   -0.9520    1.4890 N.am      1 YAM        -0.2395
     34 C24        12.3740   -1.3540    0.7050 C.2       1 YAM         0.2072
     35 O26        12.2760   -2.0020   -0.3200 O.2       1 YAM        -0.3895
     36 H1          6.8509    1.4157    7.4477 H         1 YAM         0.0524
     37 H2          6.4355    1.5404    9.1908 H         1 YAM         0.0524
     38 H3          8.1294    1.2100    8.6926 H         1 YAM         0.0524
     39 H4          6.0429    5.3177    9.9522 H         1 YAM         0.0488
     40 H5          6.6833    4.8409   11.5613 H         1 YAM         0.0488
     41 H6          5.7674    3.6542   10.5716 H         1 YAM         0.0488
     42 H7         14.6637    5.5231    7.8802 H         1 YAM         0.1099
     43 H8          5.8868    5.9169    4.2424 H         1 YAM         0.0543
     44 H9         11.2140    1.4780    5.4695 H         1 YAM         0.0472
     45 H10         4.3875    5.4336    6.1383 H         1 YAM         0.0703
     46 H11         8.2085    5.0254    4.2677 H         1 YAM         0.0616
     47 H12         9.7180    3.3870    5.2367 H         1 YAM         0.0690
     48 H13         9.4412    2.7470    6.8922 H         1 YAM         0.0690
     49 H14         9.9153    5.5455    7.1859 H         1 YAM         0.2002
     50 H15        14.8539    1.6350    5.7107 H         1 YAM         0.2274
     51 H16        14.9241    0.7496    3.4485 H         1 YAM         0.0462
     52 H17        14.3389   -1.6325    1.5721 H         1 YAM         0.0646
     53 H18        14.1529   -0.1219    0.6182 H         1 YAM         0.0646
     54 H19        10.0126    0.2170    3.7213 H         1 YAM         0.0470
     55 H20        10.3970   -1.1455    1.2963 H         1 YAM         0.2234
@<TRIPOS>BOND
     1   16    1 1  
     2   14    2 1  
     3    3    4 ar 
     4   26    3 ar 
     5    4    5 ar 
     6    5    9 1  
     7   21    5 ar 
     8    6    7 ar 
     9    6   17 ar 
    10   19    6 1  
    11    7   16 1  
    12    7   18 ar 
    13    8   30 ar 
    14   32    8 ar 
    15    8   33 1  
    16    9   22 1  
    17    9   23 1  
    18    9   24 1  
    19   10   12 ar 
    20   17   10 ar 
    21   28   11 ar 
    22   11   32 ar 
    23   18   12 ar 
    24   14   13 2  
    25   14   15 2  
    26   16   14 am 
    27   20   19 1  
    28   21   20 1  
    29   25   21 ar 
    30   26   25 ar 
    31   27   26 1  
    32   27   28 1  
    33   28   29 ar 
    34   29   30 ar 
    35   30   31 1  
    36   31   34 1  
    37   33   34 am 
    38   34   35 2  
    39    1   36 1  
    40    1   37 1  
    41    1   38 1  
    42    2   39 1  
    43    2   40 1  
    44    2   41 1  
    45    4   42 1  
    46   10   43 1  
    47   11   44 1  
    48   12   45 1  
    49   17   46 1  
    50   19   47 1  
    51   19   48 1  
    52   20   49 1  
    53   27   50 1  
    54   29   51 1  
    55   31   52 1  
    56   31   53 1  
    57   32   54 1  
    58   33   55 1  
@<TRIPOS>SUBSTRUCTURE
     1 YAM         1

