### 
### Created by X-TOOL on Mon Sep 10 21:12:58 2018
### 

@<TRIPOS>MOLECULE
3bzf_ligand
  151   151     1     0     0
SMALL
GAST_HUCK


@<TRIPOS>ATOM
      1 N          27.8370  -11.0130   10.9390 N.4       1 VAL         0.2381
      2 CA         26.7070  -11.9700   11.0560 C.3       1 VAL         0.0673
      3 C          25.4360  -11.3170   11.6140 C.2       1 VAL         0.2270
      4 O          25.4940  -10.2060   12.2010 O.2       1 VAL        -0.3907
      5 CB         27.0790  -13.2210   12.0210 C.3       1 VAL         0.0139
      6 CG1        28.3790  -13.8680   11.6180 C.3       1 VAL        -0.0553
      7 CG2        27.2870  -12.7170   13.4660 C.3       1 VAL        -0.0553
      8 N          24.3290  -12.0590   11.5130 N.am      1 MET        -0.2610
      9 CA         23.0470  -11.5820   12.0390 C.3       1 MET         0.1318
     10 C          22.8340  -11.9550   13.4750 C.2       1 MET         0.2039
     11 O          23.4780  -12.8500   14.0080 O.2       1 MET        -0.3944
     12 CB         21.8910  -12.1330   11.1910 C.3       1 MET        -0.0034
     13 CG         21.7650  -13.6040   11.1710 C.3       1 MET        -0.0024
     14 SD         20.1900  -14.3520   10.6360 S.3       1 MET        -0.1639
     15 CE         20.4750  -14.4430    9.0150 C.3       1 MET        -0.0181
     16 N          21.8900  -11.2930   14.1000 N.am      1 ALA        -0.2640
     17 CA         21.5690  -11.6110   15.4570 C.3       1 ALA         0.1284
     18 C          21.3110  -13.1080   15.6460 C.2       1 ALA         0.2061
     19 O          20.5250  -13.6460   14.9660 O.2       1 ALA        -0.3942
     20 CB         20.3960  -10.7890   15.9170 C.3       1 ALA        -0.0244
     21 N          21.9870  -13.7800   16.5740 N.am      1 PRO        -0.2498
     22 CA         21.8700  -15.2530   16.8630 C.3       1 PRO         0.1338
     23 C          20.6010  -15.7990   17.5750 C.2       1 PRO         0.2041
     24 O          20.4270  -17.0110   17.5700 O.2       1 PRO        -0.3944
     25 CB         23.0770  -15.5210   17.8190 C.3       1 PRO        -0.0104
     26 CG         23.9990  -14.3230   17.5700 C.3       1 PRO        -0.0281
     27 CD         23.0680  -13.1760   17.3660 C.3       1 PRO         0.0369
     28 N          19.7900  -14.9310   18.1440 N.am      1 ARG        -0.2637
     29 CA         18.6320  -15.3390   18.8140 C.3       1 ARG         0.1311
     30 C          17.4280  -14.3980   18.4890 C.2       1 ARG         0.2039
     31 O          17.4340  -13.2640   18.8080 O.2       1 ARG        -0.3944
     32 CB         18.8810  -15.4820   20.3480 C.3       1 ARG        -0.0092
     33 CG         17.6490  -15.4180   21.1730 C.3       1 ARG        -0.0156
     34 CD         17.7050  -15.6160   22.7410 C.3       1 ARG         0.0627
     35 NE         17.5650  -17.0490   23.0060 N.pl3     1 ARG        -0.2723
     36 CZ         16.5840  -17.6670   23.6350 C.cat     1 ARG         0.2882
     37 NH1        15.6300  -16.9920   24.1620 N.pl3     1 ARG        -0.2849
     38 NH2        16.6370  -18.9890   23.8490 N.pl3     1 ARG        -0.2849
     39 N          16.3790  -14.9640   17.9150 N.am      1 ALA        -0.2640
     40 CA         15.1770  -14.2670   17.5750 C.3       1 ALA         0.1282
     41 C          14.0480  -14.5690   18.5940 C.2       1 ALA         0.2036
     42 O          13.5930  -15.6600   18.6880 O.2       1 ALA        -0.3944
     43 CB         14.7380  -14.6050   16.1910 C.3       1 ALA        -0.0244
     44 N          13.5730  -13.5530   19.2930 N.am      1 LEU        -0.2637
     45 CA         12.4540  -13.6490   20.1870 C.3       1 LEU         0.1312
     46 C          11.3000  -14.3990   19.6920 C.2       1 LEU         0.2039
     47 O          10.9670  -14.3080   18.5560 O.2       1 LEU        -0.3944
     48 CB         11.8880  -12.2650   20.5570 C.3       1 LEU        -0.0101
     49 CG         12.7760  -11.3540   21.3500 C.3       1 LEU        -0.0425
     50 CD1        11.9210  -10.2000   21.8800 C.3       1 LEU        -0.0625
     51 CD2        13.4120  -12.0200   22.4560 C.3       1 LEU        -0.0625
     52 N          10.6820  -15.1160   20.6040 N.am      1 LEU        -0.2637
     53 CA          9.3820  -15.7860   20.4010 C.3       1 LEU         0.1312
     54 C           8.3810  -14.7690   21.0000 C.2       1 LEU         0.2033
     55 O           8.4560  -14.4070   22.1580 O.2       1 LEU        -0.3944
     56 CB          9.3280  -17.0690   21.2090 C.3       1 LEU        -0.0101
     57 CG         10.0200  -18.3250   20.6440 C.3       1 LEU        -0.0425
     58 CD1        10.3210  -19.4640   21.6690 C.3       1 LEU        -0.0625
     59 CD2         9.1530  -18.8120   19.5150 C.3       1 LEU        -0.0625
     60 N           7.4730  -14.2790   20.1990 N.am      1 LEU        -0.2695
     61 CA          6.5730  -13.2980   20.6370 C.3       1 LEU         0.0946
     62 C           5.3700  -13.9660   21.3850 C.2       1 LEU         0.0601
     63 O           4.5360  -13.1930   21.8480 O.co2     1 LEU        -0.5666
     64 CB          6.1110  -12.5140   19.4380 C.3       1 LEU        -0.0156
     65 CG          7.1760  -11.7900   18.7000 C.3       1 LEU        -0.0431
     66 CD1         6.5540  -11.2760   17.3940 C.3       1 LEU        -0.0625
     67 CD2         7.8970  -10.7230   19.6250 C.3       1 LEU        -0.0625
     68 OXT         5.2560  -15.2340   21.4450 O.co2     1 LEU        -0.5666
     69 H1         27.5712  -10.2516   10.3343 H         1 VAL         0.2015
     70 H2         28.6387  -11.4855   10.5516 H         1 VAL         0.2015
     71 H3         28.0679  -10.6525   11.8516 H         1 VAL         0.2015
     72 H4         26.4886  -12.3544   10.0488 H         1 VAL         0.1101
     73 H5         26.2650  -13.9601   11.9863 H         1 VAL         0.0376
     74 H6         28.5952  -14.7085   12.2938 H         1 VAL         0.0236
     75 H7         29.1913  -13.1289   11.6806 H         1 VAL         0.0236
     76 H8         28.2994  -14.2389   10.5855 H         1 VAL         0.0236
     77 H9         26.3663  -12.2308   13.8208 H         1 VAL         0.0236
     78 H10        28.1150  -11.9932   13.4863 H         1 VAL         0.0236
     79 H11        27.5277  -13.5680   14.1201 H         1 VAL         0.0236
     80 H12        24.3763  -12.9548   11.0710 H         1 MET         0.1884
     81 H13        23.0404  -10.4843   11.9683 H         1 MET         0.0800
     82 H14        22.0365  -11.7909   10.1557 H         1 MET         0.0320
     83 H15        20.9523  -11.7174   11.5861 H         1 MET         0.0320
     84 H16        21.9579  -13.9575   12.1946 H         1 MET         0.0378
     85 H17        22.5472  -13.9850   10.4980 H         1 MET         0.0378
     86 H18        19.6014  -14.8849    8.5134 H         1 MET         0.0340
     87 H19        21.3592  -15.0715    8.8328 H         1 MET         0.0340
     88 H20        20.6545  -13.4334    8.6170 H         1 MET         0.0340
     89 H21        21.3939  -10.5648   13.6271 H         1 ALA         0.1883
     90 H22        22.4351  -11.3423   16.0796 H         1 ALA         0.0797
     91 H23        20.1582  -11.0416   16.9609 H         1 ALA         0.0277
     92 H24        19.5252  -11.0041   15.2802 H         1 ALA         0.0277
     93 H25        20.6469   -9.7203   15.8464 H         1 ALA         0.0277
     94 H26        21.9849  -15.8026   15.9171 H         1 PRO         0.0802
     95 H27        23.5802  -16.4650   17.5628 H         1 PRO         0.0313
     96 H28        22.7485  -15.5536   18.8683 H         1 PRO         0.0313
     97 H29        24.6172  -14.4867   16.6750 H         1 PRO         0.0287
     98 H30        24.6506  -14.1459   18.4383 H         1 PRO         0.0287
     99 H31        22.6914  -12.7942   18.3264 H         1 PRO         0.0524
    100 H32        23.5574  -12.3603   16.8136 H         1 PRO         0.0524
    101 H33        20.0076  -13.9561   18.0958 H         1 ARG         0.1883
    102 H34        18.3713  -16.3385   18.4358 H         1 ARG         0.0800
    103 H35        19.5515  -14.6699   20.6658 H         1 ARG         0.0313
    104 H36        19.3677  -16.4516   20.5296 H         1 ARG         0.0313
    105 H37        16.9722  -16.1932   20.7844 H         1 ARG         0.0301
    106 H38        17.2079  -14.4254   20.9992 H         1 ARG         0.0301
    107 H39        16.8833  -15.0631   23.2195 H         1 ARG         0.0689
    108 H40        18.6673  -15.2536   23.1317 H         1 ARG         0.0689
    109 H41        18.3267  -17.6488   22.6583 H         1 ARG         0.2642
    110 H42        14.8654  -17.4775   24.6525 H         1 ARG         0.2615
    111 H43        15.6281  -15.9642   24.0949 H         1 ARG         0.2615
    112 H44        17.3961  -19.5479   23.4338 H         1 ARG         0.2615
    113 H45        15.9187  -19.4461   24.4286 H         1 ARG         0.2615
    114 H46        16.4296  -15.9405   17.7056 H         1 ALA         0.1883
    115 H47        15.3888  -13.1882   17.6116 H         1 ALA         0.0797
    116 H48        13.8138  -14.0570   15.9554 H         1 ALA         0.0277
    117 H49        14.5512  -15.6866   16.1194 H         1 ALA         0.0277
    118 H50        15.5250  -14.3207   15.4770 H         1 ALA         0.0277
    119 H51        14.0199  -12.6640   19.1932 H         1 LEU         0.1883
    120 H52        12.8186  -14.1426   21.0999 H         1 LEU         0.0800
    121 H53        10.9717  -12.4276   21.1435 H         1 LEU         0.0315
    122 H54        11.6362  -11.7484   19.6191 H         1 LEU         0.0315
    123 H55        13.5574  -10.9560   20.6859 H         1 LEU         0.0298
    124 H56        12.5516   -9.5159   22.4668 H         1 LEU         0.0232
    125 H57        11.1206  -10.6003   22.5196 H         1 LEU         0.0232
    126 H58        11.4765   -9.6545   21.0345 H         1 LEU         0.0232
    127 H59        14.0275  -12.8502   22.0792 H         1 LEU         0.0232
    128 H60        12.6438  -12.4133   23.1381 H         1 LEU         0.0232
    129 H61        14.0508  -11.3056   22.9960 H         1 LEU         0.0232
    130 H62        11.1224  -15.2144   21.4964 H         1 LEU         0.1883
    131 H63         9.1838  -15.9872   19.3379 H         1 LEU         0.0800
    132 H64         8.2662  -17.3193   21.3499 H         1 LEU         0.0315
    133 H65         9.7876  -16.8570   22.1857 H         1 LEU         0.0315
    134 H66        10.9896  -18.0119   20.2295 H         1 LEU         0.0298
    135 H67        10.8122  -20.3017   21.1524 H         1 LEU         0.0232
    136 H68         9.3789  -19.8118   22.1178 H         1 LEU         0.0232
    137 H69        10.9839  -19.0809   22.4587 H         1 LEU         0.0232
    138 H70         8.9630  -17.9846   18.8155 H         1 LEU         0.0232
    139 H71         8.1973  -19.1781   19.9182 H         1 LEU         0.0232
    140 H72         9.6648  -19.6293   18.9858 H         1 LEU         0.0232
    141 H73         7.4191  -14.6096   19.2568 H         1 LEU         0.1875
    142 H74         7.0864  -12.6186   21.3333 H         1 LEU         0.0726
    143 H75         5.3728  -11.7739   19.7806 H         1 LEU         0.0308
    144 H76         5.6306  -13.2147   18.7392 H         1 LEU         0.0308
    145 H77         7.9496  -12.5195   18.4184 H         1 LEU         0.0297
    146 H78         7.3144  -10.7311   16.8153 H         1 LEU         0.0232
    147 H79         5.7174  -10.6010   17.6271 H         1 LEU         0.0232
    148 H80         6.1846  -12.1275   16.8037 H         1 LEU         0.0232
    149 H81         8.2945  -11.2231   20.5205 H         1 LEU         0.0232
    150 H82         7.1738   -9.9511   19.9268 H         1 LEU         0.0232
    151 H83         8.7229  -10.2546   19.0696 H         1 LEU         0.0232
@<TRIPOS>BOND
     1    1    2 1  
     2    2    3 1  
     3    2    5 1  
     4    3    4 2  
     5    3    8 am 
     6    5    6 1  
     7    5    7 1  
     8    8    9 1  
     9    9   10 1  
    10    9   12 1  
    11   10   11 2  
    12   10   16 am 
    13   12   13 1  
    14   13   14 1  
    15   14   15 1  
    16   16   17 1  
    17   17   18 1  
    18   17   20 1  
    19   18   19 2  
    20   18   21 am 
    21   21   22 1  
    22   21   27 1  
    23   22   23 1  
    24   22   25 1  
    25   23   24 2  
    26   23   28 am 
    27   25   26 1  
    28   26   27 1  
    29   28   29 1  
    30   29   30 1  
    31   29   32 1  
    32   30   31 2  
    33   30   39 am 
    34   32   33 1  
    35   33   34 1  
    36   34   35 1  
    37   35   36 ar 
    38   36   37 ar 
    39   36   38 ar 
    40   39   40 1  
    41   40   41 1  
    42   40   43 1  
    43   41   42 2  
    44   41   44 am 
    45   44   45 1  
    46   45   46 1  
    47   45   48 1  
    48   46   47 2  
    49   46   52 am 
    50   48   49 1  
    51   49   50 1  
    52   49   51 1  
    53   52   53 1  
    54   53   54 1  
    55   53   56 1  
    56   54   55 2  
    57   54   60 am 
    58   56   57 1  
    59   57   58 1  
    60   57   59 1  
    61   60   61 1  
    62   61   62 1  
    63   61   64 1  
    64   62   63 ar 
    65   62   68 ar 
    66   64   65 1  
    67   65   66 1  
    68   65   67 1  
    69    1   69 1  
    70    1   70 1  
    71    1   71 1  
    72    2   72 1  
    73    5   73 1  
    74    6   74 1  
    75    6   75 1  
    76    6   76 1  
    77    7   77 1  
    78    7   78 1  
    79    7   79 1  
    80    8   80 1  
    81    9   81 1  
    82   12   82 1  
    83   12   83 1  
    84   13   84 1  
    85   13   85 1  
    86   15   86 1  
    87   15   87 1  
    88   15   88 1  
    89   16   89 1  
    90   17   90 1  
    91   20   91 1  
    92   20   92 1  
    93   20   93 1  
    94   22   94 1  
    95   25   95 1  
    96   25   96 1  
    97   26   97 1  
    98   26   98 1  
    99   27   99 1  
   100   27  100 1  
   101   28  101 1  
   102   29  102 1  
   103   32  103 1  
   104   32  104 1  
   105   33  105 1  
   106   33  106 1  
   107   34  107 1  
   108   34  108 1  
   109   35  109 1  
   110   37  110 1  
   111   37  111 1  
   112   38  112 1  
   113   38  113 1  
   114   39  114 1  
   115   40  115 1  
   116   43  116 1  
   117   43  117 1  
   118   43  118 1  
   119   44  119 1  
   120   45  120 1  
   121   48  121 1  
   122   48  122 1  
   123   49  123 1  
   124   50  124 1  
   125   50  125 1  
   126   50  126 1  
   127   51  127 1  
   128   51  128 1  
   129   51  129 1  
   130   52  130 1  
   131   53  131 1  
   132   56  132 1  
   133   56  133 1  
   134   57  134 1  
   135   58  135 1  
   136   58  136 1  
   137   58  137 1  
   138   59  138 1  
   139   59  139 1  
   140   59  140 1  
   141   60  141 1  
   142   61  142 1  
   143   64  143 1  
   144   64  144 1  
   145   65  145 1  
   146   66  146 1  
   147   66  147 1  
   148   66  148 1  
   149   67  149 1  
   150   67  150 1  
   151   67  151 1  
@<TRIPOS>SUBSTRUCTURE
     1 VAL         1

