### 
### Created by X-TOOL on Mon Sep 10 21:12:58 2018
### 

@<TRIPOS>MOLECULE
3c0z_ligand
   19    18     1     0     0
SMALL
GAST_HUCK


@<TRIPOS>ATOM
      1 O1        -35.4870  -25.8380  -15.6880 O.3       1 SHH        -0.2717
      2 O2        -37.4870  -27.2050  -17.6530 O.2       1 SHH        -0.3970
      3 N1        -36.2040  -25.6400  -16.8410 N.am      1 SHH        -0.1642
      4 C1        -36.4150  -26.6370  -17.6800 C.2       1 SHH         0.1988
      5 C2        -35.2990  -27.0090  -18.6420 C.3       1 SHH         0.0389
      6 C3        -35.5260  -28.3770  -19.2790 C.3       1 SHH        -0.0364
      7 C4        -34.4050  -28.7640  -20.2420 C.3       1 SHH        -0.0538
      8 C5        -34.4850  -30.2550  -20.5500 C.3       1 SHH        -0.0651
      9 H1        -35.9217  -26.4930  -15.1547 H         1 SHH         0.2490
     10 H2        -36.5699  -24.7325  -17.0475 H         1 SHH         0.2216
     11 H3        -34.3469  -27.0272  -18.0915 H         1 SHH         0.0502
     12 H4        -35.2483  -26.2509  -19.4374 H         1 SHH         0.0502
     13 H5        -36.4760  -28.3555  -19.8331 H         1 SHH         0.0289
     14 H6        -35.5835  -29.1328  -18.4818 H         1 SHH         0.0289
     15 H7        -33.4323  -28.5375  -19.7810 H         1 SHH         0.0264
     16 H8        -34.5107  -28.1916  -21.1753 H         1 SHH         0.0264
     17 H9        -33.6766  -30.5300  -21.2434 H         1 SHH         0.0230
     18 H10       -35.4572  -30.4824  -21.0116 H         1 SHH         0.0230
     19 H11       -34.3788  -30.8283  -19.6173 H         1 SHH         0.0230
@<TRIPOS>BOND
     1    3    1 1  
     2    4    2 2  
     3    3    4 am 
     4    4    5 1  
     5    5    6 1  
     6    6    7 1  
     7    7    8 1  
     8    1    9 1  
     9    3   10 1  
    10    5   11 1  
    11    5   12 1  
    12    6   13 1  
    13    6   14 1  
    14    7   15 1  
    15    7   16 1  
    16    8   17 1  
    17    8   18 1  
    18    8   19 1  
@<TRIPOS>SUBSTRUCTURE
     1 SHH         1

