### 
### Created by X-TOOL on Mon Sep 10 21:12:58 2018
### 

@<TRIPOS>MOLECULE
3c10_ligand
   44    44     1     0     0
SMALL
GAST_HUCK


@<TRIPOS>ATOM
      1 O1         -5.3490   -2.0610    5.8180 O.3       1 TSN        -0.2729
      2 O2         -3.2780   -3.5440    7.3150 O.2       1 TSN        -0.3988
      3 O3         -5.6670   -9.8750   10.5180 O.2       1 TSN        -0.3812
      4 N1         -4.7210   -1.9000    7.0540 N.am      1 TSN        -0.1684
      5 N2         -1.2240  -10.2840   15.1360 N.pl3     1 TSN        -0.3118
      6 C1         -4.3220   -9.3450   12.3980 C.ar      1 TSN         0.0217
      7 C2         -3.5250  -10.4880   12.2250 C.ar      1 TSN        -0.0543
      8 C3         -2.5020  -10.7850   13.1300 C.ar      1 TSN        -0.0377
      9 C4         -2.2610   -9.9570   14.2350 C.ar      1 TSN         0.0456
     10 C5         -3.0560   -8.8130   14.4220 C.ar      1 TSN        -0.0377
     11 C6         -4.0780   -8.5090   13.5040 C.ar      1 TSN        -0.0543
     12 C7         -5.4110   -9.0540   11.3890 C.2       1 TSN         0.1385
     13 C8         -6.1870   -7.7610   11.3830 C.3       1 TSN         0.0582
     14 C9         -5.5510   -6.8700   10.3210 C.2       1 TSN        -0.0497
     15 C10        -5.7630   -5.5500   10.1490 C.2       1 TSN        -0.0439
     16 C11        -5.0270   -4.8780    9.0490 C.2       1 TSN        -0.0556
     17 C12        -5.0670   -3.5590    8.8200 C.2       1 TSN        -0.0023
     18 C13        -4.2970   -2.9910    7.6950 C.2       1 TSN         0.2026
     19 C14        -7.6670   -8.0550   11.1070 C.3       1 TSN        -0.0365
     20 C15        -6.7210   -4.7880   11.0330 C.3       1 TSN        -0.0375
     21 C17         0.1000   -9.6750   15.0130 C.3       1 TSN         0.0163
     22 C16        -1.4550  -11.2580   16.1980 C.3       1 TSN         0.0163
     23 H1         -5.5973   -1.2098    5.4769 H         1 TSN         0.2489
     24 H2         -4.5921   -0.9905    7.4491 H         1 TSN         0.2198
     25 H3         -3.7046  -11.1458   11.3823 H         1 TSN         0.0638
     26 H4         -1.8884  -11.6652   12.9756 H         1 TSN         0.0531
     27 H5         -2.8817   -8.1650   15.2734 H         1 TSN         0.0531
     28 H6         -4.6837   -7.6219   13.6499 H         1 TSN         0.0638
     29 H7         -6.1030   -7.2701   12.3638 H         1 TSN         0.0699
     30 H8         -4.8558   -7.3483    9.6326 H         1 TSN         0.0697
     31 H9         -4.4183   -5.4941    8.3889 H         1 TSN         0.0698
     32 H10        -5.6634   -2.9096    9.4592 H         1 TSN         0.0537
     33 H11        -8.0676   -8.6990   11.9037 H         1 TSN         0.0283
     34 H12        -7.7648   -8.5666   10.1381 H         1 TSN         0.0283
     35 H13        -8.2299   -7.1103   11.0813 H         1 TSN         0.0283
     36 H14        -7.1551   -5.4713   11.7778 H         1 TSN         0.0349
     37 H15        -7.5249   -4.3580   10.4175 H         1 TSN         0.0349
     38 H16        -6.1810   -3.9797   11.5478 H         1 TSN         0.0349
     39 H17         0.7566  -10.0617   15.8063 H         1 TSN         0.0480
     40 H18         0.0117   -8.5829   15.1101 H         1 TSN         0.0480
     41 H19         0.5276   -9.9224   14.0302 H         1 TSN         0.0480
     42 H20        -2.4945  -11.6145   16.1488 H         1 TSN         0.0480
     43 H21        -1.2755  -10.7850   17.1748 H         1 TSN         0.0480
     44 H22        -0.7692  -12.1086   16.0709 H         1 TSN         0.0480
@<TRIPOS>BOND
     1    4    1 1  
     2   18    2 2  
     3   12    3 2  
     4   18    4 am 
     5    9    5 1  
     6    5   21 1  
     7    5   22 1  
     8    6    7 ar 
     9    6   11 ar 
    10   12    6 1  
    11    7    8 ar 
    12    8    9 ar 
    13   10    9 ar 
    14   11   10 ar 
    15   13   12 1  
    16   14   13 1  
    17   13   19 1  
    18   15   14 2  
    19   16   15 1  
    20   15   20 1  
    21   17   16 2  
    22   17   18 1  
    23    1   23 1  
    24    4   24 1  
    25    7   25 1  
    26    8   26 1  
    27   10   27 1  
    28   11   28 1  
    29   13   29 1  
    30   14   30 1  
    31   16   31 1  
    32   17   32 1  
    33   19   33 1  
    34   19   34 1  
    35   19   35 1  
    36   20   36 1  
    37   20   37 1  
    38   20   38 1  
    39   21   39 1  
    40   21   40 1  
    41   21   41 1  
    42   22   42 1  
    43   22   43 1  
    44   22   44 1  
@<TRIPOS>SUBSTRUCTURE
     1 TSN         1

