### 
### Created by X-TOOL on Mon Sep 10 21:12:58 2018
### 

@<TRIPOS>MOLECULE
3c1k_ligand
   72    74     1     0     0
SMALL
GAST_HUCK


@<TRIPOS>ATOM
      1 C1         22.0550  -15.9300   25.2250 C.ar      1 T15        -0.0685
      2 C2         20.9050  -16.6570   25.5380 C.ar      1 T15        -0.0587
      3 C3         19.7870  -16.0110   26.0790 C.ar      1 T15        -0.0210
      4 C4         19.8140  -14.6410   26.3070 C.ar      1 T15        -0.0587
      5 C5         20.9650  -13.9140   25.9970 C.ar      1 T15        -0.0685
      6 C6         22.0830  -14.5580   25.4550 C.ar      1 T15        -0.0687
      7 C7         18.5680  -16.8090   26.4500 C.3       1 T15         0.1128
      8 S8         17.6640  -17.4340   25.0350 S.o2      1 T15         0.0477
      9 N9         17.0810  -16.1830   24.1820 N.2       1 T15        -0.1863
     10 C10        17.2530  -14.3100   22.6990 C.2       1 T15         0.2788
     11 N11        18.0610  -13.6730   21.7500 N.am      1 T15        -0.1980
     12 C12        19.2830  -14.0830   21.3950 C.2       1 T15         0.0382
     13 C13        19.8440  -15.2090   21.9830 C.2       1 T15        -0.0766
     14 C14        19.1220  -15.9120   22.9400 C.3       1 T15         0.0198
     15 O15        16.1300  -13.8740   22.9590 O.2       1 T15        -0.3560
     16 C16        20.0230  -13.3520   20.3450 C.3       1 T15        -0.0121
     17 C17        17.5590  -12.4570   21.0970 C.3       1 T15         0.1455
     18 C18        16.2630  -12.7260   20.4460 C.2       1 T15         0.2067
     19 C19        17.8450  -15.4900   23.3030 C.2       1 T15         0.1360
     20 N20        15.2740  -11.9350   20.8680 N.am      1 T15        -0.2740
     21 C22        12.8980  -12.2040   21.3910 C.2       1 T15         0.0753
     22 N23        12.5000  -13.2800   22.0890 N.pl3     1 T15        -0.2362
     23 C24        11.5410  -12.8860   23.0000 C.2       1 T15         0.0879
     24 N25        11.3760  -11.5340   22.8490 N.2       1 T15        -0.3385
     25 C26        12.1970  -11.1180   21.8500 C.2       1 T15        -0.0110
     26 C28        12.9950  -14.6520   21.9140 C.3       1 T15         0.1444
     27 C29        12.3030  -15.3840   20.7710 C.2       1 T15         0.2074
     28 N30        12.4130  -16.7130   20.8780 N.am      1 T15        -0.2794
     29 C31        11.8650  -17.5720   19.8440 C.3       1 T15         0.0447
     30 C32        12.4320  -17.1660   18.4560 C.3       1 T15        -0.0396
     31 C33        10.3270  -17.4480   19.9020 C.3       1 T15        -0.0396
     32 C34        12.2480  -19.0410   20.0940 C.3       1 T15        -0.0396
     33 O35        11.7760  -14.8150   19.8290 O.2       1 T15        -0.3939
     34 O36        16.1320  -13.6700   19.6920 O.2       1 T15        -0.3941
     35 O37        16.5180  -18.1240   25.5420 O.2       1 T15        -0.1589
     36 O38        18.5610  -18.1490   24.1700 O.2       1 T15        -0.1589
     37 C8         12.2880   -9.7380   21.3810 C.3       1 T15        -0.0439
     38 C9         13.9330  -12.1840   20.3020 C.3       1 T15         0.0802
     39 H1         22.9201  -16.4309   24.8057 H         1 T15         0.0599
     40 H2         20.8776  -17.7262   25.3614 H         1 T15         0.0557
     41 H3         18.9474  -14.1398   26.7227 H         1 T15         0.0557
     42 H4         20.9928  -12.8454   26.1770 H         1 T15         0.0599
     43 H5         22.9723  -13.9870   25.2139 H         1 T15         0.0559
     44 H6         17.8955  -16.1651   27.0358 H         1 T15         0.0675
     45 H7         18.8855  -17.6637   27.0653 H         1 T15         0.0675
     46 H8         20.8416  -15.5385   21.6965 H         1 T15         0.0102
     47 H9         19.7284  -15.9118   23.8577 H         1 T15         0.0584
     48 H10        19.0212  -16.9420   22.5673 H         1 T15         0.0584
     49 H11        21.0018  -13.8285   20.1870 H         1 T15         0.0410
     50 H12        20.1699  -12.3081   20.6591 H         1 T15         0.0410
     51 H13        19.4482  -13.3754   19.4074 H         1 T15         0.0410
     52 H14        18.2843  -12.1257   20.3393 H         1 T15         0.0839
     53 H15        17.4296  -11.6667   21.8511 H         1 T15         0.0839
     54 H16        15.4337  -11.2081   21.5359 H         1 T15         0.1875
     55 H17        11.0151  -13.5279   23.7052 H         1 T15         0.1134
     56 H18        12.8219  -15.2104   22.8458 H         1 T15         0.0862
     57 H19        14.0742  -14.6130   21.7050 H         1 T15         0.0862
     58 H20        12.8726  -17.1146   21.6701 H         1 T15         0.1858
     59 H21        12.0102  -17.8231   17.6812 H         1 T15         0.0254
     60 H22        13.5275  -17.2651   18.4641 H         1 T15         0.0254
     61 H23        12.1598  -16.1224   18.2397 H         1 T15         0.0254
     62 H24         9.8781  -18.0886   19.1286 H         1 T15         0.0254
     63 H25        10.0365  -16.4018   19.7255 H         1 T15         0.0254
     64 H26         9.9706  -17.7653   20.8931 H         1 T15         0.0254
     65 H27        11.8223  -19.6712   19.2993 H         1 T15         0.0254
     66 H28        11.8519  -19.3625   21.0685 H         1 T15         0.0254
     67 H29        13.3436  -19.1396   20.0928 H         1 T15         0.0254
     68 H30        11.5931   -9.1087   21.9564 H         1 T15         0.0310
     69 H31        12.0238   -9.6951   20.3141 H         1 T15         0.0310
     70 H32        13.3156   -9.3707   21.5193 H         1 T15         0.0310
     71 H33        13.9329  -13.1547   19.7846 H         1 T15         0.0672
     72 H34        13.6888  -11.3863   19.5851 H         1 T15         0.0672
@<TRIPOS>BOND
     1    2    1 ar 
     2    1    6 ar 
     3    3    2 ar 
     4    3    4 ar 
     5    7    3 1  
     6    4    5 ar 
     7    5    6 ar 
     8    8    7 1  
     9    9    8 1  
    10    8   35 2  
    11    8   36 2  
    12   19    9 2  
    13   11   10 am 
    14   10   15 2  
    15   10   19 1  
    16   11   12 1  
    17   17   11 1  
    18   12   13 2  
    19   12   16 1  
    20   13   14 1  
    21   19   14 1  
    22   18   17 1  
    23   20   18 am 
    24   18   34 2  
    25   38   20 1  
    26   21   22 1  
    27   21   25 2  
    28   21   38 1  
    29   22   23 1  
    30   22   26 1  
    31   23   24 2  
    32   24   25 1  
    33   25   37 1  
    34   26   27 1  
    35   27   28 am 
    36   27   33 2  
    37   28   29 1  
    38   29   30 1  
    39   29   31 1  
    40   29   32 1  
    41    1   39 1  
    42    2   40 1  
    43    4   41 1  
    44    5   42 1  
    45    6   43 1  
    46    7   44 1  
    47    7   45 1  
    48   13   46 1  
    49   14   47 1  
    50   14   48 1  
    51   16   49 1  
    52   16   50 1  
    53   16   51 1  
    54   17   52 1  
    55   17   53 1  
    56   20   54 1  
    57   23   55 1  
    58   26   56 1  
    59   26   57 1  
    60   28   58 1  
    61   30   59 1  
    62   30   60 1  
    63   30   61 1  
    64   31   62 1  
    65   31   63 1  
    66   31   64 1  
    67   32   65 1  
    68   32   66 1  
    69   32   67 1  
    70   37   68 1  
    71   37   69 1  
    72   37   70 1  
    73   38   71 1  
    74   38   72 1  
@<TRIPOS>SUBSTRUCTURE
     1 T15         1

