### 
### Created by X-TOOL on Sun Sep  9 21:50:54 2018
### 

@<TRIPOS>MOLECULE
3c1n_ligand
   17    16     1     0     0
SMALL
GAST_HUCK


@<TRIPOS>ATOM
      1 N          34.7940    7.1690   25.1310 N.4       1 NON         0.2345
      2 CA         34.1870    8.4520   24.6960 C.3       1 NON         0.0545
      3 C          32.9670    8.6800   25.5520 C.2       1 NON         0.0870
      4 O          31.9100    8.0940   25.3440 O.co2     1 NON        -0.5642
      5 CB         33.8710    8.4910   23.1540 C.3       1 NON         0.1066
      6 OG1        34.8760    9.2560   22.4790 O.3       1 NON        -0.3847
      7 CG2        32.5410    9.1420   22.8630 C.3       1 NON        -0.0320
      8 OXT        33.0310    9.4430   26.5060 O.co2     1 NON        -0.5642
      9 H          34.9754    7.2029   26.1342 H         1 NON         0.2011
     10 H          34.1516    6.4036   24.9262 H         1 NON         0.2011
     11 H          35.6705    7.0220   24.6305 H         1 NON         0.2011
     12 H          34.8980    9.2662   24.8363 H         1 NON         0.1050
     13 H          33.8478    7.4577   22.8078 H         1 NON         0.0667
     14 H          34.6818    9.2787   21.5391 H         1 NON         0.2102
     15 H          32.5523   10.1683   23.2299 H         1 NON         0.0258
     16 H          32.3652    9.1412   21.7873 H         1 NON         0.0258
     17 H          31.7483    8.5850   23.3624 H         1 NON         0.0258
@<TRIPOS>BOND
     1    1    2 1  
     2    2    3 1  
     3    2    5 1  
     4    3    4 ar 
     5    3    8 ar 
     6    5    6 1  
     7    5    7 1  
     8    1    9 1  
     9    1   10 1  
    10    1   11 1  
    11    2   12 1  
    12    5   13 1  
    13    6   14 1  
    14    7   15 1  
    15    7   16 1  
    16    7   17 1  
@<TRIPOS>SUBSTRUCTURE
     1 NON         1

