### 
### Created by X-TOOL on Mon Sep 10 21:12:58 2018
### 

@<TRIPOS>MOLECULE
3c1x_ligand
   68    72     1     0     0
SMALL
GAST_HUCK


@<TRIPOS>ATOM
      1 N14        -0.3370    6.2240   52.3960 N.am      1 CKK        -0.2209
      2 C17        -0.1970    9.8880   52.7960 C.ar      1 CKK         0.1544
      3 C16        -0.3340    8.6370   52.2520 C.ar      1 CKK        -0.0138
      4 C15        -0.1760    7.4850   53.0140 C.ar      1 CKK         0.0563
      5 C19         0.1460    7.6040   54.3940 C.ar      1 CKK        -0.0513
      6 C20         0.2930    8.8940   54.9560 C.ar      1 CKK        -0.0404
      7 C21         0.1090   10.0230   54.1320 C.ar      1 CKK         0.1458
      8 C23        -0.8400   11.6800   55.3780 C.2       1 CKK         0.2226
      9 C12        -0.6790    6.0220   51.1150 C.2       1 CKK         0.3151
     10 C27        -0.4750   12.6030   56.3860 C.2       1 CKK         0.1645
     11 C33         2.9000   11.1190   56.7100 C.3       1 CKK        -0.0258
     12 F1         -1.3010   -1.4800   54.8740 F         1 CKK        -0.1890
     13 C2         -1.3200   -0.5210   53.9730 C.ar      1 CKK         0.1252
     14 C3         -0.2420   -0.4560   53.1420 C.ar      1 CKK        -0.0345
     15 C4         -0.1690    0.5370   52.1600 C.ar      1 CKK        -0.0596
     16 C5         -2.4030    0.3500   53.9310 C.ar      1 CKK        -0.0345
     17 C6         -2.3470    1.3370   52.9470 C.ar      1 CKK        -0.0596
     18 C7         -1.2400    1.4180   52.0620 C.ar      1 CKK        -0.0277
     19 C8         -1.1830    2.4440   51.0350 C.3       1 CKK         0.0736
     20 C9         -0.9900    3.7690   51.6900 C.2       1 CKK         0.2157
     21 O10        -0.8150    3.9800   52.8940 O.2       1 CKK        -0.3839
     22 N11        -0.9530    4.7710   50.7900 N.am      1 CKK        -0.1788
     23 O13        -0.7710    6.8260   50.2270 O.2       1 CKK        -0.3823
     24 F18        -0.3680   10.9600   52.0170 F         1 CKK        -0.1918
     25 O22         0.2170   11.3310   54.5870 O.3       1 CKK        -0.2312
     26 N24        -2.0240   11.2190   55.2410 N.2       1 CKK        -0.2658
     27 C25        -2.9440   11.6500   56.1400 C.2       1 CKK         0.0787
     28 N26        -2.7460   12.4990   57.0980 N.2       1 CKK        -0.1683
     29 N28        -1.5020   12.9730   57.2050 N.pl3     1 CKK        -0.1696
     30 C29        -1.0630   13.8580   58.1250 C.2       1 CKK         0.0482
     31 C30         0.2920   14.0430   57.9310 C.2       1 CKK        -0.0655
     32 C31         0.6920   13.2620   56.7790 C.2       1 CKK         0.0064
     33 C32         2.0690   13.2420   56.1810 C.3       1 CKK        -0.0127
     34 N34         3.0260   12.5470   57.0480 N.4       1 CKK         0.2434
     35 C35         4.4170   13.0480   56.8310 C.3       1 CKK        -0.0258
     36 C36         5.5070   12.1850   57.4940 C.3       1 CKK         0.0306
     37 C37         5.2760   10.6960   57.1810 C.3       1 CKK        -0.0146
     38 C38         3.8620   10.2750   57.5090 C.3       1 CKK         0.0306
     39 N39         6.1510    9.8070   57.9820 N.4       1 CKK         0.2210
     40 H1         -0.1829    5.4140   52.9618 H         1 CKK         0.2231
     41 H2         -0.5721    8.5436   51.1986 H         1 CKK         0.0465
     42 H3          0.2769    6.7192   55.0064 H         1 CKK         0.0448
     43 H4          0.5433    9.0125   56.0040 H         1 CKK         0.0514
     44 H5          3.1116   10.9851   55.6389 H         1 CKK         0.0816
     45 H6          1.8725   10.7901   56.9247 H         1 CKK         0.0816
     46 H7          0.5617   -1.1765   53.2425 H         1 CKK         0.0587
     47 H8          0.6884    0.6166   51.5015 H         1 CKK         0.0551
     48 H9         -3.2370    0.2673   54.6186 H         1 CKK         0.0587
     49 H10        -3.1582    2.0504   52.8570 H         1 CKK         0.0551
     50 H11        -2.1228    2.4476   50.4634 H         1 CKK         0.0656
     51 H12        -0.3416    2.2412   50.3561 H         1 CKK         0.0656
     52 H13        -1.1417    4.5579   49.8314 H         1 CKK         0.2262
     53 H14        -3.9492   11.2415   56.0470 H         1 CKK         0.1038
     54 H15        -1.6714   14.3420   58.8876 H         1 CKK         0.0827
     55 H16         0.9456   14.6673   58.5385 H         1 CKK         0.0302
     56 H17         2.4087   14.2777   56.0332 H         1 CKK         0.0917
     57 H18         2.0286   12.7272   55.2098 H         1 CKK         0.0917
     58 H19         2.7793   12.6911   58.0147 H         1 CKK         0.2043
     59 H20         4.4854   14.0662   57.2416 H         1 CKK         0.0816
     60 H21         4.6093   13.0755   55.7483 H         1 CKK         0.0816
     61 H22         5.4759   12.3355   58.5832 H         1 CKK         0.0372
     62 H23         6.4924   12.4875   57.1100 H         1 CKK         0.0372
     63 H24         5.4712   10.5340   56.1106 H         1 CKK         0.0853
     64 H25         3.7239    9.2146   57.2514 H         1 CKK         0.0372
     65 H26         3.6743   10.4189   58.5833 H         1 CKK         0.0372
     66 H27         7.1162   10.0388   57.8067 H         1 CKK         0.1997
     67 H28         5.9833    8.8476   57.7222 H         1 CKK         0.1997
     68 H29         5.9485    9.9302   58.9617 H         1 CKK         0.1997
@<TRIPOS>BOND
     1    4    1 1  
     2    1    9 am 
     3    2    3 ar 
     4    7    2 ar 
     5    2   24 1  
     6    3    4 ar 
     7    5    4 ar 
     8    6    5 ar 
     9    7    6 ar 
    10   25    7 1  
    11   10    8 1  
    12    8   25 1  
    13    8   26 2  
    14    9   22 am 
    15    9   23 2  
    16   10   29 1  
    17   32   10 2  
    18   34   11 1  
    19   11   38 1  
    20   13   12 1  
    21   14   13 ar 
    22   16   13 ar 
    23   15   14 ar 
    24   18   15 ar 
    25   17   16 ar 
    26   18   17 ar 
    27   19   18 1  
    28   20   19 1  
    29   20   21 2  
    30   22   20 am 
    31   26   27 1  
    32   28   27 2  
    33   29   28 1  
    34   30   29 1  
    35   31   30 2  
    36   32   31 1  
    37   33   32 1  
    38   33   34 1  
    39   34   35 1  
    40   35   36 1  
    41   36   37 1  
    42   37   38 1  
    43   37   39 1  
    44    1   40 1  
    45    3   41 1  
    46    5   42 1  
    47    6   43 1  
    48   11   44 1  
    49   11   45 1  
    50   14   46 1  
    51   15   47 1  
    52   16   48 1  
    53   17   49 1  
    54   19   50 1  
    55   19   51 1  
    56   22   52 1  
    57   27   53 1  
    58   30   54 1  
    59   31   55 1  
    60   33   56 1  
    61   33   57 1  
    62   34   58 1  
    63   35   59 1  
    64   35   60 1  
    65   36   61 1  
    66   36   62 1  
    67   37   63 1  
    68   38   64 1  
    69   38   65 1  
    70   39   66 1  
    71   39   67 1  
    72   39   68 1  
@<TRIPOS>SUBSTRUCTURE
     1 CKK         1

