### 
### Created by X-TOOL on Mon Sep 10 21:12:58 2018
### 

@<TRIPOS>MOLECULE
3c2o_ligand
   15    15     1     0     0
SMALL
GAST_HUCK


@<TRIPOS>ATOM
      1 N1        -26.3650   14.2920   -7.2880 N.ar      1 NTM        -0.2780
      2 C2        -25.5360   13.2370   -7.2740 C.ar      1 NTM         0.0967
      3 C3        -25.8720   12.1070   -6.5290 C.ar      1 NTM         0.0521
      4 C4        -27.0580   12.1120   -5.8010 C.ar      1 NTM        -0.0247
      5 C5        -27.8870   13.2280   -5.8390 C.ar      1 NTM        -0.0279
      6 C6        -27.5010   14.3200   -6.6110 C.ar      1 NTM         0.0173
      7 C7        -24.1970   13.3530   -8.0070 C.2       1 NTM         0.0837
      8 O1        -24.1970   13.8860   -9.1370 O.co2     1 NTM        -0.5565
      9 O2        -23.1660   12.9600   -7.4200 O.co2     1 NTM        -0.5565
     10 C8        -25.0360   10.8270   -6.5700 C.2       1 NTM         0.0729
     11 O3        -24.4190   10.5560   -7.6230 O.co2     1 NTM        -0.5579
     12 O4        -24.9970   10.1250   -5.5360 O.co2     1 NTM        -0.5579
     13 H1        -27.3347   11.2490   -5.2063 H         1 NTM         0.0778
     14 H2        -28.8148   13.2470   -5.2788 H         1 NTM         0.0737
     15 H3        -28.1348   15.1982   -6.6577 H         1 NTM         0.0854
@<TRIPOS>BOND
     1    1    2 ar 
     2    1    6 ar 
     3    2    3 ar 
     4    2    7 1  
     5    3    4 ar 
     6    3   10 1  
     7    4    5 ar 
     8    5    6 ar 
     9    7    8 ar 
    10    7    9 ar 
    11   10   11 ar 
    12   10   12 ar 
    13    4   13 1  
    14    5   14 1  
    15    6   15 1  
@<TRIPOS>SUBSTRUCTURE
     1 NTM         1

