### 
### Created by X-TOOL on Mon Sep 10 21:12:57 2018
### 

@<TRIPOS>MOLECULE
3c2u_ligand
   47    46     1     0     0
SMALL
GAST_HUCK


@<TRIPOS>ATOM
      1 C1         61.1180   38.1320   48.2560 C.3       1 B3P         0.0276
      2 C2         60.3360   38.9610   47.2550 C.3       1 B3P        -0.0280
      3 C3         60.2060   37.5320   49.2840 C.3       1 B3P        -0.0280
      4 N1         61.0240   36.8030   50.2530 N.4       1 B3P         0.2364
      5 C4         60.4920   35.6410   50.9440 C.3       1 B3P         0.0586
      6 C5         61.4450   35.1150   51.9590 C.3       1 B3P         0.0940
      7 C6         59.2420   36.0590   51.7270 C.3       1 B3P         0.0940
      8 C7         60.3420   34.5270   49.9020 C.3       1 B3P         0.0940
      9 N2         59.4100   38.1560   46.5040 N.4       1 B3P         0.2364
     10 C8         59.7510   37.3700   45.3260 C.3       1 B3P         0.0586
     11 C9         60.8170   36.2980   45.5750 C.3       1 B3P         0.0940
     12 C10        60.3060   38.2340   44.1660 C.3       1 B3P         0.0940
     13 C11        58.4200   36.7800   44.9070 C.3       1 B3P         0.0940
     14 O1         60.4370   35.2010   46.4270 O.3       1 B3P        -0.3890
     15 O2         59.4490   39.3870   43.9490 O.3       1 B3P        -0.3890
     16 O3         58.6310   35.7470   43.9600 O.3       1 B3P        -0.3890
     17 O4         61.8080   36.2390   52.8770 O.3       1 B3P        -0.3890
     18 O5         58.4400   34.9450   52.1340 O.3       1 B3P        -0.3890
     19 O6         59.0390   34.4940   49.3340 O.3       1 B3P        -0.3890
     20 H1         61.8540   38.7759   48.7598 H         1 B3P         0.0369
     21 H2         61.6412   37.3240   47.7236 H         1 B3P         0.0369
     22 H3         61.0415   39.4365   46.5578 H         1 B3P         0.0816
     23 H4         59.7755   39.7376   47.7961 H         1 B3P         0.0816
     24 H5         59.5008   36.8415   48.7982 H         1 B3P         0.0816
     25 H6         59.6457   38.3289   49.7949 H         1 B3P         0.0816
     26 H7         61.2875   37.4662   50.9649 H         1 B3P         0.2021
     27 H8         61.8474   36.4937   49.7606 H         1 B3P         0.2021
     28 H9         62.3483   34.7332   51.4607 H         1 B3P         0.0618
     29 H10        60.9712   34.3037   52.5311 H         1 B3P         0.0618
     30 H11        58.6321   36.7160   51.0895 H         1 B3P         0.0618
     31 H12        59.5584   36.6100   52.6249 H         1 B3P         0.0618
     32 H13        60.5417   33.5598   50.3863 H         1 B3P         0.0618
     33 H14        61.0745   34.6928   49.0983 H         1 B3P         0.0618
     34 H15        58.6853   38.7891   46.2040 H         1 B3P         0.2021
     35 H16        59.0286   37.4976   47.1651 H         1 B3P         0.2021
     36 H17        61.6868   36.7914   46.0332 H         1 B3P         0.0618
     37 H18        61.1046   35.8794   44.5993 H         1 B3P         0.0618
     38 H19        60.3428   37.6299   43.2475 H         1 B3P         0.0618
     39 H20        61.3198   38.5768   44.4203 H         1 B3P         0.0618
     40 H21        57.7970   37.5668   44.4567 H         1 B3P         0.0618
     41 H22        57.9089   36.3678   45.7895 H         1 B3P         0.0618
     42 H23        61.1678   34.6001   46.5125 H         1 B3P         0.2097
     43 H24        59.4175   39.9103   44.7412 H         1 B3P         0.2097
     44 H25        59.0718   36.1031   43.1975 H         1 B3P         0.2097
     45 H26        62.4173   35.9250   53.5348 H         1 B3P         0.2097
     46 H27        58.9539   34.3735   52.6925 H         1 B3P         0.2097
     47 H28        58.3993   34.3447   50.0203 H         1 B3P         0.2097
@<TRIPOS>BOND
     1    1    2 1  
     2    1    3 1  
     3    2    9 1  
     4    3    4 1  
     5    4    5 1  
     6    5    6 1  
     7    5    7 1  
     8    5    8 1  
     9    6   17 1  
    10    7   18 1  
    11    8   19 1  
    12    9   10 1  
    13   10   11 1  
    14   10   12 1  
    15   10   13 1  
    16   11   14 1  
    17   12   15 1  
    18   13   16 1  
    19    1   20 1  
    20    1   21 1  
    21    2   22 1  
    22    2   23 1  
    23    3   24 1  
    24    3   25 1  
    25    4   26 1  
    26    4   27 1  
    27    6   28 1  
    28    6   29 1  
    29    7   30 1  
    30    7   31 1  
    31    8   32 1  
    32    8   33 1  
    33    9   34 1  
    34    9   35 1  
    35   11   36 1  
    36   11   37 1  
    37   12   38 1  
    38   12   39 1  
    39   13   40 1  
    40   13   41 1  
    41   14   42 1  
    42   15   43 1  
    43   16   44 1  
    44   17   45 1  
    45   18   46 1  
    46   19   47 1  
@<TRIPOS>SUBSTRUCTURE
     1 B3P         1

