### 
### Created by X-TOOL on Mon Sep 10 21:12:58 2018
### 

@<TRIPOS>MOLECULE
3c43_ligand
   56    59     1     0     0
SMALL
GAST_HUCK


@<TRIPOS>ATOM
      1 C1         39.5940   51.5000   35.8880 C.3       1 315         0.1159
      2 C2         38.3650   51.0410   34.9970 C.3       1 315         0.0865
      3 C3         36.9970   51.0210   35.7940 C.2       1 315         0.2303
      4 N4         36.1850   49.9410   35.6160 N.am      1 315        -0.2656
      5 O5         36.6830   51.9930   36.4990 O.2       1 315        -0.3904
      6 N6         38.3070   51.7390   34.0810 N.4       1 315         0.2403
      7 C8         40.8450   51.9300   35.0600 C.3       1 315        -0.0209
      8 C11        36.5860   48.6000   35.1760 C.3       1 315         0.0652
      9 C12        35.3990   47.7120   35.4320 C.3       1 315         0.1230
     10 C13        34.2160   48.6430   35.5180 C.3       1 315         0.0007
     11 C14        34.7530   50.0410   35.8490 C.3       1 315         0.0369
     12 F21        35.5550   47.0850   36.6580 F         1 315        -0.2433
     13 C23        41.6050   53.1910   35.6210 C.3       1 315        -0.0378
     14 C26        42.8510   52.6950   36.3010 C.3       1 315        -0.0497
     15 C27        41.7850   53.4760   37.0370 C.3       1 315        -0.0497
     16 C33        40.0740   50.3240   36.8860 C.2       1 315         0.2283
     17 N35        40.1590   50.3780   38.1880 N.2       1 315        -0.2742
     18 C36        40.6140   49.1300   38.4610 C.2       1 315         0.1081
     19 N37        40.7710   48.4090   37.3260 N.2       1 315        -0.1240
     20 O38        40.4250   49.1760   36.2880 O.3       1 315        -0.1332
     21 C39        40.8770   48.5420   39.8140 C.ar      1 315         0.0350
     22 C40        40.0550   48.9900   40.8900 C.ar      1 315        -0.0525
     23 C41        40.2000   48.4600   42.1800 C.ar      1 315        -0.0404
     24 C42        41.1770   47.4730   42.4450 C.ar      1 315         0.0861
     25 C43        42.0260   47.0100   41.4130 C.ar      1 315        -0.0024
     26 C44        41.8810   47.5430   40.1160 C.ar      1 315         0.1444
     27 F48        42.7160   47.0350   39.1920 F         1 315        -0.1814
     28 S49        41.3250   46.7720   44.0740 S.o2      1 315        -0.0068
     29 O50        41.5880   45.3700   43.9110 O.2       1 315        -0.1697
     30 O51        40.1130   47.1130   44.7970 O.2       1 315        -0.1697
     31 C52        42.7440   47.6070   44.7840 C.3       1 315         0.0595
     32 H1         39.2632   52.3608   36.4877 H         1 315         0.0660
     33 H2         38.5591   50.0172   34.6448 H         1 315         0.1135
     34 H3         37.5310   51.4654   33.4987 H         1 315         0.2017
     35 H4         39.1631   51.6724   33.5530 H         1 315         0.2017
     36 H5         38.1761   52.6893   34.3905 H         1 315         0.2017
     37 H6         40.5161   52.1563   34.0350 H         1 315         0.0305
     38 H7         41.5499   51.0858   35.0409 H         1 315         0.0305
     39 H8         37.4559   48.2520   35.7523 H         1 315         0.0551
     40 H9         36.8350   48.6070   34.1046 H         1 315         0.0551
     41 H10        35.2719   46.9711   34.6290 H         1 315         0.0672
     42 H11        33.5303   48.3069   36.3097 H         1 315         0.0313
     43 H12        33.6833   48.6634   34.5558 H         1 315         0.0313
     44 H13        34.3029   50.7974   35.1893 H         1 315         0.0523
     45 H14        34.5461   50.2994   36.8980 H         1 315         0.0523
     46 H15        41.5781   54.0293   34.9094 H         1 315         0.0303
     47 H16        43.8255   53.1553   36.0810 H         1 315         0.0268
     48 H17        42.9883   51.6212   36.4962 H         1 315         0.0268
     49 H18        41.1524   52.9712   37.7820 H         1 315         0.0268
     50 H19        41.9897   54.5052   37.3668 H         1 315         0.0268
     51 H20        39.3063   49.7524   40.7076 H         1 315         0.0612
     52 H21        39.5580   48.8097   42.9804 H         1 315         0.0602
     53 H22        42.7777   46.2559   41.6165 H         1 315         0.0622
     54 H23        42.9158   47.2344   45.8046 H         1 315         0.0468
     55 H24        42.5540   48.6900   44.8162 H         1 315         0.0468
     56 H25        43.6327   47.4088   44.1669 H         1 315         0.0468
@<TRIPOS>BOND
     1    1    2 1  
     2    1    7 1  
     3    1   16 1  
     4    2    3 1  
     5    2    6 1  
     6    3    4 am 
     7    3    5 2  
     8    4    8 1  
     9    4   11 1  
    10    7   13 1  
    11    8    9 1  
    12    9   10 1  
    13    9   12 1  
    14   10   11 1  
    15   13   14 1  
    16   13   15 1  
    17   14   15 1  
    18   16   17 2  
    19   16   20 1  
    20   17   18 1  
    21   18   19 2  
    22   18   21 1  
    23   19   20 1  
    24   21   22 ar 
    25   21   26 ar 
    26   22   23 ar 
    27   23   24 ar 
    28   24   25 ar 
    29   24   28 1  
    30   25   26 ar 
    31   26   27 1  
    32   28   29 2  
    33   28   30 2  
    34   28   31 1  
    35    1   32 1  
    36    2   33 1  
    37    6   34 1  
    38    6   35 1  
    39    6   36 1  
    40    7   37 1  
    41    7   38 1  
    42    8   39 1  
    43    8   40 1  
    44    9   41 1  
    45   10   42 1  
    46   10   43 1  
    47   11   44 1  
    48   11   45 1  
    49   13   46 1  
    50   14   47 1  
    51   14   48 1  
    52   15   49 1  
    53   15   50 1  
    54   22   51 1  
    55   23   52 1  
    56   25   53 1  
    57   31   54 1  
    58   31   55 1  
    59   31   56 1  
@<TRIPOS>SUBSTRUCTURE
     1 315         1

