### 
### Created by X-TOOL on Mon Sep 10 21:12:57 2018
### 

@<TRIPOS>MOLECULE
3c45_ligand
   54    57     1     0     0
SMALL
GAST_HUCK


@<TRIPOS>ATOM
      1 C1         39.6540   51.2680   36.0040 C.3       1 317         0.1054
      2 C2         38.4420   50.8230   35.0800 C.3       1 317         0.0398
      3 C3         37.0940   50.7420   35.7860 C.2       1 317         0.1316
      4 C4         36.2720   49.6640   35.7610 C.2       1 317        -0.0477
      5 F5         36.6950   51.8180   36.4720 F         1 317        -0.2117
      6 N6         38.3140   51.7750   33.9880 N.4       1 317         0.2319
      7 C7         40.8580   51.6900   35.1270 C.3       1 317        -0.0150
      8 C8         34.9170   49.6040   36.4530 C.3       1 317        -0.0315
      9 C9         34.1830   48.3590   35.9340 C.3       1 317        -0.0449
     10 C10        35.1090   47.6800   34.9220 C.3       1 317        -0.0449
     11 C11        36.4850   48.3290   35.0790 C.3       1 317        -0.0315
     12 C18        41.6690   52.8460   35.7480 C.3       1 317        -0.0017
     13 C19        43.0320   53.0740   35.2570 C.2       1 317        -0.0803
     14 C20        42.8150   52.4820   36.5780 C.2       1 317        -0.0803
     15 C26        40.1700   50.1180   36.8330 C.2       1 317         0.2280
     16 N27        40.1850   50.1460   38.1510 N.2       1 317        -0.2732
     17 C28        40.6960   48.9650   38.5090 C.2       1 317         0.1090
     18 N29        40.9950   48.2090   37.4210 N.2       1 317        -0.1212
     19 O30        40.6380   48.9900   36.2970 O.3       1 317        -0.1317
     20 C31        40.8940   48.4060   39.8810 C.ar      1 317         0.0145
     21 C32        40.0860   49.0480   40.8710 C.ar      1 317        -0.0508
     22 C33        40.1010   48.6070   42.2140 C.ar      1 317        -0.0365
     23 C34        40.9260   47.5210   42.5900 C.ar      1 317         0.0881
     24 C35        41.7510   46.8750   41.6370 C.ar      1 317        -0.0227
     25 C36        41.7410   47.3070   40.2950 C.ar      1 317         0.0510
     26 S40        40.8990   46.9380   44.2620 S.o2      1 317        -0.0060
     27 O41        39.6080   47.2290   44.8130 O.2       1 317        -0.1697
     28 O42        42.0260   47.5780   44.9560 O.2       1 317        -0.1697
     29 C43        41.1860   45.1970   44.0670 C.3       1 317         0.0595
     30 CL47       42.7690   46.3980   39.2290 Cl        1 317        -0.0695
     31 H1         39.3342   52.0965   36.6530 H         1 317         0.0650
     32 H2         38.6747   49.8285   34.6716 H         1 317         0.0995
     33 H3         37.5468   51.5031   33.3934 H         1 317         0.2007
     34 H4         39.1671   51.7873   33.4512 H         1 317         0.2007
     35 H5         38.1393   52.6944   34.3625 H         1 317         0.2007
     36 H6         40.4824   52.0115   34.1444 H         1 317         0.0311
     37 H7         41.5222   50.8225   34.9998 H         1 317         0.0311
     38 H8         34.3354   50.5074   36.2171 H         1 317         0.0386
     39 H9         35.0552   49.5308   37.5418 H         1 317         0.0386
     40 H10        33.2414   48.6519   35.4465 H         1 317         0.0285
     41 H11        33.9671   47.6737   36.7669 H         1 317         0.0285
     42 H12        34.7318   47.8342   33.9003 H         1 317         0.0285
     43 H13        35.1726   46.6018   35.1306 H         1 317         0.0285
     44 H14        37.1354   47.6903   35.6946 H         1 317         0.0386
     45 H15        36.9464   48.4789   34.0918 H         1 317         0.0386
     46 H16        41.0135   53.6882   36.0142 H         1 317         0.0387
     47 H17        43.7089   53.4257   34.4798 H         1 317         0.0575
     48 H18        43.2153   52.0707   37.5035 H         1 317         0.0575
     49 H19        39.4546   49.8826   40.5883 H         1 317         0.0623
     50 H20        39.4815   49.1001   42.9544 H         1 317         0.0637
     51 H21        42.3879   46.0513   41.9384 H         1 317         0.0642
     52 H22        41.1919   44.7135   45.0550 H         1 317         0.0468
     53 H23        42.1571   45.0382   43.5754 H         1 317         0.0468
     54 H24        40.3869   44.7605   43.4499 H         1 317         0.0468
@<TRIPOS>BOND
     1    1    2 1  
     2    1    7 1  
     3    1   15 1  
     4    2    3 1  
     5    2    6 1  
     6    3    4 2  
     7    3    5 1  
     8    4    8 1  
     9    4   11 1  
    10    7   12 1  
    11    8    9 1  
    12    9   10 1  
    13   10   11 1  
    14   12   13 1  
    15   12   14 1  
    16   13   14 2  
    17   15   16 2  
    18   15   19 1  
    19   16   17 1  
    20   17   18 2  
    21   17   20 1  
    22   18   19 1  
    23   20   21 ar 
    24   20   25 ar 
    25   21   22 ar 
    26   22   23 ar 
    27   23   24 ar 
    28   23   26 1  
    29   24   25 ar 
    30   25   30 1  
    31   26   27 2  
    32   26   28 2  
    33   26   29 1  
    34    1   31 1  
    35    2   32 1  
    36    6   33 1  
    37    6   34 1  
    38    6   35 1  
    39    7   36 1  
    40    7   37 1  
    41    8   38 1  
    42    8   39 1  
    43    9   40 1  
    44    9   41 1  
    45   10   42 1  
    46   10   43 1  
    47   11   44 1  
    48   11   45 1  
    49   12   46 1  
    50   13   47 1  
    51   14   48 1  
    52   21   49 1  
    53   22   50 1  
    54   24   51 1  
    55   29   52 1  
    56   29   53 1  
    57   29   54 1  
@<TRIPOS>SUBSTRUCTURE
     1 317         1

