### 
### Created by X-TOOL on Mon Sep 10 21:12:57 2018
### 

@<TRIPOS>MOLECULE
3c49_ligand
   50    53     1     0     0
SMALL
GAST_HUCK


@<TRIPOS>ATOM
      1 C1N        23.8820   -4.0580    9.6090 C.3       1 KU8         0.0383
      2 C1K        24.1480   -2.9670   10.6680 C.3       1 KU8         0.0078
      3 C1L        24.1360   -1.5330   10.1480 C.3       1 KU8        -0.0317
      4 N1R        23.0770   -0.7550    9.4790 N.4       1 KU8         0.2285
      5 C1M        22.6230   -1.3810    8.2200 C.3       1 KU8        -0.0129
      6 C1O        21.9520   -2.7220    8.4070 C.3       1 KU8         0.0731
      7 N2B        22.5630   -3.8850    9.0150 N.am      1 KU8        -0.2679
      8 C1T        21.6680   -4.8580    9.2120 C.2       1 KU8         0.2053
      9 O1A        20.5070   -4.7510    8.8080 O.2       1 KU8        -0.3868
     10 C1W        22.0380   -6.1120   10.0290 C.ar      1 KU8         0.0771
     11 C1J        20.9950   -6.4750   10.8740 C.ar      1 KU8        -0.0404
     12 C1V        23.2850   -6.6960   10.2880 C.ar      1 KU8         0.1461
     13 F1C        24.3570   -6.4070    9.5260 F         1 KU8        -0.1830
     14 C1G        23.3890   -7.7910   11.1450 C.ar      1 KU8        -0.0285
     15 C1F        22.3070   -8.1890   11.9100 C.ar      1 KU8        -0.0558
     16 C1U        21.1030   -7.5260   11.7730 C.ar      1 KU8        -0.0303
     17 C1P        19.9190   -7.9680   12.6340 C.3       1 KU8         0.0254
     18 C1X        18.6070   -7.2990   12.2330 C.2       1 KU8         0.0655
     19 C1Z        17.6740   -7.9730   11.4690 C.ar      1 KU8         0.0126
     20 C1H        17.9390   -9.2680   11.0440 C.ar      1 KU8        -0.0505
     21 C1D        17.0030   -9.9400   10.2700 C.ar      1 KU8        -0.0598
     22 C1E        15.8080   -9.3160    9.9290 C.ar      1 KU8        -0.0589
     23 C1I        15.5490   -8.0180   10.3590 C.ar      1 KU8        -0.0440
     24 C2A        16.4890   -7.3500   11.1310 C.ar      1 KU8         0.0610
     25 C1Y        16.2820   -6.0580   11.5870 C.2       1 KU8         0.2361
     26 O1B        15.2440   -5.4520   11.3190 O.2       1 KU8        -0.3937
     27 N1S        17.2880   -5.4570   12.3630 N.am      1 KU8        -0.1719
     28 N1Q        18.3380   -6.0460   12.6460 N.2       1 KU8        -0.1830
     29 H1         23.9361   -5.0471   10.0873 H         1 KU8         0.0523
     30 H2         24.6455   -3.9899    8.8201 H         1 KU8         0.0523
     31 H3         25.1361   -3.1586   11.1118 H         1 KU8         0.0336
     32 H4         23.3741   -3.0525   11.4451 H         1 KU8         0.0336
     33 H5         24.9737   -1.5042    9.4356 H         1 KU8         0.0814
     34 H6         24.3865   -0.9298   11.0331 H         1 KU8         0.0814
     35 H7         23.4336    0.1648    9.2721 H         1 KU8         0.2014
     36 H8         22.2896   -0.6775   10.1035 H         1 KU8         0.2014
     37 H9         23.4978   -1.5200    7.5678 H         1 KU8         0.0834
     38 H10        21.9077   -0.7012    7.7341 H         1 KU8         0.0834
     39 H11        21.6543   -3.0427    7.3978 H         1 KU8         0.0575
     40 H12        21.0530   -2.5175    9.0069 H         1 KU8         0.0575
     41 H13        20.0662   -5.9179   10.8287 H         1 KU8         0.0600
     42 H14        24.3245   -8.3345   11.2124 H         1 KU8         0.0599
     43 H15        22.4031   -9.0119   12.6090 H         1 KU8         0.0586
     44 H16        20.1348   -7.7158   13.6827 H         1 KU8         0.0573
     45 H17        19.8013   -9.0572   12.5356 H         1 KU8         0.0573
     46 H18        18.8708   -9.7511   11.3149 H         1 KU8         0.0617
     47 H19        17.2034  -10.9502    9.9317 H         1 KU8         0.0642
     48 H20        15.0762   -9.8420    9.3266 H         1 KU8         0.0609
     49 H21        14.6178   -7.5313   10.0923 H         1 KU8         0.0659
     50 H22        17.1505   -4.5244   12.6966 H         1 KU8         0.2568
@<TRIPOS>BOND
     1    1    2 1  
     2    1    7 1  
     3    2    3 1  
     4    3    4 1  
     5    4    5 1  
     6    5    6 1  
     7    6    7 1  
     8    7    8 am 
     9    8    9 2  
    10    8   10 1  
    11   10   11 ar 
    12   10   12 ar 
    13   11   16 ar 
    14   12   13 1  
    15   12   14 ar 
    16   14   15 ar 
    17   15   16 ar 
    18   16   17 1  
    19   17   18 1  
    20   18   19 1  
    21   18   28 2  
    22   19   20 ar 
    23   19   24 ar 
    24   20   21 ar 
    25   21   22 ar 
    26   22   23 ar 
    27   23   24 ar 
    28   24   25 1  
    29   25   26 2  
    30   25   27 am 
    31   27   28 1  
    32    1   29 1  
    33    1   30 1  
    34    2   31 1  
    35    2   32 1  
    36    3   33 1  
    37    3   34 1  
    38    4   35 1  
    39    4   36 1  
    40    5   37 1  
    41    5   38 1  
    42    6   39 1  
    43    6   40 1  
    44   11   41 1  
    45   14   42 1  
    46   15   43 1  
    47   17   44 1  
    48   17   45 1  
    49   20   46 1  
    50   21   47 1  
    51   22   48 1  
    52   23   49 1  
    53   27   50 1  
@<TRIPOS>SUBSTRUCTURE
     1 KU8         1

