### 
### Created by X-TOOL on Mon Sep 10 21:12:59 2018
### 

@<TRIPOS>MOLECULE
3c4c_ligand
   41    43     1     0     0
SMALL
GAST_HUCK


@<TRIPOS>ATOM
      1 O24        -4.9300   -2.6560  -21.3920 O.2       1 324        -0.1502
      2 S22        -4.4630   -3.4370  -20.2600 S.o2      1 324         0.0588
      3 O23        -5.2050   -4.6600  -20.3320 O.2       1 324        -0.1502
      4 C25        -4.7770   -2.7140  -18.7850 C.3       1 324         0.0894
      5 C26        -5.1750   -3.6900  -17.6690 C.3       1 324        -0.0342
      6 C27        -5.0620   -3.0160  -16.3040 C.3       1 324        -0.0637
      7 N21        -2.8560   -3.5970  -20.2590 N.am      1 324        -0.1921
      8 C17        -2.0110   -2.5600  -20.4210 C.ar      1 324         0.0978
      9 C18        -0.5660   -2.8310  -20.5270 C.ar      1 324         0.1647
     10 F20         0.0170   -4.0260  -20.4260 F         1 324        -0.1907
     11 C16        -2.4240   -1.2300  -20.5410 C.ar      1 324        -0.0439
     12 C15        -1.5490   -0.1610  -20.7450 C.ar      1 324        -0.0421
     13 C14        -0.1950   -0.3640  -20.8320 C.ar      1 324         0.1310
     14 F19         0.6350    0.6460  -21.0170 F         1 324        -0.1929
     15 C13         0.3280   -1.7210  -20.7330 C.ar      1 324         0.0791
     16 C11         1.7420   -2.0930  -20.7980 C.2       1 324         0.1307
     17 O12         2.0980   -2.7490  -21.7650 O.2       1 324        -0.3914
     18 C9          2.5320   -1.7250  -19.6050 C.2       1 324         0.0415
     19 C8          2.0430   -1.3310  -18.3430 C.2       1 324         0.0539
     20 C2          4.0200   -1.7500  -19.5440 C.ar      1 324         0.0181
     21 C1          5.0870   -2.0390  -20.3770 C.ar      1 324        -0.0396
     22 C3          4.2550   -1.3470  -18.1930 C.ar      1 324         0.1416
     23 N7          3.0940   -1.0930  -17.5030 N.pl3     1 324        -0.2549
     24 N4          5.5020   -1.2280  -17.7240 N.ar      1 324        -0.2839
     25 C5          6.5440   -1.5020  -18.5040 C.ar      1 324         0.0091
     26 C6          6.3880   -1.9110  -19.8260 C.ar      1 324         0.0516
     27 CL10        7.8480   -2.2160  -20.7020 Cl        1 324        -0.0725
     28 H1         -5.5988   -1.9959  -18.9225 H         1 324         0.0523
     29 H2         -3.8712   -2.1779  -18.4655 H         1 324         0.0523
     30 H3         -4.5077   -4.5640  -17.6975 H         1 324         0.0279
     31 H4         -6.2136   -4.0162  -17.8267 H         1 324         0.0279
     32 H5         -5.3506   -3.7293  -15.5179 H         1 324         0.0230
     33 H6         -5.7299   -2.1427  -16.2698 H         1 324         0.0230
     34 H7         -4.0241   -2.6905  -16.1406 H         1 324         0.0230
     35 H8         -2.4691   -4.5103  -20.1319 H         1 324         0.2130
     36 H9         -3.4844   -1.0161  -20.4717 H         1 324         0.0496
     37 H10        -1.9454    0.8438  -20.8359 H         1 324         0.0539
     38 H11         0.9912   -1.2318  -18.0787 H         1 324         0.1098
     39 H12         4.9353   -2.3493  -21.4045 H         1 324         0.0675
     40 H13         3.0278   -0.7784  -16.5244 H         1 324         0.2359
     41 H14         7.5445   -1.4040  -18.0985 H         1 324         0.0757
@<TRIPOS>BOND
     1    1    2 2  
     2    2    3 2  
     3    2    4 1  
     4    2    7 am 
     5    4    5 1  
     6    5    6 1  
     7    7    8 1  
     8    8    9 ar 
     9    8   11 ar 
    10    9   10 1  
    11    9   15 ar 
    12   11   12 ar 
    13   12   13 ar 
    14   13   14 1  
    15   13   15 ar 
    16   15   16 1  
    17   16   17 2  
    18   16   18 1  
    19   18   19 2  
    20   18   20 1  
    21   19   23 1  
    22   20   21 ar 
    23   20   22 ar 
    24   21   26 ar 
    25   22   23 1  
    26   22   24 ar 
    27   24   25 ar 
    28   25   26 ar 
    29   26   27 1  
    30    4   28 1  
    31    4   29 1  
    32    5   30 1  
    33    5   31 1  
    34    6   32 1  
    35    6   33 1  
    36    6   34 1  
    37    7   35 1  
    38   11   36 1  
    39   12   37 1  
    40   19   38 1  
    41   21   39 1  
    42   23   40 1  
    43   25   41 1  
@<TRIPOS>SUBSTRUCTURE
     1 324         1

