### 
### Created by X-TOOL on Mon Sep 10 21:12:58 2018
### 

@<TRIPOS>MOLECULE
3c4e_ligand
   27    29     1     0     0
SMALL
GAST_HUCK


@<TRIPOS>ATOM
      1 N10         9.0550   88.0510   25.4520 N.pl3     1 C4E        -0.2948
      2 C11        10.3250   88.4900   25.8520 C.ar      1 C4E         0.0502
      3 C12        10.7490   88.5510   27.1850 C.ar      1 C4E        -0.0420
      4 C13        12.0430   88.9900   27.4910 C.ar      1 C4E        -0.0735
      5 C14        12.9050   89.3740   26.4640 C.ar      1 C4E        -0.0752
      6 C15        12.4930   89.3250   25.1320 C.ar      1 C4E        -0.0735
      7 C16        11.2060   88.8800   24.8280 C.ar      1 C4E        -0.0420
      8 C7          7.8490   87.9070   26.0520 C.2       1 C4E         0.0624
      9 C6          7.4710   87.9900   27.3800 C.2       1 C4E         0.0385
     10 C8          6.7010   87.6190   25.2720 C.ar      1 C4E         0.0299
     11 C9          6.4510   87.4270   23.8940 C.ar      1 C4E        -0.0533
     12 C4          5.6340   87.5300   26.1610 C.ar      1 C4E         0.1314
     13 N5          6.1080   87.7650   27.4260 N.pl3     1 C4E        -0.2793
     14 N3          4.3490   87.2780   25.8380 N.ar      1 C4E        -0.2880
     15 C2          4.1560   87.1040   24.5010 C.ar      1 C4E        -0.0066
     16 C1          5.1360   87.1550   23.5070 C.ar      1 C4E        -0.0511
     17 H1          9.0338   87.7697   24.4614 H         1 C4E         0.1978
     18 H2         10.0745   88.2579   27.9814 H         1 C4E         0.0519
     19 H3         12.3736   89.0312   28.5225 H         1 C4E         0.0582
     20 H4         13.9060   89.7142   26.7034 H         1 C4E         0.0504
     21 H5         13.1671   89.6301   24.3398 H         1 C4E         0.0582
     22 H6         10.8828   88.8346   23.7943 H         1 C4E         0.0519
     23 H7          8.1232   88.1938   28.2280 H         1 C4E         0.0744
     24 H8          7.2501   87.4885   23.1641 H         1 C4E         0.0677
     25 H9          5.5347   87.7727   28.2817 H         1 C4E         0.2221
     26 H10         3.1409   86.9063   24.1760 H         1 C4E         0.0748
     27 H11         4.8839   86.9885   22.4659 H         1 C4E         0.0590
@<TRIPOS>BOND
     1    1    2 1  
     2    1    8 1  
     3    2    3 ar 
     4    2    7 ar 
     5    3    4 ar 
     6    4    5 ar 
     7    5    6 ar 
     8    6    7 ar 
     9    8    9 2  
    10    8   10 1  
    11    9   13 1  
    12   10   11 ar 
    13   10   12 ar 
    14   11   16 ar 
    15   12   13 1  
    16   12   14 ar 
    17   14   15 ar 
    18   15   16 ar 
    19    1   17 1  
    20    3   18 1  
    21    4   19 1  
    22    5   20 1  
    23    6   21 1  
    24    7   22 1  
    25    9   23 1  
    26   11   24 1  
    27   13   25 1  
    28   15   26 1  
    29   16   27 1  
@<TRIPOS>SUBSTRUCTURE
     1 C4E         1

