### 
### Created by X-TOOL on Mon Sep 10 21:12:58 2018
### 

@<TRIPOS>MOLECULE
3c4f_ligand
   32    34     1     0     0
SMALL
GAST_HUCK


@<TRIPOS>ATOM
      1 C15         5.4000    2.0210   12.8800 C.3       1 C4F         0.0592
      2 O14         6.2850    2.5130   13.8960 O.3       1 C4F        -0.3230
      3 C13         5.8310    3.4370   14.8170 C.ar      1 C4F         0.0841
      4 C16         4.6520    4.1380   14.6250 C.ar      1 C4F        -0.0401
      5 C17         4.2060    5.0210   15.5990 C.ar      1 C4F        -0.0772
      6 C18         4.9500    5.2000   16.7580 C.ar      1 C4F        -0.0704
      7 C12         6.5540    3.6050   15.9860 C.ar      1 C4F        -0.0313
      8 C11         6.1250    4.4960   16.9510 C.ar      1 C4F        -0.0468
      9 C10         6.9400    4.6490   18.2150 C.3       1 C4F        -0.0040
     10 C9          6.5410    3.5140   19.1600 C.2       1 C4F        -0.0270
     11 C1          7.0870    3.2210   20.5030 C.ar      1 C4F         0.0074
     12 C8          5.6180    2.5630   18.9920 C.2       1 C4F         0.0248
     13 N7          5.5370    1.7580   19.9970 N.pl3     1 C4F        -0.2738
     14 C6          6.4020    2.1390   20.9460 C.ar      1 C4F         0.1323
     15 N5          6.6240    1.5970   22.1430 N.ar      1 C4F        -0.2873
     16 C4          7.5770    2.1380   22.9120 C.ar      1 C4F        -0.0063
     17 C3          8.3000    3.2620   22.4950 C.ar      1 C4F        -0.0511
     18 C2          8.0430    3.8480   21.2630 C.ar      1 C4F        -0.0552
     19 H1          5.9355    1.2996   12.2453 H         1 C4F         0.0577
     20 H2          5.0470    2.8606   12.2632 H         1 C4F         0.0577
     21 H3          4.5390    1.5255   13.3523 H         1 C4F         0.0577
     22 H4          4.0786    3.9974   13.7159 H         1 C4F         0.0485
     23 H5          3.2813    5.5682   15.4556 H         1 C4F         0.0572
     24 H6          4.6079    5.8955   17.5158 H         1 C4F         0.0465
     25 H7          7.4618    3.0342   16.1450 H         1 C4F         0.0479
     26 H8          6.7265    5.6207   18.6842 H         1 C4F         0.0509
     27 H9          8.0127    4.5828   17.9805 H         1 C4F         0.0509
     28 H10         4.9989    2.4763   18.1003 H         1 C4F         0.0834
     29 H11         4.9047    0.9474   20.0598 H         1 C4F         0.2258
     30 H12         7.7934    1.6964   23.8780 H         1 C4F         0.0747
     31 H13         9.0664    3.6779   23.1390 H         1 C4F         0.0594
     32 H14         8.5609    4.7382   20.9248 H         1 C4F         0.0672
@<TRIPOS>BOND
     1    1    2 1  
     2    2    3 1  
     3    3    4 ar 
     4    3    7 ar 
     5    4    5 ar 
     6    5    6 ar 
     7    6    8 ar 
     8    7    8 ar 
     9    8    9 1  
    10    9   10 1  
    11   10   11 1  
    12   10   12 2  
    13   11   14 ar 
    14   11   18 ar 
    15   12   13 1  
    16   13   14 1  
    17   14   15 ar 
    18   15   16 ar 
    19   16   17 ar 
    20   17   18 ar 
    21    1   19 1  
    22    1   20 1  
    23    1   21 1  
    24    4   22 1  
    25    5   23 1  
    26    6   24 1  
    27    7   25 1  
    28    9   26 1  
    29    9   27 1  
    30   12   28 1  
    31   13   29 1  
    32   16   30 1  
    33   17   31 1  
    34   18   32 1  
@<TRIPOS>SUBSTRUCTURE
     1 C4F         1

