### 
### Created by X-TOOL on Mon Sep 10 21:12:59 2018
### 

@<TRIPOS>MOLECULE
3c5u_ligand
   41    44     1     0     0
SMALL
GAST_HUCK


@<TRIPOS>ATOM
      1 C13        -7.5490   36.2130   41.5110 C.ar      1 P41         0.0494
      2 C18        -8.0580   30.8800   39.4460 C.3       1 P41        -0.0412
      3 C17        -5.7630   31.9330   38.6910 C.3       1 P41        -0.0412
      4 C16        -7.1170   33.8460   40.9230 C.2       1 P41         0.1860
      5 C15        -8.3420   39.8800   41.5020 C.2       1 P41         0.1485
      6 C19        -6.7710   31.5920   39.8050 C.3       1 P41         0.0407
      7 C11        -7.7210   35.8460   40.1600 C.ar      1 P41         0.0111
      8 C12       -11.3310   40.8130   40.3850 C.ar      1 P41         0.1354
      9 C1        -10.6740   42.4640   38.2920 C.ar      1 P41        -0.0697
     10 C2        -11.9630   41.9510   38.4260 C.ar      1 P41        -0.0676
     11 C3         -9.6920   42.1490   39.2040 C.ar      1 P41        -0.0612
     12 C4         -8.3250   38.1710   39.7300 C.ar      1 P41        -0.0652
     13 C5         -8.0990   36.8530   39.2400 C.ar      1 P41        -0.0625
     14 C6        -12.2990   41.1270   39.4620 C.ar      1 P41        -0.0317
     15 C7         -7.7380   37.5170   41.9880 C.ar      1 P41        -0.0435
     16 C8         -7.7640   41.5640   42.8160 C.2       1 P41         0.1650
     17 C9         -8.1740   38.5020   41.0800 C.ar      1 P41         0.0047
     18 C10       -10.0270   41.2980   40.2410 C.ar      1 P41         0.0122
     19 C14        -9.0230   41.0370   41.2050 C.2       1 P41         0.0528
     20 N20        -8.6610   42.0900   42.0510 N.2       1 P41        -0.2956
     21 N21        -7.4690   34.5040   39.8470 N.2       1 P41        -0.3062
     22 N22        -6.8400   32.5290   40.9320 N.pl3     1 P41        -0.2768
     23 O23        -7.5150   40.2530   42.5440 O.3       1 P41        -0.2255
     24 F24       -11.6780   39.9970   41.4060 F         1 P41        -0.1850
     25 S25        -7.0740   34.8040   42.3810 S.3       1 P41         0.0284
     26 H1         -7.8803   30.2097   38.5921 H         1 P41         0.0253
     27 H2         -8.8245   31.6216   39.1766 H         1 P41         0.0253
     28 H3         -8.4043   30.2914   40.3083 H         1 P41         0.0253
     29 H4         -4.8928   32.4446   39.1280 H         1 P41         0.0253
     30 H5         -6.2423   32.5916   37.9517 H         1 P41         0.0253
     31 H6         -5.4341   31.0064   38.1979 H         1 P41         0.0253
     32 H7         -6.2336   30.7599   40.2833 H         1 P41         0.0564
     33 H8        -10.4420   43.1188   37.4598 H         1 P41         0.0573
     34 H9        -12.7160   42.2120   37.6912 H         1 P41         0.0573
     35 H10        -8.6907   42.5541   39.1123 H         1 P41         0.0573
     36 H11        -8.6245   38.9444   39.0320 H         1 P41         0.0547
     37 H12        -8.2139   36.6262   38.1862 H         1 P41         0.0540
     38 H13       -13.3038   40.7308   39.5537 H         1 P41         0.0592
     39 H14        -7.5536   37.7613   43.0279 H         1 P41         0.0551
     40 H15        -7.2546   42.1163   43.6043 H         1 P41         0.1420
     41 H16        -6.6500   32.1222   41.8590 H         1 P41         0.1937
@<TRIPOS>BOND
     1    1    7 ar 
     2   15    1 ar 
     3    1   25 1  
     4    6    2 1  
     5    6    3 1  
     6    4   21 2  
     7    4   22 1  
     8   25    4 1  
     9    5   17 1  
    10   19    5 2  
    11    5   23 1  
    12   22    6 1  
    13   13    7 ar 
    14    7   21 1  
    15    8   14 ar 
    16   18    8 ar 
    17    8   24 1  
    18    9   10 ar 
    19   11    9 ar 
    20   14   10 ar 
    21   18   11 ar 
    22   12   13 ar 
    23   17   12 ar 
    24   17   15 ar 
    25   16   20 2  
    26   23   16 1  
    27   18   19 1  
    28   19   20 1  
    29    2   26 1  
    30    2   27 1  
    31    2   28 1  
    32    3   29 1  
    33    3   30 1  
    34    3   31 1  
    35    6   32 1  
    36    9   33 1  
    37   10   34 1  
    38   11   35 1  
    39   12   36 1  
    40   13   37 1  
    41   14   38 1  
    42   15   39 1  
    43   16   40 1  
    44   22   41 1  
@<TRIPOS>SUBSTRUCTURE
     1 P41         1

