### 
### Created by X-TOOL on Mon Sep 10 21:12:58 2018
### 

@<TRIPOS>MOLECULE
3c6t_ligand
   47    49     1     0     0
SMALL
GAST_HUCK


@<TRIPOS>ATOM
      1 C           6.2340    9.4580   14.2650 C.ar      1 M14         0.0805
      2 C1          6.3280    8.7510   13.0590 C.ar      1 M14        -0.0387
      3 C2          6.4130    7.3610   13.0520 C.ar      1 M14        -0.0488
      4 C3          6.3990    6.6920   14.2760 C.ar      1 M14         0.0930
      5 C4          6.3170    7.3860   15.4740 C.ar      1 M14        -0.0350
      6 C5          6.2190    8.7650   15.4450 C.ar      1 M14         0.0612
      7 C6          9.9950   12.2880   16.9740 C.ar      1 M14         0.1080
      8 C7         10.9710   12.5940   16.0720 C.ar      1 M14        -0.0258
      9 C8         10.5600   13.1130   14.8700 C.ar      1 M14         0.0245
     10 C9          9.1920   13.3360   14.5580 C.ar      1 M14        -0.0296
     11 C10         8.2000   13.0060   15.4970 C.ar      1 M14         0.0870
     12 C11         8.6370   12.4690   16.7100 C.ar      1 M14        -0.0005
     13 C12        10.0390   12.2380   21.6910 C.ar      1 M14         0.0439
     14 C13        10.1410   11.6540   20.4450 C.ar      1 M14        -0.0059
     15 C14        10.3240   12.4390   19.3250 C.ar      1 M14         0.1268
     16 C15        10.4050   13.8170   19.4310 C.ar      1 M14         0.0063
     17 C16        10.2850   14.3610   20.7000 C.ar      1 M14         0.0886
     18 C17        10.1150   13.6020   21.8460 C.ar      1 M14        -0.0234
     19 CL          9.8220   11.2850   23.1110 Cl        1 M14        -0.0711
     20 O          10.4450   11.7650   18.1410 O.3       1 M14        -0.2587
     21 CL1        11.8680   13.5280   13.7970 Cl        1 M14        -0.0762
     22 O19         6.8090   13.1030   15.4510 O.3       1 M14        -0.2997
     23 C20         6.0950   13.2010   14.2260 C.3       1 M14         0.1646
     24 C21         6.1700   11.8500   13.5410 C.2       1 M14         0.2348
     25 N           6.1530   10.8470   14.4690 N.am      1 M14        -0.2307
     26 O22         6.2930   11.6990   12.3450 O.2       1 M14        -0.3817
     27 S           6.5530    4.9200   14.3850 S.o2      1 M14         0.0591
     28 N23         5.5580    4.3390   13.1250 N.am      1 M14        -0.2625
     29 O24         7.9730    4.7950   14.0350 O.2       1 M14        -0.1524
     30 O25         6.0560    4.5260   15.6950 O.2       1 M14        -0.1524
     31 CL2         6.0810    9.6770   16.9120 Cl        1 M14        -0.0830
     32 C27        10.3490   15.7150   20.9000 C.1       1 M14         0.0979
     33 N28        10.6440   16.7840   21.0680 N.1       1 M14        -0.3283
     34 H1          6.3346    9.2926   12.1200 H         1 M14         0.0503
     35 H2          6.4881    6.8131   12.1196 H         1 M14         0.0598
     36 H3          6.3295    6.8552   16.4191 H         1 M14         0.0602
     37 H4         12.0201   12.4350   16.2937 H         1 M14         0.0466
     38 H5          8.9145   13.7591   13.5993 H         1 M14         0.0461
     39 H6          7.9073   12.1875   17.4605 H         1 M14         0.0474
     40 H7         10.0772   10.5764   20.3458 H         1 M14         0.0629
     41 H8         10.5558   14.4433   18.5592 H         1 M14         0.0652
     42 H9         10.0448   14.0640   22.8241 H         1 M14         0.0636
     43 H10         6.5511   13.9712   13.5868 H         1 M14         0.0864
     44 H11         5.0452   13.4632   14.4239 H         1 M14         0.0864
     45 H12         6.0720   11.1403   15.4216 H         1 M14         0.2262
     46 H13         5.4701    3.3549   12.9706 H         1 M14         0.1633
     47 H14         5.0631    4.9828   12.5414 H         1 M14         0.1633
@<TRIPOS>BOND
     1    1    2 ar 
     2    1    6 ar 
     3   25    1 1  
     4    2    3 ar 
     5    3    4 ar 
     6    5    4 ar 
     7    4   27 1  
     8    6    5 ar 
     9    6   31 1  
    10    7    8 ar 
    11   12    7 ar 
    12    7   20 1  
    13    9    8 ar 
    14   10    9 ar 
    15    9   21 1  
    16   11   10 ar 
    17   11   12 ar 
    18   22   11 1  
    19   14   13 ar 
    20   13   18 ar 
    21   13   19 1  
    22   15   14 ar 
    23   15   16 ar 
    24   20   15 1  
    25   16   17 ar 
    26   17   18 ar 
    27   17   32 1  
    28   23   22 1  
    29   24   23 1  
    30   24   25 am 
    31   24   26 2  
    32   27   28 am 
    33   27   29 2  
    34   27   30 2  
    35   32   33 3  
    36    2   34 1  
    37    3   35 1  
    38    5   36 1  
    39    8   37 1  
    40   10   38 1  
    41   12   39 1  
    42   14   40 1  
    43   16   41 1  
    44   18   42 1  
    45   23   43 1  
    46   23   44 1  
    47   25   45 1  
    48   28   46 1  
    49   28   47 1  
@<TRIPOS>SUBSTRUCTURE
     1 M14         1

