### 
### Created by X-TOOL on Mon Sep 10 21:12:58 2018
### 

@<TRIPOS>MOLECULE
3c6u_ligand
   41    44     1     0     0
SMALL
GAST_HUCK


@<TRIPOS>ATOM
      1 C          10.2220   12.1760   16.3280 C.ar      1 M22         0.1219
      2 C1         11.0370   12.2340   15.2130 C.ar      1 M22         0.0607
      3 C2         10.5850   12.6410   13.9790 C.ar      1 M22        -0.0640
      4 C3          9.2740   12.9930   13.8310 C.ar      1 M22        -0.0423
      5 C4          8.4010   12.9310   14.9020 C.ar      1 M22         0.0895
      6 C5          8.8610   12.5280   16.1720 C.ar      1 M22         0.0004
      7 C6         10.5620   13.6430   18.9790 C.ar      1 M22        -0.0058
      8 C7         10.5360   12.2800   18.7490 C.ar      1 M22         0.1271
      9 C8         10.2260   11.4130   19.8190 C.ar      1 M22         0.0063
     10 C9          9.9500   11.9270   21.1190 C.ar      1 M22         0.0886
     11 C10         9.9840   13.3180   21.3340 C.ar      1 M22        -0.0234
     12 C11        10.2950   14.1400   20.2480 C.ar      1 M22         0.0439
     13 O          10.8210   11.7310   17.5110 O.3       1 M22        -0.2578
     14 CL         10.3540   15.8300   20.4450 Cl        1 M22        -0.0711
     15 O12         7.0990   13.3410   14.8110 O.3       1 M22        -0.2911
     16 C13         5.9190   12.5830   14.6400 C.3       1 M22         0.1674
     17 C14         6.1320   11.1960   14.1930 C.2       1 M22         0.1728
     18 N           6.6050   10.9030   12.9660 N.pl3     1 M22        -0.2546
     19 N15         6.6320    9.5570   12.9860 N.2       1 M22        -0.3959
     20 C16         5.8620   10.0550   14.9800 C.ar      1 M22         0.0518
     21 C17         6.2010    9.0030   14.1670 C.ar      1 M22        -0.0377
     22 C18         6.0810    7.7000   14.5970 C.ar      1 M22        -0.0633
     23 C19         5.6070    7.4910   15.9080 C.ar      1 M22        -0.0620
     24 C20         5.2490    8.5400   16.7550 C.ar      1 M22        -0.0603
     25 C21         5.3750    9.8460   16.2880 C.ar      1 M22        -0.0422
     26 CL2        12.6740   11.7940   15.3270 Cl        1 M22        -0.0876
     27 C23         9.6540   11.0470   22.2260 C.1       1 M22         0.0979
     28 N24         9.4090   10.3340   23.1160 N.1       1 M22        -0.3283
     29 H1         11.2621   12.6818   13.1335 H         1 M22         0.0570
     30 H2          8.9136   13.3245   12.8639 H         1 M22         0.0458
     31 H3          8.1821   12.4885   17.0162 H         1 M22         0.0473
     32 H4         10.7911   14.3246   18.1678 H         1 M22         0.0629
     33 H5         10.1976   10.3427   19.6496 H         1 M22         0.0652
     34 H6          9.7754   13.7379   22.3114 H         1 M22         0.0637
     35 H7          5.2923   13.0905   13.8919 H         1 M22         0.0985
     36 H8          5.3890   12.5538   15.6035 H         1 M22         0.0985
     37 H9          6.8764   11.5443   12.2071 H         1 M22         0.2721
     38 H10         6.3408    6.8680   13.9526 H         1 M22         0.0614
     39 H11         5.5171    6.4741   16.2727 H         1 M22         0.0617
     40 H12         4.8806    8.3428   17.7552 H         1 M22         0.0618
     41 H13         5.1041   10.6861   16.9173 H         1 M22         0.0633
@<TRIPOS>BOND
     1    1    2 ar 
     2    1    6 ar 
     3   13    1 1  
     4    2    3 ar 
     5    2   26 1  
     6    3    4 ar 
     7    5    4 ar 
     8    6    5 ar 
     9    5   15 1  
    10    8    7 ar 
    11    7   12 ar 
    12    8    9 ar 
    13    8   13 1  
    14    9   10 ar 
    15   10   11 ar 
    16   10   27 1  
    17   11   12 ar 
    18   12   14 1  
    19   15   16 1  
    20   16   17 1  
    21   17   18 1  
    22   17   20 2  
    23   18   19 1  
    24   19   21 2  
    25   20   21 ar 
    26   20   25 ar 
    27   21   22 ar 
    28   22   23 ar 
    29   23   24 ar 
    30   24   25 ar 
    31   27   28 3  
    32    3   29 1  
    33    4   30 1  
    34    6   31 1  
    35    7   32 1  
    36    9   33 1  
    37   11   34 1  
    38   16   35 1  
    39   16   36 1  
    40   18   37 1  
    41   22   38 1  
    42   23   39 1  
    43   24   40 1  
    44   25   41 1  
@<TRIPOS>SUBSTRUCTURE
     1 M22         1

