### 
### Created by X-TOOL on Mon Sep 10 21:12:57 2018
### 

@<TRIPOS>MOLECULE
3c72_ligand
   79    82     1     0     0
SMALL
GAST_HUCK


@<TRIPOS>ATOM
      1 C40         3.1100   17.9730   26.8420 C.ar      1 CX1        -0.0686
      2 C41         2.8190   19.3390   26.8940 C.ar      1 CX1        -0.0398
      3 C42         3.8100   20.2650   27.2650 C.ar      1 CX1         0.0805
      4 O47         3.5240   21.6140   27.3110 O.3       1 CX1        -0.3376
      5 C43         5.0950   19.7970   27.5830 C.ar      1 CX1        -0.0398
      6 C44         5.3970   18.4310   27.5250 C.ar      1 CX1        -0.0686
      7 C39         4.4060   17.5150   27.1490 C.ar      1 CX1        -0.0499
      8 C24         4.7200   16.0010   27.0960 C.3       1 CX1         0.0108
      9 C23         5.4270   15.4910   25.8180 C.3       1 CX1         0.1025
     10 C25         4.7480   14.2180   25.2680 C.2       1 CX1         0.0619
     11 O26         5.2080   13.1200   25.6720 O.co2     1 CX1        -0.5665
     12 O27         3.8130   14.3520   24.4460 O.co2     1 CX1        -0.5665
     13 N22         5.5310   16.4980   24.7270 N.am      1 CX1        -0.2677
     14 C20         6.7100   16.8380   24.1980 C.2       1 CX1         0.2057
     15 O21         7.7750   16.3640   24.5710 O.2       1 CX1        -0.3942
     16 C18         6.6570   17.8680   23.0630 C.3       1 CX1         0.1428
     17 C19         7.4500   17.3630   21.8040 C.3       1 CX1         0.0216
     18 C33         7.6530   18.4600   20.6990 C.ar      1 CX1        -0.0385
     19 C34         8.7750   18.4430   19.8690 C.ar      1 CX1        -0.0601
     20 C35         8.9660   19.4240   18.9220 C.ar      1 CX1        -0.0686
     21 C36         8.0360   20.4230   18.7450 C.ar      1 CX1        -0.0687
     22 C37         6.9050   20.4480   19.5450 C.ar      1 CX1        -0.0686
     23 C38         6.7200   19.4800   20.5220 C.ar      1 CX1        -0.0601
     24 N16         7.1400   19.2050   23.5110 N.am      1 CX1        -0.2510
     25 C17         8.5700   19.5570   23.6260 C.3       1 CX1         0.0256
     26 C14         6.2510   20.1760   23.7850 C.2       1 CX1         0.2077
     27 O15         5.0390   20.0130   23.7410 O.2       1 CX1        -0.3941
     28 C12         6.8240   21.5370   24.2150 C.3       1 CX1         0.1389
     29 C13         5.9950   22.1680   25.3860 C.3       1 CX1         0.0145
     30 C28         6.6080   23.4940   25.9100 C.2       1 CX1        -0.0027
     31 C29         7.1010   23.7060   27.1420 C.2       1 CX1         0.0291
     32 N30         7.5510   24.9640   27.2300 N.pl3     1 CX1        -0.2752
     33 C31         7.3110   25.5280   26.0560 C.2       1 CX1         0.0907
     34 N32         6.7420   24.6360   25.2430 N.2       1 CX1        -0.3252
     35 N10         6.8890   22.5230   23.1090 N.am      1 CX1        -0.2398
     36 C9          8.0570   23.0070   22.6710 C.2       1 CX1         0.3240
     37 O11         9.1460   22.6510   23.1480 O.2       1 CX1        -0.3773
     38 O8          8.0540   23.9960   21.7070 O.3       1 CX1        -0.2505
     39 C7          7.9920   23.7810   20.2980 C.3       1 CX1         0.1113
     40 C5          7.2730   24.7440   19.6220 C.ar      1 CX1        -0.0130
     41 C6          7.3400   26.0700   20.0690 C.ar      1 CX1        -0.0578
     42 C1          6.6040   27.0590   19.4350 C.ar      1 CX1        -0.0685
     43 C2          5.7960   26.7190   18.3500 C.ar      1 CX1        -0.0687
     44 C3          5.7210   25.3900   17.9250 C.ar      1 CX1        -0.0685
     45 C4          6.4510   24.3890   18.5660 C.ar      1 CX1        -0.0578
     46 H1          2.3372   17.2651   26.5650 H         1 CX1         0.0530
     47 H2          1.8226   19.6870   26.6467 H         1 CX1         0.0525
     48 H3          4.3002   22.0922   27.5782 H         1 CX1         0.2458
     49 H4          5.8635   20.5026   27.8773 H         1 CX1         0.0525
     50 H5          6.3941   18.0835   27.7702 H         1 CX1         0.0530
     51 H6          3.7682   15.4579   27.1916 H         1 CX1         0.0446
     52 H7          5.3659   15.7626   27.9539 H         1 CX1         0.0446
     53 H8          6.4531   15.2236   26.1104 H         1 CX1         0.0747
     54 H9          4.6983   16.9307   24.3815 H         1 CX1         0.1877
     55 H10         5.6034   17.9806   22.7677 H         1 CX1         0.0825
     56 H11         6.8966   16.5224   21.3601 H         1 CX1         0.0474
     57 H12         8.4404   17.0165   22.1343 H         1 CX1         0.0474
     58 H13         9.5047   17.6479   19.9712 H         1 CX1         0.0557
     59 H14         9.8596   19.4094   18.3085 H         1 CX1         0.0599
     60 H15         8.1869   21.1830   17.9869 H         1 CX1         0.0559
     61 H16         6.1626   21.2258   19.4073 H         1 CX1         0.0599
     62 H17         5.8403   19.5176   21.1543 H         1 CX1         0.0557
     63 H18         8.6649   20.5959   23.9748 H         1 CX1         0.0488
     64 H19         9.0530   19.4546   22.6431 H         1 CX1         0.0488
     65 H20         9.0569   18.8827   24.3459 H         1 CX1         0.0488
     66 H21         7.8491   21.3616   24.5732 H         1 CX1         0.0816
     67 H22         5.9544   21.4474   26.2161 H         1 CX1         0.0420
     68 H23         4.9755   22.3703   25.0258 H         1 CX1         0.0420
     69 H24         7.1300   22.9696   27.9437 H         1 CX1         0.0729
     70 H25         7.9953   25.4052   28.0478 H         1 CX1         0.2361
     71 H26         7.5422   26.5596   25.7947 H         1 CX1         0.1199
     72 H27         6.0403   22.8333   22.6807 H         1 CX1         0.1900
     73 H28         7.5206   22.8040   20.1161 H         1 CX1         0.0776
     74 H29         9.0184   23.7723   19.9024 H         1 CX1         0.0776
     75 H30         7.9699   26.3237   20.9140 H         1 CX1         0.0557
     76 H31         6.6559   28.0857   19.7788 H         1 CX1         0.0599
     77 H32         5.2265   27.4854   17.8368 H         1 CX1         0.0559
     78 H33         5.0861   25.1331   17.0848 H         1 CX1         0.0599
     79 H34         6.3764   23.3564   18.2446 H         1 CX1         0.0557
@<TRIPOS>BOND
     1    1    2 ar 
     2    1    7 ar 
     3    2    3 ar 
     4    3    4 1  
     5    3    5 ar 
     6    5    6 ar 
     7    6    7 ar 
     8    7    8 1  
     9    8    9 1  
    10    9   10 1  
    11    9   13 1  
    12   10   11 ar 
    13   10   12 ar 
    14   13   14 am 
    15   14   15 2  
    16   14   16 1  
    17   16   17 1  
    18   16   24 1  
    19   17   18 1  
    20   18   19 ar 
    21   18   23 ar 
    22   19   20 ar 
    23   20   21 ar 
    24   21   22 ar 
    25   22   23 ar 
    26   24   25 1  
    27   24   26 am 
    28   26   27 2  
    29   26   28 1  
    30   28   29 1  
    31   28   35 1  
    32   29   30 1  
    33   30   31 2  
    34   30   34 1  
    35   31   32 1  
    36   32   33 1  
    37   33   34 2  
    38   35   36 am 
    39   36   37 2  
    40   36   38 1  
    41   38   39 1  
    42   39   40 1  
    43   40   41 ar 
    44   40   45 ar 
    45   41   42 ar 
    46   42   43 ar 
    47   43   44 ar 
    48   44   45 ar 
    49    1   46 1  
    50    2   47 1  
    51    4   48 1  
    52    5   49 1  
    53    6   50 1  
    54    8   51 1  
    55    8   52 1  
    56    9   53 1  
    57   13   54 1  
    58   16   55 1  
    59   17   56 1  
    60   17   57 1  
    61   19   58 1  
    62   20   59 1  
    63   21   60 1  
    64   22   61 1  
    65   23   62 1  
    66   25   63 1  
    67   25   64 1  
    68   25   65 1  
    69   28   66 1  
    70   29   67 1  
    71   29   68 1  
    72   31   69 1  
    73   32   70 1  
    74   33   71 1  
    75   35   72 1  
    76   39   73 1  
    77   39   74 1  
    78   41   75 1  
    79   42   76 1  
    80   43   77 1  
    81   44   78 1  
    82   45   79 1  
@<TRIPOS>SUBSTRUCTURE
     1 CX1         1

