### 
### Created by X-TOOL on Mon Sep 10 21:12:57 2018
### 

@<TRIPOS>MOLECULE
3c79_ligand
   25    26     1     0     0
SMALL
GAST_HUCK


@<TRIPOS>ATOM
      1 C5         55.2750  -20.5120   -6.9230 C.ar      1 IM4        -0.0394
      2 C6         54.2610  -20.4010   -7.9300 C.ar      1 IM4        -0.0241
      3 C1         53.0290  -19.8510   -7.6560 C.ar      1 IM4         0.1103
      4 CL7        51.8910  -19.7340   -8.6580 Cl        1 IM4        -0.0460
      5 N2         52.9340  -19.3680   -6.3650 N.ar      1 IM4        -0.2896
      6 C3         53.8530  -19.4780   -5.3920 C.ar      1 IM4         0.0126
      7 C4         55.0840  -20.0910   -5.6230 C.ar      1 IM4         0.0177
      8 C8         56.1960  -20.1820   -4.5260 C.3       1 IM4         0.1476
      9 N9         55.6380  -20.1150   -3.1670 N.pl3     1 IM4        -0.0187
     10 C13        55.5980  -18.9470   -2.3080 C.2       1 IM4         0.2685
     11 C12        54.9030  -19.4350   -1.0100 C.2       1 IM4         0.2383
     12 N11        54.6560  -20.8390   -1.2930 N.2       1 IM4        -0.0373
     13 C10        55.0810  -21.1370   -2.5310 C.2       1 IM4         0.4798
     14 N14        55.0280  -22.3550   -3.0860 N.pl3     1 IM4        -0.0256
     15 N15        54.5070  -23.2770   -2.4490 N.2       1 IM4        -0.0593
     16 O16        54.4070  -24.7610   -2.9580 O.2       1 IM4        -0.4608
     17 O17        53.9980  -22.9420   -1.1440 O.2       1 IM4        -0.4608
     18 H1         56.2313  -20.9445   -7.1940 H         1 IM4         0.0671
     19 H2         54.4693  -20.7589   -8.9318 H         1 IM4         0.0677
     20 H3         53.6334  -19.0822   -4.4070 H         1 IM4         0.0755
     21 H4         56.8985  -19.3467   -4.6627 H         1 IM4         0.0853
     22 H5         56.7325  -21.1352   -4.6427 H         1 IM4         0.0853
     23 H6         55.9730  -17.9482   -2.5261 H         1 IM4         0.2786
     24 H7         54.6610  -18.8681   -0.1123 H         1 IM4         0.1917
     25 H8         55.4144  -22.5201   -4.0264 H         1 IM4         0.3355
@<TRIPOS>BOND
     1    1    2 ar 
     2    1    7 ar 
     3    2    3 ar 
     4    3    4 1  
     5    3    5 ar 
     6    5    6 ar 
     7    6    7 ar 
     8    7    8 1  
     9    8    9 1  
    10    9   10 1  
    11    9   13 1  
    12   10   11 2  
    13   11   12 1  
    14   12   13 2  
    15   13   14 1  
    16   14   15 1  
    17   15   16 2  
    18   15   17 2  
    19    1   18 1  
    20    2   19 1  
    21    6   20 1  
    22    8   21 1  
    23    8   22 1  
    24   10   23 1  
    25   11   24 1  
    26   14   25 1  
@<TRIPOS>SUBSTRUCTURE
     1 IM4         1

