### 
### Created by X-TOOL on Mon Sep 10 21:13:00 2018
### 

@<TRIPOS>MOLECULE
3c7p_ligand
   60    64     1     0     0
SMALL
GAST_HUCK


@<TRIPOS>ATOM
      1 O1         -4.6800    1.4930   17.2800 O.2       1 POF        -0.1231
      2 O3         -4.9330    1.2870   14.8720 O.3       1 POF        -0.1608
      3 O4         -3.4500   12.4880   13.7150 O.2       1 POF        -0.3854
      4 O2         -6.9220    1.4180   16.2440 O.2       1 POF        -0.1231
      5 C1         -4.3760    2.5740   14.6350 C.ar      1 POF         0.1110
      6 C2         -5.1710    3.7340   14.5710 C.ar      1 POF        -0.0357
      7 N1         -5.5760   -0.6130   16.4690 N.am      1 POF        -0.2383
      8 C3         -4.5510    4.9930   14.3370 C.ar      1 POF        -0.0490
      9 C4         -3.1170    5.0780   14.1670 C.ar      1 POF        -0.0484
     10 C5         -2.3670    3.8670   14.2420 C.ar      1 POF        -0.0748
     11 S1         -5.5770    0.9490   16.3160 S.o2      1 POF         0.1773
     12 C6         -2.9870    2.6250   14.4740 C.ar      1 POF        -0.0441
     13 C7         -5.4180    6.2340   14.2780 C.3       1 POF        -0.0236
     14 C8         -4.6140    7.5400   14.4800 C.3       1 POF        -0.0396
     15 C9         -3.4180    7.5800   13.5200 C.3       1 POF        -0.0248
     16 C10        -2.4140    6.4390   13.9220 C.3       1 POF        -0.0117
     17 C11        -2.6400    8.9410   13.5400 C.3       1 POF        -0.0065
     18 C12        -1.4390    8.9480   12.4970 C.3       1 POF         0.0594
     19 C13        -0.5220    7.7130   12.7590 C.3       1 POF        -0.0385
     20 C14        -1.2910    6.3770   12.8570 C.3       1 POF        -0.0430
     21 C15        -1.9510    8.9040   11.0140 C.3       1 POF        -0.0522
     22 C16        -3.5490   10.1820   13.2730 C.3       1 POF         0.0458
     23 C17        -2.8090   11.4950   13.3620 C.2       1 POF         0.2095
     24 N2         -1.3750   11.5060   13.0330 N.am      1 POF        -0.1717
     25 C18        -0.6570   10.2720   12.6100 C.2       1 POF         0.2350
     26 O5          0.5590   10.2800   12.3390 O.2       1 POF        -0.3326
     27 C19        -0.5980   12.8190   13.1270 C.3       1 POF         0.0982
     28 C20        -0.1300   13.2150   14.4610 C.ar      1 POF         0.0121
     29 C21         0.7380   12.4350   15.2330 C.ar      1 POF        -0.0381
     30 C22         1.1880   12.8690   16.5700 C.ar      1 POF        -0.0404
     31 C23         0.7280   14.0810   17.0520 C.ar      1 POF         0.0042
     32 N3         -0.0900   14.8090   16.3170 N.ar      1 POF        -0.3043
     33 C24        -0.5460   14.4300   15.0300 C.ar      1 POF         0.0149
     34 H1         -6.2455    3.6686   14.6988 H         1 POF         0.0463
     35 H2         -5.9369   -1.0341   17.3011 H         1 POF         0.1657
     36 H3         -5.2145   -1.1871   15.7343 H         1 POF         0.1657
     37 H4         -1.2909    3.9043   14.1170 H         1 POF         0.0511
     38 H5         -2.3953    1.7183   14.5273 H         1 POF         0.0469
     39 H6         -6.1817    6.1665   15.0668 H         1 POF         0.0410
     40 H7         -5.9090    6.2727   13.2945 H         1 POF         0.0410
     41 H8         -4.2493    7.5855   15.5168 H         1 POF         0.0290
     42 H9         -5.2671    8.4029   14.2828 H         1 POF         0.0290
     43 H10        -3.7862    7.4031   12.4987 H         1 POF         0.0326
     44 H11        -1.9477    6.7272   14.8756 H         1 POF         0.0429
     45 H12        -2.2135    9.0530   14.5477 H         1 POF         0.0321
     46 H13         0.0155    7.8742   13.7051 H         1 POF         0.0258
     47 H14         0.2019    7.6370   11.9343 H         1 POF         0.0258
     48 H15        -1.7398    6.1515   11.8784 H         1 POF         0.0285
     49 H16        -0.5851    5.5786   13.1294 H         1 POF         0.0285
     50 H17        -2.5983    9.7728   10.8237 H         1 POF         0.0222
     51 H18        -2.5224    7.9783   10.8506 H         1 POF         0.0222
     52 H19        -1.0913    8.9301   10.3283 H         1 POF         0.0222
     53 H20        -4.3598   10.1872   14.0164 H         1 POF         0.0509
     54 H21        -3.9772   10.0904   12.2639 H         1 POF         0.0509
     55 H22        -1.2514   13.6204   12.7517 H         1 POF         0.0758
     56 H23         0.2849   12.7310   12.4768 H         1 POF         0.0758
     57 H24         1.0888   11.4880   14.8392 H         1 POF         0.0679
     58 H25         1.8604   12.2548   17.1579 H         1 POF         0.0693
     59 H26         1.0385   14.4311   18.0298 H         1 POF         0.0767
     60 H27        -1.2185   15.0803   14.4824 H         1 POF         0.0766
@<TRIPOS>BOND
     1   11    1 2  
     2    5    2 1  
     3    2   11 1  
     4   23    3 2  
     5   11    4 2  
     6    6    5 ar 
     7   12    5 ar 
     8    8    6 ar 
     9   11    7 am 
    10    9    8 ar 
    11   13    8 1  
    12    9   10 ar 
    13   16    9 1  
    14   10   12 ar 
    15   14   13 1  
    16   15   14 1  
    17   15   16 1  
    18   17   15 1  
    19   16   20 1  
    20   17   18 1  
    21   22   17 1  
    22   18   19 1  
    23   18   21 1  
    24   18   25 1  
    25   19   20 1  
    26   22   23 1  
    27   23   24 am 
    28   24   25 am 
    29   24   27 1  
    30   25   26 2  
    31   27   28 1  
    32   28   29 ar 
    33   28   33 ar 
    34   29   30 ar 
    35   30   31 ar 
    36   31   32 ar 
    37   32   33 ar 
    38    6   34 1  
    39    7   35 1  
    40    7   36 1  
    41   10   37 1  
    42   12   38 1  
    43   13   39 1  
    44   13   40 1  
    45   14   41 1  
    46   14   42 1  
    47   15   43 1  
    48   16   44 1  
    49   17   45 1  
    50   19   46 1  
    51   19   47 1  
    52   20   48 1  
    53   20   49 1  
    54   21   50 1  
    55   21   51 1  
    56   21   52 1  
    57   22   53 1  
    58   22   54 1  
    59   27   55 1  
    60   27   56 1  
    61   29   57 1  
    62   30   58 1  
    63   31   59 1  
    64   33   60 1  
@<TRIPOS>SUBSTRUCTURE
     1 POF         1

