### 
### Created by X-TOOL on Mon Sep 10 21:12:58 2018
### 

@<TRIPOS>MOLECULE
3c7q_ligand
   75    79     1     0     0
SMALL
GAST_HUCK


@<TRIPOS>ATOM
      1 C1         21.3310   64.4740   30.7450 C.2       1 XIN         0.0662
      2 C2         20.9760   63.1320   31.1930 C.ar      1 XIN        -0.0070
      3 C3         20.8030   65.3580   29.8830 C.2       1 XIN         0.0935
      4 C4         22.5800   64.8020   31.4790 C.2       1 XIN         0.2024
      5 C5         21.9510   62.7530   32.0920 C.ar      1 XIN         0.0676
      6 C6         19.9510   62.2800   30.9270 C.ar      1 XIN        -0.0733
      7 C7         19.5670   65.0430   29.1840 C.ar      1 XIN         0.0233
      8 C11        21.9460   61.5360   32.7280 C.ar      1 XIN        -0.0286
      9 C12        19.9250   61.0470   31.5410 C.ar      1 XIN        -0.0644
     10 C15        21.0950   67.6490   28.8550 C.ar      1 XIN         0.0533
     11 C16        20.8970   60.6570   32.4460 C.ar      1 XIN         0.0398
     12 C17        17.2270   64.6330   29.3230 C.ar      1 XIN        -0.0564
     13 C18        18.3210   64.6410   27.2250 C.ar      1 XIN        -0.0564
     14 C19        22.1550   68.4590   28.7880 C.ar      1 XIN        -0.0490
     15 C21        20.8490   59.3010   33.0550 C.2       1 XIN         0.2527
     16 C23        22.1340   69.6170   28.0560 C.ar      1 XIN        -0.0484
     17 C24        19.9460   69.1960   27.3650 C.ar      1 XIN        -0.0484
     18 O25        21.9080   58.9770   33.7750 O.3       1 XIN        -0.2824
     19 O26        19.9910   58.5370   32.8490 O.2       1 XIN        -0.3615
     20 C27        21.0450   70.0310   27.3330 C.ar      1 XIN         0.0593
     21 C30        20.6560   72.4280   27.1380 C.2       1 XIN         0.2489
     22 C31        21.8660   71.3300   25.3760 C.3       1 XIN         0.0427
     23 C32        20.1990   72.3990   28.6000 C.3       1 XIN         0.0640
     24 C35        19.6040   74.0660   30.2000 C.3       1 XIN         0.0113
     25 C36        21.8290   73.3870   30.1250 C.3       1 XIN         0.0113
     26 C37        19.9350   75.4220   30.7970 C.3       1 XIN         0.0092
     27 C38        22.2460   74.7440   30.6790 C.3       1 XIN         0.0092
     28 C40        21.6020   76.7500   31.7510 C.3       1 XIN        -0.0427
     29 O33        20.6590   73.4410   26.5050 O.2       1 XIN        -0.3800
     30 N34        20.6530   73.5700   29.3270 N.4       1 XIN         0.2598
     31 N39        21.2120   75.3920   31.4700 N.4       1 XIN         0.2405
     32 N29        21.1430   71.2580   26.6250 N.am      1 XIN        -0.2243
     33 C20        19.9940   68.0210   28.1170 C.ar      1 XIN        -0.0490
     34 N8         21.3550   66.5720   29.6290 N.pl3     1 XIN        -0.2669
     35 C14        19.5140   64.9250   27.8200 C.ar      1 XIN        -0.0447
     36 C22        17.1770   64.4780   27.9650 C.ar      1 XIN        -0.0576
     37 C13        18.4160   64.9180   29.9220 C.ar      1 XIN        -0.0447
     38 C28        21.8240   57.6660   34.2350 C.3       1 XIN         0.0644
     39 N9         22.8730   63.7300   32.2230 N.am      1 XIN        -0.2432
     40 O10        23.1970   65.7690   31.4040 O.2       1 XIN        -0.3972
     41 H1         19.1633   62.5672   30.2399 H         1 XIN         0.0517
     42 H2         22.7302   61.2660   33.4260 H         1 XIN         0.0529
     43 H3         19.1185   60.3611   31.3082 H         1 XIN         0.0523
     44 H4         16.3267   64.5297   29.9179 H         1 XIN         0.0629
     45 H5         18.2751   64.5420   26.1465 H         1 XIN         0.0629
     46 H6         23.0567   68.1928   29.3276 H         1 XIN         0.0509
     47 H7         23.0231   70.2371   28.0481 H         1 XIN         0.0481
     48 H8         19.0510   69.4514   26.8093 H         1 XIN         0.0481
     49 H9         22.1967   70.3220   25.0852 H         1 XIN         0.0546
     50 H10        22.7430   71.9829   25.4971 H         1 XIN         0.0546
     51 H11        21.2088   71.7398   24.5949 H         1 XIN         0.0546
     52 H12        20.6068   71.4990   29.0833 H         1 XIN         0.1067
     53 H13        19.0999   72.3650   28.6295 H         1 XIN         0.1067
     54 H14        18.6742   74.1542   29.6188 H         1 XIN         0.0868
     55 H15        19.4576   73.3465   31.0191 H         1 XIN         0.0868
     56 H16        21.6125   72.6972   30.9540 H         1 XIN         0.0868
     57 H17        22.6384   72.9733   29.5055 H         1 XIN         0.0868
     58 H18        19.1534   75.6973   31.5203 H         1 XIN         0.0868
     59 H19        19.9699   76.1709   29.9920 H         1 XIN         0.0868
     60 H20        22.5009   75.4011   29.8345 H         1 XIN         0.0868
     61 H21        23.1327   74.6028   31.3144 H         1 XIN         0.0868
     62 H22        20.8196   77.2398   32.3493 H         1 XIN         0.0778
     63 H23        21.7363   77.2960   30.8056 H         1 XIN         0.0778
     64 H24        22.5478   76.7512   32.3127 H         1 XIN         0.0778
     65 H25        20.8601   74.2789   28.6409 H         1 XIN         0.2057
     66 H26        21.1096   74.8875   32.3366 H         1 XIN         0.2035
     67 H27        19.1255   67.3724   28.1200 H         1 XIN         0.0509
     68 H28        22.2131   66.7115   30.1814 H         1 XIN         0.2175
     69 H29        20.4087   65.0557   27.2221 H         1 XIN         0.0667
     70 H30        16.2415   64.2285   27.4774 H         1 XIN         0.0652
     71 H31        18.4545   65.0481   30.9975 H         1 XIN         0.0667
     72 H32        22.7185   57.4280   34.8294 H         1 XIN         0.0575
     73 H33        21.7603   56.9799   33.3776 H         1 XIN         0.0575
     74 H34        20.9269   57.5540   34.8617 H         1 XIN         0.0575
     75 H35        23.6810   63.6604   32.8081 H         1 XIN         0.2232
@<TRIPOS>BOND
     1    1    2 1  
     2    3    1 2  
     3    1    4 1  
     4    2    5 ar 
     5    2    6 ar 
     6    3    7 1  
     7   34    3 1  
     8    4   39 am 
     9    4   40 2  
    10    5    8 ar 
    11   39    5 1  
    12    6    9 ar 
    13    7   35 ar 
    14    7   37 ar 
    15    8   11 ar 
    16    9   11 ar 
    17   14   10 ar 
    18   33   10 ar 
    19   10   34 1  
    20   11   15 1  
    21   12   36 ar 
    22   37   12 ar 
    23   35   13 ar 
    24   13   36 ar 
    25   16   14 ar 
    26   15   18 1  
    27   15   19 2  
    28   20   16 ar 
    29   20   17 ar 
    30   17   33 ar 
    31   18   38 1  
    32   32   20 1  
    33   23   21 1  
    34   21   29 2  
    35   21   32 am 
    36   32   22 1  
    37   30   23 1  
    38   24   26 1  
    39   30   24 1  
    40   25   27 1  
    41   25   30 1  
    42   26   31 1  
    43   27   31 1  
    44   31   28 1  
    45    6   41 1  
    46    8   42 1  
    47    9   43 1  
    48   12   44 1  
    49   13   45 1  
    50   14   46 1  
    51   16   47 1  
    52   17   48 1  
    53   22   49 1  
    54   22   50 1  
    55   22   51 1  
    56   23   52 1  
    57   23   53 1  
    58   24   54 1  
    59   24   55 1  
    60   25   56 1  
    61   25   57 1  
    62   26   58 1  
    63   26   59 1  
    64   27   60 1  
    65   27   61 1  
    66   28   62 1  
    67   28   63 1  
    68   28   64 1  
    69   30   65 1  
    70   31   66 1  
    71   33   67 1  
    72   34   68 1  
    73   35   69 1  
    74   36   70 1  
    75   37   71 1  
    76   38   72 1  
    77   38   73 1  
    78   38   74 1  
    79   39   75 1  
@<TRIPOS>SUBSTRUCTURE
     1 XIN         1

