### 
### Created by X-TOOL on Mon Sep 10 21:12:57 2018
### 

@<TRIPOS>MOLECULE
3c84_ligand
   25    26     1     0     0
SMALL
GAST_HUCK


@<TRIPOS>ATOM
      1 C5        -12.5870   20.4270   59.5610 C.ar      1 TH4        -0.0402
      2 C6        -11.6010   20.4210   58.5510 C.ar      1 TH4        -0.0242
      3 C1        -10.3650   19.7710   58.7150 C.ar      1 TH4         0.1103
      4 CL7        -9.2760   19.7750   57.5600 Cl        1 TH4        -0.0460
      5 N2        -10.1750   19.1750   59.9190 N.ar      1 TH4        -0.2896
      6 C3        -11.0350   19.1800   60.9180 C.ar      1 TH4         0.0118
      7 C4        -12.3060   19.8100   60.7720 C.ar      1 TH4         0.0068
      8 C8        -13.3820   19.8170   61.8830 C.3       1 TH4         0.0839
      9 N9        -12.7950   19.7210   63.2340 N.pl3     1 TH4        -0.2339
     10 C13       -12.8390   18.4490   64.0110 C.3       1 TH4         0.0607
     11 C12       -12.6380   18.8190   65.4870 C.3       1 TH4         0.0468
     12 S11       -11.5690   20.3000   65.3880 S.3       1 TH4        -0.0038
     13 C10       -12.1630   20.7600   63.8390 C.2       1 TH4         0.2172
     14 N14       -12.0430   21.9480   63.2520 N.2       1 TH4        -0.1896
     15 C15       -11.4510   22.9790   63.8050 C.1       1 TH4         0.1104
     16 N16       -10.9630   23.9160   64.2370 N.1       1 TH4        -0.3783
     17 H1        -13.5457   20.9046   59.3939 H         1 TH4         0.0671
     18 H2        -11.8033   20.9345   57.6180 H         1 TH4         0.0677
     19 H3        -10.7746   18.7026   61.8557 H         1 TH4         0.0755
     20 H4        -14.0552   18.9609   61.7285 H         1 TH4         0.0727
     21 H5        -13.9564   20.7525   61.8129 H         1 TH4         0.0727
     22 H6        -12.0365   17.7746   63.6778 H         1 TH4         0.0566
     23 H7        -13.8128   17.9560   63.8742 H         1 TH4         0.0566
     24 H8        -12.1397   18.0061   66.0355 H         1 TH4         0.0445
     25 H9        -13.5973   19.0539   65.9713 H         1 TH4         0.0445
@<TRIPOS>BOND
     1    1    2 ar 
     2    1    7 ar 
     3    2    3 ar 
     4    3    4 1  
     5    3    5 ar 
     6    5    6 ar 
     7    6    7 ar 
     8    7    8 1  
     9    8    9 1  
    10    9   10 1  
    11    9   13 1  
    12   10   11 1  
    13   11   12 1  
    14   12   13 1  
    15   13   14 2  
    16   14   15 1  
    17   15   16 3  
    18    1   17 1  
    19    2   18 1  
    20    6   19 1  
    21    8   20 1  
    22    8   21 1  
    23   10   22 1  
    24   10   23 1  
    25   11   24 1  
    26   11   25 1  
@<TRIPOS>SUBSTRUCTURE
     1 TH4         1

