### 
### Created by X-TOOL on Mon Sep 10 21:12:58 2018
### 

@<TRIPOS>MOLECULE
3c88_ligand
   70    69     1     0     0
SMALL
GAST_HUCK


@<TRIPOS>ATOM
      1 N          27.8550   27.4330   53.0950 N.4       1 ARG         0.2379
      2 CA         27.7950   25.9750   53.1300 C.3       1 ARG         0.0651
      3 C          26.8210   25.4980   54.2010 C.2       1 ARG         0.2267
      4 O          26.6570   26.1420   55.2370 O.2       1 ARG        -0.3907
      5 CB         29.1790   25.3830   53.3980 C.3       1 ARG         0.0110
      6 CG         30.2160   25.7210   52.3460 C.3       1 ARG        -0.0125
      7 CD         31.4460   24.8380   52.5070 C.3       1 ARG         0.0629
      8 NE         32.4790   25.1620   51.5310 N.pl3     1 ARG        -0.2723
      9 CZ         33.2360   26.2530   51.5750 C.cat     1 ARG         0.2882
     10 NH1        33.0830   27.1340   52.5550 N.pl3     1 ARG        -0.2849
     11 NH2        34.1460   26.4650   50.6330 N.pl3     1 ARG        -0.2849
     12 N          26.1930   24.3570   53.9290 N.am      1 ARG        -0.2610
     13 CA         25.2060   23.7390   54.8050 C.3       1 ARG         0.1312
     14 C          25.7490   23.1340   56.1060 C.2       1 ARG         0.2037
     15 O          25.1020   23.2930   57.1650 O.2       1 ARG        -0.3944
     16 CB         24.4540   22.6430   54.0370 C.3       1 ARG        -0.0092
     17 CG         23.3920   23.1660   53.0790 C.3       1 ARG        -0.0156
     18 CD         22.0880   23.4010   53.8200 C.3       1 ARG         0.0627
     19 NE         21.7290   22.2400   54.6280 N.pl3     1 ARG        -0.2723
     20 CZ         20.5720   22.0980   55.2650 C.cat     1 ARG         0.2882
     21 NH1        19.6420   23.0440   55.1920 N.pl3     1 ARG        -0.2849
     22 NH2        20.3460   21.0070   55.9780 N.pl3     1 ARG        -0.2849
     23 N          26.9130   22.4690   56.0300 N.am      1 GLY        -0.2664
     24 CA         27.4630   21.8000   57.2100 C.3       1 GLY         0.1201
     25 C          26.8430   20.4100   57.4370 C.2       1 GLY         0.2009
     26 O          26.2280   19.8580   56.4910 O.2       1 GLY        -0.3947
     27 N          26.9920   19.8930   58.6750 N.am      1 CYS        -0.2618
     28 CA         26.4840   18.5580   59.0650 C.3       1 CYS         0.1507
     29 C          24.9800   18.5250   59.0440 C.2       1 CYS         0.2579
     30 O          24.4540   17.4080   58.8560 O.2       1 CYS        -0.3680
     31 CB         26.9490   18.1090   60.4710 C.3       1 CYS         0.0324
     32 SG         28.7350   17.8750   60.6350 S.3       1 CYS        -0.1734
     33 O1         24.2512   19.6242   59.2161 O.3       1 CYS        -0.2909
     34 H1         28.5037   27.7255   52.3811 H         1 ARG         0.2015
     35 H2         28.1629   27.7782   53.9906 H         1 ARG         0.2015
     36 H3         26.9399   27.8021   52.8891 H         1 ARG         0.2015
     37 H4         27.4431   25.6183   52.1508 H         1 ARG         0.1098
     38 H5         29.0820   24.2884   53.4469 H         1 ARG         0.0347
     39 H6         29.5347   25.7632   54.3670 H         1 ARG         0.0347
     40 H7         30.5107   26.7753   52.4537 H         1 ARG         0.0302
     41 H8         29.7839   25.5612   51.3472 H         1 ARG         0.0302
     42 H9         31.1491   23.7871   52.3750 H         1 ARG         0.0689
     43 H10        31.8553   24.9792   53.5182 H         1 ARG         0.0689
     44 H11        32.6323   24.5013   50.7558 H         1 ARG         0.2642
     45 H12        33.6721   27.9784   52.5851 H         1 ARG         0.2615
     46 H13        32.3751   26.9736   53.2858 H         1 ARG         0.2615
     47 H14        34.2670   25.7827   49.8709 H         1 ARG         0.2615
     48 H15        34.7315   27.3119   50.6638 H         1 ARG         0.2615
     49 H16        26.4120   23.8947   53.0698 H         1 ARG         0.1884
     50 H17        24.4884   24.5240   55.0857 H         1 ARG         0.0800
     51 H18        23.9636   21.9841   54.7687 H         1 ARG         0.0313
     52 H19        25.1872   22.0643   53.4560 H         1 ARG         0.0313
     53 H20        23.2280   22.4279   52.2801 H         1 ARG         0.0301
     54 H21        23.7352   24.1135   52.6381 H         1 ARG         0.0301
     55 H22        21.2883   23.5918   53.0892 H         1 ARG         0.0689
     56 H23        22.2004   24.2758   54.4773 H         1 ARG         0.0689
     57 H24        22.4190   21.4797   54.7099 H         1 ARG         0.2642
     58 H25        18.7475   22.9262   55.6889 H         1 ARG         0.2615
     59 H26        19.8155   23.8952   54.6385 H         1 ARG         0.2615
     60 H27        21.0651   20.2719   56.0365 H         1 ARG         0.2615
     61 H28        19.4510   20.8926   56.4747 H         1 ARG         0.2615
     62 H29        27.4074   22.4305   55.1616 H         1 GLY         0.1881
     63 H30        27.2655   22.4238   58.0942 H         1 GLY         0.0763
     64 H31        28.5489   21.6853   57.0773 H         1 GLY         0.0763
     65 H32        27.4695   20.4391   59.3633 H         1 CYS         0.1885
     66 H33        26.8621   17.8317   58.3305 H         1 CYS         0.0825
     67 H34        26.4550   17.1550   60.7072 H         1 CYS         0.0423
     68 H35        26.6353   18.8739   61.1966 H         1 CYS         0.0423
     69 H36        28.9496   17.5846   61.5761 H         1 CYS         0.1019
     70 H37        24.8278   20.3684   59.3437 H         1 CYS         0.2540
@<TRIPOS>BOND
     1    2    1 1  
     2    2    5 1  
     3    3    2 1  
     4    3    4 2  
     5    5    6 1  
     6    6    7 1  
     7    7    8 1  
     8    8    9 ar 
     9    9   11 ar 
    10    9   10 ar 
    11   13   12 1  
    12   13   16 1  
    13   14   13 1  
    14   14   15 2  
    15   16   17 1  
    16   17   18 1  
    17   18   19 1  
    18   19   20 ar 
    19   20   22 ar 
    20   20   21 ar 
    21   12    3 am 
    22   24   23 1  
    23   25   24 1  
    24   25   26 2  
    25   23   14 am 
    26   27   28 1  
    27   28   31 1  
    28   28   29 1  
    29   29   30 2  
    30   31   32 1  
    31   25   27 am 
    32   29   33 1  
    33    1   34 1  
    34    1   35 1  
    35    1   36 1  
    36    2   37 1  
    37    5   38 1  
    38    5   39 1  
    39    6   40 1  
    40    6   41 1  
    41    7   42 1  
    42    7   43 1  
    43    8   44 1  
    44   10   45 1  
    45   10   46 1  
    46   11   47 1  
    47   11   48 1  
    48   12   49 1  
    49   13   50 1  
    50   16   51 1  
    51   16   52 1  
    52   17   53 1  
    53   17   54 1  
    54   18   55 1  
    55   18   56 1  
    56   19   57 1  
    57   21   58 1  
    58   21   59 1  
    59   22   60 1  
    60   22   61 1  
    61   23   62 1  
    62   24   63 1  
    63   24   64 1  
    64   27   65 1  
    65   28   66 1  
    66   31   67 1  
    67   31   68 1  
    68   32   69 1  
    69   33   70 1  
@<TRIPOS>SUBSTRUCTURE
     1 ARG         1

