### 
### Created by X-TOOL on Mon Sep 10 21:12:57 2018
### 

@<TRIPOS>MOLECULE
3c89_ligand
   76    75     1     0     0
SMALL
GAST_HUCK


@<TRIPOS>ATOM
      1 N          27.5560   27.4460   53.1860 N.4       1 ARG         0.2379
      2 CA         27.5310   25.9890   53.2650 C.3       1 ARG         0.0651
      3 C          26.5300   25.5250   54.3160 C.2       1 ARG         0.2267
      4 O          26.3950   26.1300   55.3770 O.2       1 ARG        -0.3907
      5 CB         28.9130   25.4350   53.6130 C.3       1 ARG         0.0110
      6 CG         29.9880   25.7270   52.5860 C.3       1 ARG        -0.0125
      7 CD         31.2620   24.9520   52.9150 C.3       1 ARG         0.0629
      8 NE         32.3300   25.2220   51.9590 N.pl3     1 ARG        -0.2723
      9 CZ         33.0390   26.3460   51.9150 C.cat     1 ARG         0.2882
     10 NH1        32.8050   27.3230   52.7820 N.pl3     1 ARG        -0.2849
     11 NH2        33.9820   26.4960   50.9930 N.pl3     1 ARG        -0.2849
     12 N          25.8510   24.4230   54.0130 N.am      1 ARG        -0.2610
     13 CA         24.8220   23.8370   54.8800 C.3       1 ARG         0.1312
     14 C          25.3360   23.2260   56.1830 C.2       1 ARG         0.2037
     15 O          24.7030   23.3940   57.2470 O.2       1 ARG        -0.3944
     16 CB         24.0650   22.7730   54.1000 C.3       1 ARG        -0.0092
     17 CG         23.0880   23.2970   53.0480 C.3       1 ARG        -0.0156
     18 CD         21.7110   23.4700   53.6660 C.3       1 ARG         0.0627
     19 NE         21.4660   22.4190   54.6500 N.pl3     1 ARG        -0.2723
     20 CZ         20.3580   22.2970   55.3740 C.cat     1 ARG         0.2882
     21 NH1        19.3610   23.1560   55.2310 N.pl3     1 ARG        -0.2849
     22 NH2        20.2620   21.3260   56.2700 N.pl3     1 ARG        -0.2849
     23 N          26.4550   22.5030   56.1000 N.am      1 GLY        -0.2664
     24 CA         27.0410   21.8860   57.2770 C.3       1 GLY         0.1201
     25 C          26.4990   20.4920   57.5720 C.2       1 GLY         0.2008
     26 O          25.8330   19.8790   56.7590 O.2       1 GLY        -0.3947
     27 N          26.7820   19.9960   58.7720 N.am      1 MET        -0.2626
     28 CA         26.3340   18.6590   59.2010 C.3       1 MET         0.1427
     29 C          24.8160   18.5630   59.2910 C.2       1 MET         0.2571
     30 O          24.2430   17.4770   59.0150 O.2       1 MET        -0.3680
     31 CB         26.9080   18.3180   60.5780 C.3       1 MET        -0.0020
     32 CG         28.4140   18.1270   60.6320 C.3       1 MET        -0.0023
     33 SD         28.9710   16.6080   59.8460 S.3       1 MET        -0.1639
     34 CE         28.7230   15.4050   61.1540 C.3       1 MET        -0.0181
     35 O1         24.1001   19.6216   59.6594 O.3       1 MET        -0.2910
     36 H1         28.2228   27.7332   52.4867 H         1 ARG         0.2015
     37 H2         27.8224   27.8265   54.0806 H         1 ARG         0.2015
     38 H3         26.6401   27.7847   52.9361 H         1 ARG         0.2015
     39 H4         27.2270   25.5922   52.2852 H         1 ARG         0.1098
     40 H5         28.8280   24.3435   53.7194 H         1 ARG         0.0347
     41 H6         29.2267   25.8736   54.5718 H         1 ARG         0.0347
     42 H7         30.2084   26.8047   52.5882 H         1 ARG         0.0302
     43 H8         29.6289   25.4282   51.5902 H         1 ARG         0.0302
     44 H9         31.0363   23.8755   52.9001 H         1 ARG         0.0689
     45 H10        31.6038   25.2412   53.9198 H         1 ARG         0.0689
     46 H11        32.5507   24.4899   51.2689 H         1 ARG         0.2642
     47 H12        33.3583   28.1908   52.7417 H         1 ARG         0.2615
     48 H13        32.0700   27.2135   53.4953 H         1 ARG         0.2615
     49 H14        34.1671   25.7404   50.3180 H         1 ARG         0.2615
     50 H15        34.5286   27.3680   50.9526 H         1 ARG         0.2615
     51 H16        26.0527   23.9678   53.1457 H         1 ARG         0.1884
     52 H17        24.1215   24.6415   55.1483 H         1 ARG         0.0800
     53 H18        23.4949   22.1670   54.8195 H         1 ARG         0.0313
     54 H19        24.8036   22.1376   53.5895 H         1 ARG         0.0313
     55 H20        23.0275   22.5797   52.2162 H         1 ARG         0.0301
     56 H21        23.4434   24.2671   52.6705 H         1 ARG         0.0301
     57 H22        20.9480   23.4133   52.8757 H         1 ARG         0.0689
     58 H23        21.6548   24.4511   54.1602 H         1 ARG         0.0689
     59 H24        22.2080   21.7193   54.7938 H         1 ARG         0.2642
     60 H25        18.5067   23.0524   55.7970 H         1 ARG         0.2615
     61 H26        19.4395   23.9280   54.5537 H         1 ARG         0.2615
     62 H27        21.0342   20.6543   56.3863 H         1 ARG         0.2615
     63 H28        19.4152   21.2427   56.8504 H         1 ARG         0.2615
     64 H29        26.8979   22.3840   55.2113 H         1 GLY         0.1881
     65 H30        26.8355   22.5294   58.1452 H         1 GLY         0.0763
     66 H31        28.1279   21.8111   57.1252 H         1 GLY         0.0763
     67 H32        27.3190   20.5506   59.4077 H         1 MET         0.1884
     68 H33        26.6933   17.9223   58.4675 H         1 MET         0.0816
     69 H34        26.4361   17.3851   60.9199 H         1 MET         0.0321
     70 H35        26.6456   19.1352   61.2660 H         1 MET         0.0321
     71 H36        28.7253   18.1080   61.6868 H         1 MET         0.0378
     72 H37        28.8917   18.9777   60.1239 H         1 MET         0.0378
     73 H38        29.0304   14.4099   60.8000 H         1 MET         0.0340
     74 H39        27.6596   15.3820   61.4343 H         1 MET         0.0340
     75 H40        29.3270   15.6855   62.0295 H         1 MET         0.0340
     76 H41        24.6824   20.3525   59.8298 H         1 MET         0.2540
@<TRIPOS>BOND
     1    2    1 1  
     2    2    5 1  
     3    3    2 1  
     4    3    4 2  
     5    5    6 1  
     6    6    7 1  
     7    7    8 1  
     8    8    9 ar 
     9    9   11 ar 
    10    9   10 ar 
    11   13   12 1  
    12   13   16 1  
    13   14   13 1  
    14   14   15 2  
    15   16   17 1  
    16   17   18 1  
    17   18   19 1  
    18   19   20 ar 
    19   20   22 ar 
    20   20   21 ar 
    21   12    3 am 
    22   24   23 1  
    23   25   24 1  
    24   25   26 2  
    25   23   14 am 
    26   27   28 1  
    27   28   31 1  
    28   28   29 1  
    29   29   30 2  
    30   31   32 1  
    31   32   33 1  
    32   33   34 1  
    33   25   27 am 
    34   29   35 1  
    35    1   36 1  
    36    1   37 1  
    37    1   38 1  
    38    2   39 1  
    39    5   40 1  
    40    5   41 1  
    41    6   42 1  
    42    6   43 1  
    43    7   44 1  
    44    7   45 1  
    45    8   46 1  
    46   10   47 1  
    47   10   48 1  
    48   11   49 1  
    49   11   50 1  
    50   12   51 1  
    51   13   52 1  
    52   16   53 1  
    53   16   54 1  
    54   17   55 1  
    55   17   56 1  
    56   18   57 1  
    57   18   58 1  
    58   19   59 1  
    59   21   60 1  
    60   21   61 1  
    61   22   62 1  
    62   22   63 1  
    63   23   64 1  
    64   24   65 1  
    65   24   66 1  
    66   27   67 1  
    67   28   68 1  
    68   31   69 1  
    69   31   70 1  
    70   32   71 1  
    71   32   72 1  
    72   34   73 1  
    73   34   74 1  
    74   34   75 1  
    75   35   76 1  
@<TRIPOS>SUBSTRUCTURE
     1 ARG         1

