### 
### Created by X-TOOL on Mon Sep 10 21:12:57 2018
### 

@<TRIPOS>MOLECULE
3c8a_ligand
   78    77     1     0     0
SMALL
GAST_HUCK


@<TRIPOS>ATOM
      1 N          27.6350   27.5090   53.1220 N.4       1 ARG         0.2379
      2 CA         27.5980   26.0500   53.1530 C.3       1 ARG         0.0651
      3 C          26.5970   25.5820   54.1940 C.2       1 ARG         0.2267
      4 O          26.4750   26.1890   55.2610 O.2       1 ARG        -0.3907
      5 CB         28.9750   25.4780   53.4890 C.3       1 ARG         0.0110
      6 CG         30.0500   25.7980   52.4730 C.3       1 ARG        -0.0125
      7 CD         31.3070   24.9830   52.7500 C.3       1 ARG         0.0629
      8 NE         32.3650   25.2570   51.7810 N.pl3     1 ARG        -0.2723
      9 CZ         33.1040   26.3620   51.7640 C.cat     1 ARG         0.2882
     10 NH1        32.9100   27.3130   52.6680 N.pl3     1 ARG        -0.2849
     11 NH2        34.0410   26.5160   50.8370 N.pl3     1 ARG        -0.2849
     12 N          25.9000   24.4900   53.8900 N.am      1 ARG        -0.2610
     13 CA         24.8880   23.9530   54.7940 C.3       1 ARG         0.1312
     14 C          25.4240   23.2970   56.0490 C.2       1 ARG         0.2037
     15 O          24.7870   23.3580   57.0990 O.2       1 ARG        -0.3944
     16 CB         24.0060   22.9300   54.0770 C.3       1 ARG        -0.0092
     17 CG         23.1010   23.5140   53.0270 C.3       1 ARG        -0.0156
     18 CD         21.9030   22.6130   52.8290 C.3       1 ARG         0.0627
     19 NE         20.7280   23.0350   53.5950 N.pl3     1 ARG        -0.2723
     20 CZ         20.3650   22.5430   54.7770 C.cat     1 ARG         0.2882
     21 NH1        21.0830   21.5950   55.3610 N.pl3     1 ARG        -0.2849
     22 NH2        19.2690   22.9970   55.3730 N.pl3     1 ARG        -0.2849
     23 N          26.5800   22.6520   55.9430 N.am      1 GLY        -0.2664
     24 CA         27.1250   21.9760   57.1060 C.3       1 GLY         0.1201
     25 C          26.5360   20.5860   57.2880 C.2       1 GLY         0.2008
     26 O          25.9180   20.0530   56.3660 O.2       1 GLY        -0.3947
     27 N          26.7240   20.0110   58.4750 N.am      1 LEU        -0.2626
     28 CA         26.2200   18.6750   58.7870 C.3       1 LEU         0.1422
     29 C          24.7230   18.6310   59.0830 C.2       1 LEU         0.2571
     30 O          24.1220   17.5500   58.8870 O.2       1 LEU        -0.3680
     31 CB         26.9680   18.1090   59.9920 C.3       1 LEU        -0.0087
     32 CG         28.4670   17.8480   59.8420 C.3       1 LEU        -0.0424
     33 CD1        29.0180   17.2120   61.1170 C.3       1 LEU        -0.0624
     34 CD2        28.7000   16.9270   58.6540 C.3       1 LEU        -0.0624
     35 O1         24.0792   19.7040   59.5336 O.3       1 LEU        -0.2910
     36 H1         28.3010   27.8135   52.4294 H         1 ARG         0.2015
     37 H2         27.9087   27.8575   54.0273 H         1 ARG         0.2015
     38 H3         26.7209   27.8634   52.8878 H         1 ARG         0.2015
     39 H4         27.2893   25.6814   52.1636 H         1 ARG         0.1098
     40 H5         28.8848   24.3841   53.5613 H         1 ARG         0.0347
     41 H6         29.2887   25.8852   54.4615 H         1 ARG         0.0347
     42 H7         30.2937   26.8692   52.5293 H         1 ARG         0.0302
     43 H8         29.6785   25.5589   51.4656 H         1 ARG         0.0302
     44 H9         31.0533   23.9136   52.7050 H         1 ARG         0.0689
     45 H10        31.6754   25.2304   53.7565 H         1 ARG         0.0689
     46 H11        32.5515   24.5446   51.0608 H         1 ARG         0.2642
     47 H12        33.4860   28.1667   52.6492 H         1 ARG         0.2615
     48 H13        32.1833   27.1978   53.3888 H         1 ARG         0.2615
     49 H14        34.1950   25.7800   50.1331 H         1 ARG         0.2615
     50 H15        34.6143   27.3716   50.8214 H         1 ARG         0.2615
     51 H16        26.0738   24.0262   53.0213 H         1 ARG         0.1884
     52 H17        24.2569   24.7982   55.1059 H         1 ARG         0.0800
     53 H18        23.3800   22.4285   54.8297 H         1 ARG         0.0313
     54 H19        24.6611   22.1906   53.5932 H         1 ARG         0.0313
     55 H20        23.6514   23.6042   52.0789 H         1 ARG         0.0301
     56 H21        22.7608   24.5091   53.3497 H         1 ARG         0.0301
     57 H22        22.1765   21.5946   53.1420 H         1 ARG         0.0689
     58 H23        21.6408   22.6103   51.7607 H         1 ARG         0.0689
     59 H24        20.1353   23.7715   53.1861 H         1 ARG         0.2642
     60 H25        20.7943   21.2202   56.2759 H         1 ARG         0.2615
     61 H26        21.9299   21.2328   54.9001 H         1 ARG         0.2615
     62 H27        18.7064   23.7339   54.9243 H         1 ARG         0.2615
     63 H28        18.9813   22.6123   56.2841 H         1 ARG         0.2615
     64 H29        27.0697   22.6323   55.0713 H         1 GLY         0.1881
     65 H30        26.9027   22.5753   58.0012 H         1 GLY         0.0763
     66 H31        28.2147   21.8864   56.9859 H         1 GLY         0.0763
     67 H32        27.2285   20.5119   59.1783 H         1 LEU         0.1884
     68 H33        26.4129   18.0322   57.9155 H         1 LEU         0.0816
     69 H34        26.4929   17.1519   60.2533 H         1 LEU         0.0316
     70 H35        26.8402   18.8203   60.8213 H         1 LEU         0.0316
     71 H36        28.9842   18.8026   59.6655 H         1 LEU         0.0298
     72 H37        30.0961   17.0285   60.9988 H         1 LEU         0.0232
     73 H38        28.5021   16.2586   61.3037 H         1 LEU         0.0232
     74 H39        28.8526   17.8910   61.9665 H         1 LEU         0.0232
     75 H40        28.2994   17.3954   57.7429 H         1 LEU         0.0232
     76 H41        28.1900   15.9680   58.8279 H         1 LEU         0.0232
     77 H42        29.7791   16.7516   58.5321 H         1 LEU         0.0232
     78 H43        24.6910   20.4255   59.6209 H         1 LEU         0.2540
@<TRIPOS>BOND
     1    2    1 1  
     2    2    5 1  
     3    3    2 1  
     4    3    4 2  
     5    5    6 1  
     6    6    7 1  
     7    7    8 1  
     8    8    9 ar 
     9    9   11 ar 
    10    9   10 ar 
    11   13   12 1  
    12   13   16 1  
    13   14   13 1  
    14   14   15 2  
    15   16   17 1  
    16   17   18 1  
    17   18   19 1  
    18   19   20 ar 
    19   20   22 ar 
    20   20   21 ar 
    21   12    3 am 
    22   24   23 1  
    23   25   24 1  
    24   25   26 2  
    25   23   14 am 
    26   27   28 1  
    27   28   31 1  
    28   28   29 1  
    29   29   30 2  
    30   31   32 1  
    31   32   33 1  
    32   32   34 1  
    33   25   27 am 
    34   29   35 1  
    35    1   36 1  
    36    1   37 1  
    37    1   38 1  
    38    2   39 1  
    39    5   40 1  
    40    5   41 1  
    41    6   42 1  
    42    6   43 1  
    43    7   44 1  
    44    7   45 1  
    45    8   46 1  
    46   10   47 1  
    47   10   48 1  
    48   11   49 1  
    49   11   50 1  
    50   12   51 1  
    51   13   52 1  
    52   16   53 1  
    53   16   54 1  
    54   17   55 1  
    55   17   56 1  
    56   18   57 1  
    57   18   58 1  
    58   19   59 1  
    59   21   60 1  
    60   21   61 1  
    61   22   62 1  
    62   22   63 1  
    63   23   64 1  
    64   24   65 1  
    65   24   66 1  
    66   27   67 1  
    67   28   68 1  
    68   31   69 1  
    69   31   70 1  
    70   32   71 1  
    71   33   72 1  
    72   33   73 1  
    73   33   74 1  
    74   34   75 1  
    75   34   76 1  
    76   34   77 1  
    77   35   78 1  
@<TRIPOS>SUBSTRUCTURE
     1 ARG         1

