### 
### Created by X-TOOL on Mon Sep 10 21:12:58 2018
### 

@<TRIPOS>MOLECULE
3c8b_ligand
   78    77     1     0     0
SMALL
GAST_HUCK


@<TRIPOS>ATOM
      1 N          27.5200   27.5300   53.1940 N.4       1 ARG         0.2379
      2 CA         27.4360   26.0730   53.2150 C.3       1 ARG         0.0651
      3 C          26.4090   25.6090   54.2520 C.2       1 ARG         0.2267
      4 O          26.2480   26.2060   55.3140 O.2       1 ARG        -0.3907
      5 CB         28.7950   25.4700   53.5410 C.3       1 ARG         0.0110
      6 CG         29.8980   25.8180   52.5380 C.3       1 ARG        -0.0125
      7 CD         31.1460   25.0060   52.8150 C.3       1 ARG         0.0629
      8 NE         32.2120   25.2690   51.8530 N.pl3     1 ARG        -0.2723
      9 CZ         32.9640   26.3670   51.8360 C.cat     1 ARG         0.2882
     10 NH1        32.7800   27.3250   52.7340 N.pl3     1 ARG        -0.2849
     11 NH2        33.9090   26.5080   50.9130 N.pl3     1 ARG        -0.2849
     12 N          25.6870   24.5510   53.9230 N.am      1 ARG        -0.2610
     13 CA         24.6690   24.0220   54.8220 C.3       1 ARG         0.1312
     14 C          25.2170   23.3700   56.0910 C.2       1 ARG         0.2037
     15 O          24.5640   23.3890   57.1340 O.2       1 ARG        -0.3944
     16 CB         23.8010   23.0020   54.0770 C.3       1 ARG        -0.0092
     17 CG         23.1990   23.5500   52.8040 C.3       1 ARG        -0.0156
     18 CD         22.2370   22.5800   52.1570 C.3       1 ARG         0.0627
     19 NE         22.7850   21.2290   52.1190 N.pl3     1 ARG        -0.2723
     20 CZ         22.5380   20.2960   53.0330 C.cat     1 ARG         0.2882
     21 NH1        21.7480   20.5550   54.0680 N.pl3     1 ARG        -0.2849
     22 NH2        23.0810   19.0960   52.9080 N.pl3     1 ARG        -0.2849
     23 N          26.4020   22.7790   55.9920 N.am      1 GLY        -0.2664
     24 CA         26.9810   22.1000   57.1360 C.3       1 GLY         0.1201
     25 C          26.3990   20.7060   57.2880 C.2       1 GLY         0.2008
     26 O          25.6630   20.2390   56.4140 O.2       1 GLY        -0.3947
     27 N          26.7070   20.0450   58.4000 N.am      1 ILE        -0.2623
     28 CA         26.2190   18.6850   58.6220 C.3       1 ILE         0.1445
     29 C          24.8870   18.6520   59.3540 C.2       1 ILE         0.2573
     30 O          24.2720   17.5630   59.3490 O.2       1 ILE        -0.3680
     31 CB         27.2300   17.8300   59.4270 C.3       1 ILE        -0.0023
     32 CG1        27.4260   18.4280   60.8240 C.3       1 ILE        -0.0490
     33 CG2        28.5550   17.7390   58.6740 C.3       1 ILE        -0.0581
     34 CD1        28.1520   17.4960   61.7890 C.3       1 ILE        -0.0648
     35 O1         24.4005   19.7265   59.9685 O.3       1 ILE        -0.2910
     36 H1         28.1994   27.8175   52.5071 H         1 ARG         0.2015
     37 H2         27.7996   27.8636   54.1032 H         1 ARG         0.2015
     38 H3         26.6191   27.9151   52.9571 H         1 ARG         0.2015
     39 H4         27.1203   25.7236   52.2209 H         1 ARG         0.1098
     40 H5         28.6881   24.3756   53.5689 H         1 ARG         0.0347
     41 H6         29.1040   25.8336   54.5321 H         1 ARG         0.0347
     42 H7         30.1374   26.8884   52.6209 H         1 ARG         0.0302
     43 H8         29.5431   25.5994   51.5201 H         1 ARG         0.0302
     44 H9         30.8880   23.9376   52.7715 H         1 ARG         0.0689
     45 H10        31.5115   25.2543   53.8224 H         1 ARG         0.0689
     46 H11        32.3954   24.5531   51.1355 H         1 ARG         0.2642
     47 H12        33.3673   28.1709   52.7123 H         1 ARG         0.2615
     48 H13        32.0498   27.2233   53.4533 H         1 ARG         0.2615
     49 H14        34.0584   25.7685   50.2118 H         1 ARG         0.2615
     50 H15        34.4923   27.3568   50.8986 H         1 ARG         0.2615
     51 H16        25.8424   24.1057   53.0412 H         1 ARG         0.1884
     52 H17        24.0324   24.8645   55.1301 H         1 ARG         0.0800
     53 H18        22.9840   22.6860   54.7423 H         1 ARG         0.0313
     54 H19        24.4242   22.1320   53.8227 H         1 ARG         0.0313
     55 H20        24.0109   23.7682   52.0947 H         1 ARG         0.0301
     56 H21        22.6588   24.4787   53.0400 H         1 ARG         0.0301
     57 H22        22.0326   22.9118   51.1284 H         1 ARG         0.0689
     58 H23        21.2994   22.5693   52.7320 H         1 ARG         0.0689
     59 H24        23.4033   20.9819   51.3332 H         1 ARG         0.2642
     60 H25        21.5634   19.8246   54.7704 H         1 ARG         0.2615
     61 H26        21.3197   21.4863   54.1686 H         1 ARG         0.2615
     62 H27        23.6947   18.8893   52.1071 H         1 ARG         0.2615
     63 H28        22.8900   18.3685   53.6116 H         1 ARG         0.2615
     64 H29        26.8981   22.8021   55.1240 H         1 GLY         0.1881
     65 H30        26.7680   22.6807   58.0456 H         1 GLY         0.0763
     66 H31        28.0694   22.0229   56.9966 H         1 GLY         0.0763
     67 H32        27.2794   20.4836   59.0928 H         1 ILE         0.1885
     68 H33        26.0803   18.2194   57.6351 H         1 ILE         0.0819
     69 H34        26.8226   16.8142   59.5376 H         1 ILE         0.0346
     70 H35        26.4368   18.6623   61.2443 H         1 ILE         0.0267
     71 H36        28.0120   19.3539   60.7272 H         1 ILE         0.0267
     72 H37        28.3814   17.3069   57.6774 H         1 ILE         0.0235
     73 H38        29.2522   17.0991   59.2347 H         1 ILE         0.0235
     74 H39        28.9860   18.7454   58.5673 H         1 ILE         0.0235
     75 H40        28.2563   17.9894   62.7666 H         1 ILE         0.0230
     76 H41        29.1492   17.2591   61.3897 H         1 ILE         0.0230
     77 H42        27.5741   16.5675   61.9067 H         1 ILE         0.0230
     78 H43        24.2889   19.5379   60.8928 H         1 ILE         0.2540
@<TRIPOS>BOND
     1    2    1 1  
     2    2    5 1  
     3    3    2 1  
     4    3    4 2  
     5    5    6 1  
     6    6    7 1  
     7    7    8 1  
     8    8    9 ar 
     9    9   11 ar 
    10    9   10 ar 
    11   13   12 1  
    12   13   16 1  
    13   14   13 1  
    14   14   15 2  
    15   16   17 1  
    16   17   18 1  
    17   18   19 1  
    18   19   20 ar 
    19   20   22 ar 
    20   20   21 ar 
    21   12    3 am 
    22   24   23 1  
    23   25   24 1  
    24   25   26 2  
    25   23   14 am 
    26   27   28 1  
    27   28   31 1  
    28   28   29 1  
    29   29   30 2  
    30   31   33 1  
    31   31   32 1  
    32   32   34 1  
    33   25   27 am 
    34   29   35 1  
    35    1   36 1  
    36    1   37 1  
    37    1   38 1  
    38    2   39 1  
    39    5   40 1  
    40    5   41 1  
    41    6   42 1  
    42    6   43 1  
    43    7   44 1  
    44    7   45 1  
    45    8   46 1  
    46   10   47 1  
    47   10   48 1  
    48   11   49 1  
    49   11   50 1  
    50   12   51 1  
    51   13   52 1  
    52   16   53 1  
    53   16   54 1  
    54   17   55 1  
    55   17   56 1  
    56   18   57 1  
    57   18   58 1  
    58   19   59 1  
    59   21   60 1  
    60   21   61 1  
    61   22   62 1  
    62   22   63 1  
    63   23   64 1  
    64   24   65 1  
    65   24   66 1  
    66   27   67 1  
    67   28   68 1  
    68   31   69 1  
    69   32   70 1  
    70   32   71 1  
    71   33   72 1  
    72   33   73 1  
    73   33   74 1  
    74   34   75 1  
    75   34   76 1  
    76   34   77 1  
    77   35   78 1  
@<TRIPOS>SUBSTRUCTURE
     1 ARG         1

