### 
### Created by X-TOOL on Fri Sep 26 17:34:43 2014
### 

@<TRIPOS>MOLECULE
3c8e_ligand
   36    35     1     0     0
SMALL
GAST_HUCK


@<TRIPOS>ATOM
      1 N1         41.9840   69.0650   14.9060 N.4       1 GSH         0.2328
      2 CA1        41.2340   69.4320   13.7190 C.3       1 GSH         0.0304
      3 C1         40.2350   70.4880   13.8670 C.2       1 GSH         0.0846
      4 O11        39.6070   70.2790   14.8900 O.co2     1 GSH        -0.5643
      5 O12        39.9660   71.3710   13.0580 O.co2     1 GSH        -0.5643
      6 CB1        41.0550   68.3100   12.6780 C.3       1 GSH         0.0193
      7 CG1        40.5410   68.9280   11.3700 C.3       1 GSH         0.0441
      8 CD1        40.3570   67.8080   10.3350 C.2       1 GSH         0.1785
      9 OE1        40.6530   66.5260   10.6790 O.2       1 GSH        -0.3969
     10 N2         39.8940   68.1250    9.1160 N.am      1 GSH        -0.2648
     11 CA2        39.8400   67.0250    8.1110 C.3       1 GSH         0.1395
     12 C2         40.6620   67.3870    6.9220 C.2       1 GSH         0.2039
     13 O2         40.6550   68.6660    6.5050 O.2       1 GSH        -0.3944
     14 CB2        38.4090   66.9310    7.6410 C.3       1 GSH         0.0311
     15 SG2        37.2710   66.6760    9.0460 S.3       1 GSH        -0.1735
     16 N3         41.4150   66.4560    6.3270 N.am      1 GSH        -0.2722
     17 CA3        42.2810   66.8340    5.2100 C.3       1 GSH         0.0833
     18 C3         43.4330   65.8800    5.0870 C.2       1 GSH         0.0570
     19 O31        43.6010   65.0000    5.9630 O.co2     1 GSH        -0.5669
     20 O32        44.2400   66.0950    4.1220 O.co2     1 GSH        -0.5669
     21 H1         42.6368   68.3317   14.6776 H         1 GSH         0.2010
     22 H2         41.3487   68.7395   15.6176 H         1 GSH         0.2010
     23 H3         42.4875   69.8688   15.2472 H         1 GSH         0.2010
     24 H4         42.0046   70.0174   13.1960 H         1 GSH         0.1026
     25 H5         40.3279   67.5730   13.0497 H         1 GSH         0.0363
     26 H6         42.0204   67.8143   12.4986 H         1 GSH         0.0363
     27 H7         41.2701   69.6617   10.9957 H         1 GSH         0.0505
     28 H8         39.5776   69.4274   11.5501 H         1 GSH         0.0505
     29 H9         39.5994   69.0541    8.8925 H         1 GSH         0.1883
     30 H10        40.1825   66.0763    8.5499 H         1 GSH         0.0808
     31 H11        38.3145   66.0851    6.9442 H         1 GSH         0.0422
     32 H12        38.1385   67.8637    7.1244 H         1 GSH         0.0422
     33 H13        36.3247   66.6170    8.7039 H         1 GSH         0.1019
     34 H14        41.3864   65.5078    6.6433 H         1 GSH         0.1873
     35 H15        42.6691   67.8489    5.3811 H         1 GSH         0.0689
     36 H16        41.6968   66.8171    4.2781 H         1 GSH         0.0689
@<TRIPOS>BOND
     1    1    2 1  
     2    2    3 1  
     3    2    6 1  
     4    3    4 ar 
     5    3    5 ar 
     6    6    7 1  
     7    7    8 1  
     8    8    9 2  
     9    8   10 am 
    10   10   11 1  
    11   11   12 1  
    12   11   14 1  
    13   12   13 2  
    14   12   16 am 
    15   14   15 1  
    16   16   17 1  
    17   17   18 1  
    18   18   19 ar 
    19   18   20 ar 
    20    1   21 1  
    21    1   22 1  
    22    1   23 1  
    23    2   24 1  
    24    6   25 1  
    25    6   26 1  
    26    7   27 1  
    27    7   28 1  
    28   10   29 1  
    29   11   30 1  
    30   14   31 1  
    31   14   32 1  
    32   15   33 1  
    33   16   34 1  
    34   17   35 1  
    35   17   36 1  
@<TRIPOS>SUBSTRUCTURE
     1 GSH         1

