### 
### Created by X-TOOL on Mon Sep 10 21:12:58 2018
### 

@<TRIPOS>MOLECULE
3c94_ligand
   68    69     1     0     0
SMALL
GAST_HUCK


@<TRIPOS>ATOM
      1 N          25.9030   21.7210    3.9890 N.4       1 ASP         0.2391
      2 CA         24.6680   22.4480    3.5810 C.3       1 ASP         0.0764
      3 C          24.1720   23.4250    4.6430 C.2       1 ASP         0.2284
      4 O          24.0550   23.0700    5.8210 O.2       1 ASP        -0.3906
      5 CB         23.5570   21.4700    3.1990 C.3       1 ASP         0.0607
      6 CG         23.4930   21.2240    1.7030 C.2       1 ASP         0.0425
      7 OD1        24.4760   21.5430    0.9970 O.co2     1 ASP        -0.5686
      8 OD2        22.4570   20.7200    1.2220 O.co2     1 ASP        -0.5686
      9 N          23.8830   24.6540    4.2120 N.am      1 ILE        -0.2606
     10 CA         23.4670   25.7260    5.1140 C.3       1 ILE         0.1338
     11 C          22.3060   26.5340    4.5410 C.2       1 ILE         0.2067
     12 O          22.2150   26.7250    3.3300 O.2       1 ILE        -0.3942
     13 CB         24.6400   26.6850    5.4750 C.3       1 ILE        -0.0037
     14 CG1        25.5140   26.9610    4.2450 C.3       1 ILE        -0.0491
     15 CG2        25.4750   26.1030    6.6270 C.3       1 ILE        -0.0582
     16 CD1        26.0870   28.3750    4.1850 C.3       1 ILE        -0.0648
     17 N          21.4130   27.0130    5.4180 N.am      1 PRO        -0.2498
     18 CA         20.2350   27.7430    5.0040 C.3       1 PRO         0.1337
     19 C          20.4590   29.2340    4.7380 C.2       1 PRO         0.2037
     20 O          19.6410   29.8510    4.0590 O.2       1 PRO        -0.3944
     21 CB         19.2850   27.5680    6.1940 C.3       1 PRO        -0.0104
     22 CG         20.0350   26.7350    7.2140 C.3       1 PRO        -0.0281
     23 CD         21.4510   26.8430    6.8770 C.3       1 PRO         0.0369
     24 N          21.5410   29.8180    5.2600 N.am      1 PHE        -0.2677
     25 CA         21.7540   31.2780    5.1250 C.3       1 PHE         0.1039
     26 C          23.2010   31.7240    5.4080 C.2       1 PHE         0.0621
     27 O          23.9860   30.9830    5.9870 O.co2     1 PHE        -0.5664
     28 CB         20.7860   32.0540    6.0380 C.3       1 PHE         0.0159
     29 CG         20.9720   31.7530    7.5010 C.ar      1 PHE        -0.0392
     30 CD1        22.0750   32.2350    8.1870 C.ar      1 PHE        -0.0602
     31 CD2        20.0620   30.9640    8.1790 C.ar      1 PHE        -0.0602
     32 CE1        22.2540   31.9470    9.5000 C.ar      1 PHE        -0.0686
     33 CE2        20.2370   30.6890    9.4940 C.ar      1 PHE        -0.0686
     34 CZ         21.3400   31.1790   10.1570 C.ar      1 PHE        -0.0687
     35 OXT        23.5710   32.8890    5.1960 O.co2     1 PHE        -0.5664
     36 H1         26.1823   21.0930    3.2516 H         1 ASP         0.2016
     37 H2         25.7206   21.1936    4.8284 H         1 ASP         0.2016
     38 H3         26.6416   22.3846    4.1629 H         1 ASP         0.2016
     39 H4         24.9181   23.0365    2.6860 H         1 ASP         0.1117
     40 H5         22.5930   21.8831    3.5307 H         1 ASP         0.0512
     41 H6         23.7396   20.5117    3.7072 H         1 ASP         0.0512
     42 H7         23.9538   24.8493    3.2338 H         1 ILE         0.1885
     43 H8         23.1215   25.2536    6.0454 H         1 ILE         0.0803
     44 H9         24.2117   27.6408    5.8112 H         1 ILE         0.0345
     45 H10        24.9029   26.7986    3.3449 H         1 ILE         0.0267
     46 H11        26.3529   26.2495    4.2520 H         1 ILE         0.0267
     47 H12        24.8238   25.9155    7.4935 H         1 ILE         0.0235
     48 H13        26.2617   26.8187    6.9077 H         1 ILE         0.0235
     49 H14        25.9369   25.1583    6.3043 H         1 ILE         0.0235
     50 H15        26.6971   28.4851    3.2764 H         1 ILE         0.0230
     51 H16        26.7134   28.5548    5.0712 H         1 ILE         0.0230
     52 H17        25.2634   29.1038    4.1641 H         1 ILE         0.0230
     53 H18        19.8142   27.2861    4.0961 H         1 PRO         0.0802
     54 H19        18.3685   27.0488    5.8773 H         1 PRO         0.0313
     55 H20        19.0229   28.5476    6.6201 H         1 PRO         0.0313
     56 H21        19.7106   25.6853    7.1599 H         1 PRO         0.0287
     57 H22        19.8550   27.1227    8.2275 H         1 PRO         0.0287
     58 H23        21.9121   27.7129    7.3676 H         1 PRO         0.0524
     59 H24        21.9980   25.9309    7.1578 H         1 PRO         0.0524
     60 H25        22.2152   29.2633    5.7476 H         1 PHE         0.1877
     61 H26        21.5259   31.5447    4.0825 H         1 PHE         0.0749
     62 H27        19.7555   31.7916    5.7565 H         1 PHE         0.0467
     63 H28        20.9462   33.1308    5.8807 H         1 PHE         0.0467
     64 H29        22.8027   32.8489    7.6686 H         1 PHE         0.0557
     65 H30        19.2023   30.5624    7.6549 H         1 PHE         0.0557
     66 H31        23.1224   32.3270   10.0259 H         1 PHE         0.0599
     67 H32        19.5098   30.0841   10.0235 H         1 PHE         0.0599
     68 H33        21.4820   30.9525   11.2075 H         1 PHE         0.0559
@<TRIPOS>BOND
     1    1    2 1  
     2    2    3 1  
     3    2    5 1  
     4    3    4 2  
     5    3    9 am 
     6    5    6 1  
     7    6    7 ar 
     8    6    8 ar 
     9    9   10 1  
    10   10   11 1  
    11   10   13 1  
    12   11   12 2  
    13   11   17 am 
    14   13   14 1  
    15   13   15 1  
    16   14   16 1  
    17   17   18 1  
    18   17   23 1  
    19   18   19 1  
    20   18   21 1  
    21   19   20 2  
    22   19   24 am 
    23   21   22 1  
    24   22   23 1  
    25   24   25 1  
    26   25   26 1  
    27   25   28 1  
    28   26   27 ar 
    29   26   35 ar 
    30   28   29 1  
    31   29   30 ar 
    32   29   31 ar 
    33   30   32 ar 
    34   31   33 ar 
    35   32   34 ar 
    36   33   34 ar 
    37    1   36 1  
    38    1   37 1  
    39    1   38 1  
    40    2   39 1  
    41    5   40 1  
    42    5   41 1  
    43    9   42 1  
    44   10   43 1  
    45   13   44 1  
    46   14   45 1  
    47   14   46 1  
    48   15   47 1  
    49   15   48 1  
    50   15   49 1  
    51   16   50 1  
    52   16   51 1  
    53   16   52 1  
    54   18   53 1  
    55   21   54 1  
    56   21   55 1  
    57   22   56 1  
    58   22   57 1  
    59   23   58 1  
    60   23   59 1  
    61   24   60 1  
    62   25   61 1  
    63   28   62 1  
    64   28   63 1  
    65   30   64 1  
    66   31   65 1  
    67   32   66 1  
    68   33   67 1  
    69   34   68 1  
@<TRIPOS>SUBSTRUCTURE
     1 ASP         1

