### 
### Created by X-TOOL on Mon Sep 10 21:12:57 2018
### 

@<TRIPOS>MOLECULE
3c9e_ligand
   54    53     1     0     0
SMALL
GAST_HUCK


@<TRIPOS>ATOM
      1 C1         19.4910   61.7640   36.8080 C.2       1 E64         0.0396
      2 O1         20.4630   61.0280   37.0480 O.co2     1 E64        -0.5688
      3 O2         18.9600   61.8330   35.6870 O.co2     1 E64        -0.5688
      4 C2         18.9190   62.6090   37.9410 C.3       1 E64         0.0436
      5 C3         18.6530   64.0430   37.3850 C.3       1 E64         0.1549
      6 O3         19.9040   64.7060   37.1860 O.3       1 E64        -0.3697
      7 C4         17.8330   64.8930   38.3470 C.2       1 E64         0.2089
      8 O4         16.6480   65.1590   38.1140 O.2       1 E64        -0.3940
      9 N1         18.4740   65.3220   39.4310 N.am      1 E64        -0.2634
     10 C6         17.8340   66.1510   40.4530 C.3       1 E64         0.1311
     11 C7         18.3490   65.7370   41.8330 C.3       1 E64        -0.0101
     12 C8         17.6990   64.6590   42.6900 C.3       1 E64        -0.0425
     13 C9         18.0930   64.9190   44.1350 C.3       1 E64        -0.0625
     14 C10        16.1560   64.6350   42.5600 C.3       1 E64        -0.0625
     15 C11        18.1220   67.6330   40.2390 C.2       1 E64         0.2017
     16 O5         19.2260   68.0020   39.8330 O.2       1 E64        -0.3945
     17 N2         17.1190   68.4750   40.5130 N.am      1 E64        -0.2851
     18 C12        17.1770   69.9340   40.3750 C.3       1 E64         0.0311
     19 C13        16.5770   70.4500   39.0690 C.3       1 E64        -0.0296
     20 C14        16.7970   71.9540   38.9270 C.3       1 E64        -0.0180
     21 C15        15.7690   72.7580   39.7480 C.3       1 E64         0.0626
     22 N3         14.8190   73.5120   38.9150 N.pl3     1 E64        -0.2723
     23 C16        13.5950   73.0930   38.5570 C.cat     1 E64         0.2882
     24 N4         13.0400   73.5730   37.4520 N.pl3     1 E64        -0.2849
     25 N5         12.9250   72.2050   39.2990 N.pl3     1 E64        -0.2849
     26 H1         19.6394   62.6579   38.7708 H         1 E64         0.0481
     27 H2         17.9775   62.1665   38.2983 H         1 E64         0.0481
     28 H3         18.1171   63.9605   36.4279 H         1 E64         0.0856
     29 H4         19.7477   65.5798   36.8474 H         1 E64         0.2135
     30 H5         19.4334   65.0673   39.5525 H         1 E64         0.1883
     31 H6         16.7466   65.9913   40.4080 H         1 E64         0.0800
     32 H7         18.3380   66.6519   42.4436 H         1 E64         0.0315
     33 H8         19.3883   65.4111   41.6794 H         1 E64         0.0315
     34 H9         18.0868   63.6781   42.3778 H         1 E64         0.0298
     35 H10        17.6379   64.1548   44.7823 H         1 E64         0.0232
     36 H11        17.7381   65.9150   44.4383 H         1 E64         0.0232
     37 H12        19.1880   64.8752   44.2301 H         1 E64         0.0232
     38 H13        15.8792   64.4465   41.5122 H         1 E64         0.0232
     39 H14        15.7460   65.6047   42.8787 H         1 E64         0.0232
     40 H15        15.7467   63.8368   43.1966 H         1 E64         0.0232
     41 H16        16.2608   68.0776   40.8380 H         1 E64         0.1851
     42 H17        18.2309   70.2458   40.4203 H         1 E64         0.0520
     43 H18        16.6249   70.3846   41.2130 H         1 E64         0.0520
     44 H19        15.4970   70.2415   39.0613 H         1 E64         0.0286
     45 H20        17.0561   69.9343   38.2237 H         1 E64         0.0286
     46 H21        16.7014   72.2302   37.8666 H         1 E64         0.0300
     47 H22        17.8086   72.2018   39.2808 H         1 E64         0.0300
     48 H23        16.3125   73.4688   40.3878 H         1 E64         0.0689
     49 H24        15.2011   72.0577   40.3780 H         1 E64         0.0689
     50 H25        15.1181   74.4384   38.5786 H         1 E64         0.2642
     51 H26        12.1012   73.2580   37.1685 H         1 E64         0.2615
     52 H27        13.5478   74.2607   36.8775 H         1 E64         0.2615
     53 H28        13.3491   71.8276   40.1584 H         1 E64         0.2615
     54 H29        11.9848   71.8984   39.0111 H         1 E64         0.2615
@<TRIPOS>BOND
     1    1    2 ar 
     2    1    3 ar 
     3    1    4 1  
     4    4    5 1  
     5    5    6 1  
     6    5    7 1  
     7    7    8 2  
     8    7    9 am 
     9    9   10 1  
    10   10   11 1  
    11   10   15 1  
    12   11   12 1  
    13   12   13 1  
    14   12   14 1  
    15   15   16 2  
    16   15   17 am 
    17   17   18 1  
    18   18   19 1  
    19   19   20 1  
    20   20   21 1  
    21   21   22 1  
    22   22   23 ar 
    23   23   24 ar 
    24   23   25 ar 
    25    4   26 1  
    26    4   27 1  
    27    5   28 1  
    28    6   29 1  
    29    9   30 1  
    30   10   31 1  
    31   11   32 1  
    32   11   33 1  
    33   12   34 1  
    34   13   35 1  
    35   13   36 1  
    36   13   37 1  
    37   14   38 1  
    38   14   39 1  
    39   14   40 1  
    40   17   41 1  
    41   18   42 1  
    42   18   43 1  
    43   19   44 1  
    44   19   45 1  
    45   20   46 1  
    46   20   47 1  
    47   21   48 1  
    48   21   49 1  
    49   22   50 1  
    50   24   51 1  
    51   24   52 1  
    52   25   53 1  
    53   25   54 1  
@<TRIPOS>SUBSTRUCTURE
     1 E64         1

