### 
### Created by X-TOOL on Mon Sep 10 21:12:57 2018
### 

@<TRIPOS>MOLECULE
3caj_ligand
   26    27     1     0     0
SMALL
GAST_HUCK


@<TRIPOS>ATOM
      1 N1         -5.3570   -0.5580   16.0760 N.am      1 EZL        -0.2548
      2 C2         -3.5510    3.4390   14.9780 C.ar      1 EZL         0.0296
      3 C3         -4.6910    4.1610   14.5200 C.ar      1 EZL         0.0510
      4 C4         -4.5660    5.3430   13.7710 C.ar      1 EZL        -0.0189
      5 C5         -3.2650    5.8280   13.4740 C.ar      1 EZL         0.0844
      6 C8         -1.8090    7.4990   12.4390 C.3       1 EZL         0.0670
      7 O1         -7.3040    0.9430   16.4270 O.2       1 EZL        -0.1431
      8 O2         -5.4030    0.9430   18.0340 O.2       1 EZL        -0.1431
      9 S1         -5.8870    0.8190   16.6830 S.o2      1 EZL         0.1041
     10 C1         -5.1120    2.1620   15.7970 C.2       1 EZL         0.2500
     11 N2         -3.8230    2.2930   15.7120 N.2       1 EZL        -0.2771
     12 S2         -6.1160    3.3460   15.0350 S.3       1 EZL         0.0259
     13 C6         -2.1220    5.1150   13.9220 C.ar      1 EZL        -0.0391
     14 C7         -2.2360    3.9300   14.6720 C.ar      1 EZL        -0.0596
     15 O3         -3.1410    7.0010   12.7400 O.3       1 EZL        -0.3212
     16 C9         -1.6430    8.8020   13.1270 C.3       1 EZL        -0.0372
     17 H1         -5.5950   -0.8162   15.1397 H         1 EZL         0.1640
     18 H2         -4.7868   -1.1629   16.6319 H         1 EZL         0.1640
     19 H3         -5.4457    5.8744   13.4265 H         1 EZL         0.0487
     20 H4         -1.6967    7.6329   11.3530 H         1 EZL         0.0610
     21 H5         -1.0531    6.7865   12.8007 H         1 EZL         0.0610
     22 H6         -1.1355    5.4935   13.6799 H         1 EZL         0.0502
     23 H7         -1.3530    3.4003   15.0107 H         1 EZL         0.0565
     24 H8         -0.6407    9.2030   12.9159 H         1 EZL         0.0255
     25 H9         -1.7607    8.6616   14.2116 H         1 EZL         0.0255
     26 H10        -2.4043    9.5080   12.7639 H         1 EZL         0.0255
@<TRIPOS>BOND
     1    9    1 am 
     2    2    3 ar 
     3   11    2 1  
     4    2   14 ar 
     5    3    4 ar 
     6    3   12 1  
     7    4    5 ar 
     8    5   13 ar 
     9    5   15 1  
    10   15    6 1  
    11    6   16 1  
    12    9    7 2  
    13    9    8 2  
    14   10    9 1  
    15   10   11 2  
    16   10   12 1  
    17   13   14 ar 
    18    1   17 1  
    19    1   18 1  
    20    4   19 1  
    21    6   20 1  
    22    6   21 1  
    23   13   22 1  
    24   14   23 1  
    25   16   24 1  
    26   16   25 1  
    27   16   26 1  
@<TRIPOS>SUBSTRUCTURE
     1 EZL         1

