### 
### Created by X-TOOL on Mon Sep 10 21:12:59 2018
### 

@<TRIPOS>MOLECULE
3cbp_ligand
   51    53     1     0     0
SMALL
GAST_HUCK


@<TRIPOS>ATOM
      1 N          12.3570    3.3160   10.4580 N.4       1 SFG         0.2327
      2 CA         12.9460    3.9590   11.6420 C.3       1 SFG         0.0285
      3 C          12.7940    5.4900   11.6720 C.2       1 SFG         0.0844
      4 O          12.1760    6.0380   10.7230 O.co2     1 SFG        -0.5643
      5 OXT        13.2370    6.1120   12.6700 O.co2     1 SFG        -0.5643
      6 CB         14.3940    3.4480   11.9670 C.3       1 SFG         0.0075
      7 CG         14.2410    1.9850   12.5030 C.3       1 SFG        -0.0030
      8 CD         13.8640    1.9000   14.0030 C.3       1 SFG        -0.0216
      9 NE         15.0370    1.5680   14.8780 N.4       1 SFG         0.2208
     10 C5'        12.9270    0.6890   14.1460 C.3       1 SFG         0.0191
     11 C4'        11.4730    1.0390   13.7060 C.3       1 SFG         0.0957
     12 O4'        11.3750    1.0900   12.2760 O.3       1 SFG        -0.3389
     13 C3'        10.3500    0.0840   14.1560 C.3       1 SFG         0.1126
     14 O3'         9.8220    0.5000   15.4040 O.3       1 SFG        -0.3865
     15 C2'         9.3920    0.1270   12.9660 C.3       1 SFG         0.1384
     16 O2'         8.4770    1.2400   13.0310 O.3       1 SFG        -0.3836
     17 C1'        10.3000    0.3080   11.7410 C.3       1 SFG         0.2009
     18 N9         10.8740   -0.8740   11.0440 N.pl3     1 SFG        -0.1919
     19 C8         12.1130   -1.4550   11.0400 C.2       1 SFG         0.1123
     20 N7         12.2850   -2.5030   10.2220 N.2       1 SFG        -0.2958
     21 C5         11.0340   -2.6530    9.6380 C.ar      1 SFG         0.1045
     22 C6         10.4370   -3.5210    8.7010 C.ar      1 SFG         0.1298
     23 N6         11.1860   -4.5100    8.1500 N.pl3     1 SFG        -0.3152
     24 N1          9.1000   -3.3890    8.3390 N.ar      1 SFG        -0.2698
     25 C2          8.3070   -2.3970    8.8650 C.ar      1 SFG         0.0533
     26 N3          8.8290   -1.5060    9.7690 N.ar      1 SFG        -0.2714
     27 C4         10.1560   -1.6470   10.1450 C.ar      1 SFG         0.1613
     28 H1         12.4971    2.3193   10.5123 H         1 SFG         0.2010
     29 H2         12.8007    3.6728    9.6262 H         1 SFG         0.2010
     30 H3         11.3695    3.5151   10.4238 H         1 SFG         0.2010
     31 H4         12.3318    3.6064   12.4837 H         1 SFG         0.1024
     32 H5         14.8590    4.0862   12.7328 H         1 SFG         0.0340
     33 H6         15.0127    3.4564   11.0576 H         1 SFG         0.0340
     34 H7         15.1970    1.4611   12.3564 H         1 SFG         0.0323
     35 H8         13.4548    1.4833   11.9198 H         1 SFG         0.0323
     36 H9         13.3851    2.8344   14.3309 H         1 SFG         0.0851
     37 H10        14.7375    1.5252   15.8395 H         1 SFG         0.1997
     38 H11        15.7434    2.2800   14.7775 H         1 SFG         0.1997
     39 H12        15.4181    0.6757   14.6048 H         1 SFG         0.1997
     40 H13        12.9149    0.3682   15.1981 H         1 SFG         0.0346
     41 H14        13.3035   -0.1310   13.5169 H         1 SFG         0.0346
     42 H15        11.2499    2.0346   14.1170 H         1 SFG         0.0626
     43 H16        10.7358   -0.9390   14.2772 H         1 SFG         0.0647
     44 H17         9.4686    1.3778   15.3203 H         1 SFG         0.2100
     45 H18         8.8231   -0.8122   12.9011 H         1 SFG         0.0676
     46 H19         8.9688    2.0527   13.0399 H         1 SFG         0.2101
     47 H20         9.7430    0.8829   10.9866 H         1 SFG         0.0996
     48 H21        12.9198   -1.0841   11.6705 H         1 SFG         0.1349
     49 H22        10.7656   -5.1529    7.4638 H         1 SFG         0.1820
     50 H23        12.1747   -4.6175    8.4181 H         1 SFG         0.1820
     51 H24         7.2682   -2.3184    8.5654 H         1 SFG         0.0996
@<TRIPOS>BOND
     1    1    2 1  
     2    2    3 1  
     3    2    6 1  
     4    3    4 ar 
     5    3    5 ar 
     6    6    7 1  
     7    7    8 1  
     8    8    9 1  
     9    8   10 1  
    10   10   11 1  
    11   11   12 1  
    12   11   13 1  
    13   12   17 1  
    14   13   14 1  
    15   13   15 1  
    16   15   16 1  
    17   15   17 1  
    18   17   18 1  
    19   18   19 1  
    20   18   27 1  
    21   19   20 2  
    22   20   21 1  
    23   21   22 ar 
    24   21   27 ar 
    25   22   23 1  
    26   22   24 ar 
    27   24   25 ar 
    28   25   26 ar 
    29   26   27 ar 
    30    1   28 1  
    31    1   29 1  
    32    1   30 1  
    33    2   31 1  
    34    6   32 1  
    35    6   33 1  
    36    7   34 1  
    37    7   35 1  
    38    8   36 1  
    39    9   37 1  
    40    9   38 1  
    41    9   39 1  
    42   10   40 1  
    43   10   41 1  
    44   11   42 1  
    45   13   43 1  
    46   14   44 1  
    47   15   45 1  
    48   16   46 1  
    49   17   47 1  
    50   19   48 1  
    51   23   49 1  
    52   23   50 1  
    53   25   51 1  
@<TRIPOS>SUBSTRUCTURE
     1 SFG         1

