### 
### Created by X-TOOL on Mon Sep 10 21:12:47 2018
### 

@<TRIPOS>MOLECULE
3cbs_ligand
   46    46     1     0     0
SMALL
GAST_HUCK


@<TRIPOS>ATOM
      1 C1         15.5890   -7.1790   23.5720 C.ar      1 R12         0.0853
      2 C2         15.4840   -5.8180   23.4830 C.ar      1 R12        -0.0140
      3 C3         16.5070   -5.0470   22.9230 C.ar      1 R12        -0.0406
      4 C4         17.6720   -5.7000   22.4500 C.ar      1 R12        -0.0220
      5 C5         17.7860   -7.1090   22.5390 C.ar      1 R12        -0.0479
      6 C6         16.7270   -7.8640   23.1130 C.ar      1 R12        -0.0356
      7 C7         18.7790   -4.9130   21.8530 C.2       1 R12        -0.0581
      8 C8         18.6960   -4.0740   20.8240 C.2       1 R12        -0.0551
      9 C9         19.7380   -3.2840   20.2720 C.2       1 R12        -0.0463
     10 C10        19.3800   -2.3710   19.3620 C.2       1 R12        -0.0654
     11 C11        20.2460   -1.5690   18.5690 C.2       1 R12        -0.0765
     12 C12        19.7930   -0.6850   17.6860 C.2       1 R12        -0.0697
     13 C13        20.5770    0.1430   16.8490 C.2       1 R12        -0.0617
     14 C14        19.9240    1.0370   15.9520 C.2       1 R12        -0.0556
     15 C15        20.4470    1.9820   14.9870 C.2       1 R12         0.0262
     16 C18        22.0680    0.0670   16.9040 C.3       1 R12        -0.0328
     17 C19        21.1720   -3.4860   20.7020 C.3       1 R12        -0.0274
     18 C20        19.0290   -7.8050   22.0300 C.3       1 R12        -0.0330
     19 C23        16.3180   -3.5520   22.8600 C.3       1 R12        -0.0334
     20 O1         14.6070   -7.9540   24.1150 O.3       1 R12        -0.3345
     21 O2         19.9370    2.1350   13.9050 O.co2     1 R12        -0.5750
     22 O3         21.5170    2.6500   15.3770 O.co2     1 R12        -0.5750
     23 C16        14.2275   -5.1288   24.0044 C.3       1 R12        -0.0373
     24 H1         16.7957   -8.9427   23.1947 H         1 R12         0.0435
     25 H2         19.7625   -5.0349   22.3044 H         1 R12         0.0700
     26 H3         17.7188   -3.9831   20.3521 H         1 R12         0.0530
     27 H4         18.3110   -2.2266   19.2126 H         1 R12         0.0442
     28 H5         21.3222   -1.6836   18.6899 H         1 R12         0.0631
     29 H6         18.7118   -0.5886   17.5982 H         1 R12         0.0447
     30 H7         18.8366    1.0038   16.0008 H         1 R12         0.0307
     31 H8         22.3697   -0.6779   17.6550 H         1 R12         0.0403
     32 H9         22.4754    1.0510   17.1793 H         1 R12         0.0403
     33 H10        22.4567   -0.2281   15.9182 H         1 R12         0.0403
     34 H11        21.2197   -4.2865   21.4549 H         1 R12         0.0424
     35 H12        21.5601   -2.5521   21.1347 H         1 R12         0.0424
     36 H13        21.7804   -3.7666   19.8296 H         1 R12         0.0424
     37 H14        19.7278   -7.0580   21.6253 H         1 R12         0.0397
     38 H15        18.7527   -8.5158   21.2373 H         1 R12         0.0397
     39 H16        19.5104   -8.3472   22.8572 H         1 R12         0.0397
     40 H17        15.3389   -3.2879   23.2862 H         1 R12         0.0390
     41 H18        16.3632   -3.2205   21.8121 H         1 R12         0.0390
     42 H19        17.1140   -3.0572   23.4358 H         1 R12         0.0390
     43 H20        13.8862   -7.4012   24.3929 H         1 R12         0.2490
     44 H21        13.5356   -5.8834   24.4068 H         1 R12         0.0342
     45 H22        13.7393   -4.5853   23.1821 H         1 R12         0.0342
     46 H23        14.5012   -4.4207   24.8004 H         1 R12         0.0342
@<TRIPOS>BOND
     1    1   20 1  
     2    1    6 ar 
     3    1    2 ar 
     4    2    3 ar 
     5    3   19 1  
     6    3    4 ar 
     7    4    7 1  
     8    4    5 ar 
     9    5   18 1  
    10    5    6 ar 
    11    7    8 2  
    12    8    9 1  
    13    9   17 1  
    14    9   10 2  
    15   10   11 1  
    16   11   12 2  
    17   12   13 1  
    18   13   16 1  
    19   13   14 2  
    20   14   15 1  
    21   15   22 ar 
    22   15   21 ar 
    23    2   23 1  
    24    6   24 1  
    25    7   25 1  
    26    8   26 1  
    27   10   27 1  
    28   11   28 1  
    29   12   29 1  
    30   14   30 1  
    31   16   31 1  
    32   16   32 1  
    33   16   33 1  
    34   17   34 1  
    35   17   35 1  
    36   17   36 1  
    37   18   37 1  
    38   18   38 1  
    39   18   39 1  
    40   19   40 1  
    41   19   41 1  
    42   19   42 1  
    43   20   43 1  
    44   23   44 1  
    45   23   45 1  
    46   23   46 1  
@<TRIPOS>SUBSTRUCTURE
     1 R12         1

