### 
### Created by X-TOOL on Mon Sep 10 21:12:58 2018
### 

@<TRIPOS>MOLECULE
3ccb_ligand
   28    29     1     0     0
SMALL
GAST_HUCK


@<TRIPOS>ATOM
      1 N1         41.6190    3.4230   18.0610 N.4       1 B2Y         0.2313
      2 C4         44.1900    1.3830   17.1900 C.ar      1 B2Y        -0.0539
      3 C5         44.5140    0.0750   16.8530 C.ar      1 B2Y        -0.0680
      4 C6         43.6580   -0.6500   16.0330 C.ar      1 B2Y        -0.0678
      5 C7         42.4830   -0.0740   15.5460 C.ar      1 B2Y        -0.0599
      6 C8         42.1530    1.2480   15.8900 C.ar      1 B2Y        -0.0102
      7 C10        39.6450    1.3740   15.7200 C.ar      1 B2Y        -0.0558
      8 C13        39.8530    3.4480   13.8320 C.ar      1 B2Y        -0.0624
      9 C2         42.7350    3.4040   17.1180 C.3       1 B2Y        -0.0002
     10 C3         43.0260    1.9780   16.7160 C.ar      1 B2Y         0.0105
     11 C9         40.9030    1.8440   15.3360 C.ar      1 B2Y        -0.0213
     12 C11        38.5150    1.9680   15.1550 C.ar      1 B2Y        -0.0624
     13 C12        38.6090    2.9990   14.2260 C.ar      1 B2Y        -0.0628
     14 C14        40.9840    2.8710   14.3780 C.ar      1 B2Y        -0.0558
     15 H1         41.4231    4.3743   18.3306 H         1 B2Y         0.2008
     16 H2         41.8606    2.8851   18.8785 H         1 B2Y         0.2008
     17 H3         40.8033    3.0228   17.6244 H         1 B2Y         0.2008
     18 H4         44.8549    1.9488   17.8325 H         1 B2Y         0.0559
     19 H5         45.4263   -0.3760   17.2263 H         1 B2Y         0.0602
     20 H6         43.9047   -1.6720   15.7690 H         1 B2Y         0.0561
     21 H7         41.8251   -0.6467   14.9024 H         1 B2Y         0.0605
     22 H8         39.5485    0.5682   16.4387 H         1 B2Y         0.0613
     23 H9         39.9422    4.2446   13.1022 H         1 B2Y         0.0615
     24 H10        43.6255    3.8403   17.5940 H         1 B2Y         0.0985
     25 H11        42.4717    3.9906   16.2255 H         1 B2Y         0.0985
     26 H12        37.5334    1.6146   15.4495 H         1 B2Y         0.0615
     27 H13        37.7115    3.4465   13.8145 H         1 B2Y         0.0609
     28 H14        41.9599    3.2192   14.0594 H         1 B2Y         0.0613
@<TRIPOS>BOND
     1    9    1 1  
     2    2    3 ar 
     3   10    2 ar 
     4    4    3 ar 
     5    5    4 ar 
     6    6    5 ar 
     7    6   10 ar 
     8   11    6 1  
     9   11    7 ar 
    10    7   12 ar 
    11    8   13 ar 
    12   14    8 ar 
    13   10    9 1  
    14   11   14 ar 
    15   12   13 ar 
    16    1   15 1  
    17    1   16 1  
    18    1   17 1  
    19    2   18 1  
    20    3   19 1  
    21    4   20 1  
    22    5   21 1  
    23    7   22 1  
    24    8   23 1  
    25    9   24 1  
    26    9   25 1  
    27   12   26 1  
    28   13   27 1  
    29   14   28 1  
@<TRIPOS>SUBSTRUCTURE
     1 B2Y         1

