### 
### Created by X-TOOL on Mon Sep 10 21:12:58 2018
### 

@<TRIPOS>MOLECULE
3ccc_ligand
   35    37     1     0     0
SMALL
GAST_HUCK


@<TRIPOS>ATOM
      1 C5         -1.0540   -2.6450   20.7050 C.ar      1 7AC         0.0418
      2 C6         -0.3400   -3.5850   19.9570 C.ar      1 7AC        -0.0305
      3 C7          0.7260   -4.2680   20.5310 C.ar      1 7AC         0.0818
      4 C8          1.4770   -5.2410   19.7760 C.1       1 7AC         0.0867
      5 C10         1.0700   -4.0240   21.8730 C.ar      1 7AC         0.0108
      6 C13         3.4610   -6.6190   23.2090 C.ar      1 7AC        -0.0623
      7 C15         4.6480   -4.5840   22.7660 C.ar      1 7AC        -0.0485
      8 C21        -0.6940   -2.3870   22.0520 C.ar      1 7AC         0.1049
      9 C1         -1.6740   -0.7930   23.8110 C.3       1 7AC         0.0472
     10 N2         -1.5960   -1.4130   22.4870 N.pl3     1 7AC        -0.2365
     11 C3         -2.4220   -1.1200   21.4430 C.2       1 7AC         0.1075
     12 N4         -2.1140   -1.8440   20.4060 N.2       1 7AC        -0.3031
     13 N9          2.0880   -6.0180   19.2040 N.1       1 7AC        -0.3373
     14 C11         2.2560   -4.7400   22.3780 C.ar      1 7AC        -0.0077
     15 C12         2.2570   -6.0630   22.7960 C.ar      1 7AC        -0.0556
     16 C14         4.6470   -5.8900   23.2010 C.ar      1 7AC        -0.0623
     17 C16         3.4630   -4.0200   22.3480 C.ar      1 7AC         0.0462
     18 CL17        3.4820   -2.3680   21.8110 Cl        1 7AC        -0.0705
     19 C18         0.3800   -3.0860   22.6270 C.ar      1 7AC         0.0445
     20 C19         0.7980   -2.8280   24.0540 C.3       1 7AC         0.0001
     21 N20         1.6530   -1.6340   24.0550 N.4       1 7AC         0.2305
     22 H1         -0.6178   -3.7818   18.9278 H         1 7AC         0.0621
     23 H2          3.4776   -7.6489   23.5468 H         1 7AC         0.0616
     24 H3          5.5666   -4.0087   22.7526 H         1 7AC         0.0621
     25 H4         -2.4970   -0.0633   23.8262 H         1 7AC         0.0573
     26 H5         -0.7260   -0.2811   24.0326 H         1 7AC         0.0573
     27 H6         -1.8578   -1.5687   24.5689 H         1 7AC         0.0573
     28 H7         -3.2251   -0.3850   21.4723 H         1 7AC         0.1362
     29 H8          1.3435   -6.6465   22.8001 H         1 7AC         0.0613
     30 H9          5.5690   -6.3505   23.5371 H         1 7AC         0.0609
     31 H10         1.3580   -3.6911   24.4431 H         1 7AC         0.0972
     32 H11        -0.0898   -2.6545   24.6798 H         1 7AC         0.0972
     33 H12         1.9500   -1.4343   24.9973 H         1 7AC         0.2007
     34 H13         1.1346   -0.8492   23.6927 H         1 7AC         0.2007
     35 H14         2.4613   -1.7990   23.4758 H         1 7AC         0.2007
@<TRIPOS>BOND
     1    2    1 ar 
     2    8    1 ar 
     3    1   12 1  
     4    3    2 ar 
     5    3    4 1  
     6    5    3 ar 
     7    4   13 3  
     8   14    5 1  
     9    5   19 ar 
    10   15    6 ar 
    11    6   16 ar 
    12   16    7 ar 
    13    7   17 ar 
    14    8   10 1  
    15   19    8 ar 
    16   10    9 1  
    17   10   11 1  
    18   11   12 2  
    19   14   15 ar 
    20   14   17 ar 
    21   17   18 1  
    22   19   20 1  
    23   20   21 1  
    24    2   22 1  
    25    6   23 1  
    26    7   24 1  
    27    9   25 1  
    28    9   26 1  
    29    9   27 1  
    30   11   28 1  
    31   15   29 1  
    32   16   30 1  
    33   20   31 1  
    34   20   32 1  
    35   21   33 1  
    36   21   34 1  
    37   21   35 1  
@<TRIPOS>SUBSTRUCTURE
     1 7AC         1

