### 
### Created by X-TOOL on Mon Sep 10 21:12:59 2018
### 

@<TRIPOS>MOLECULE
3ccn_ligand
   37    40     1     0     0
SMALL
GAST_HUCK


@<TRIPOS>ATOM
      1 N1         19.8940   14.0380   56.7370 N.pl3     1 LKG        -0.0980
      2 N3         20.8490   15.9900   56.4400 N.2       1 LKG        -0.2780
      3 C4         17.3070   12.5760   58.6220 C.ar      1 LKG         0.0070
      4 C5         17.6150   11.2230   58.4810 C.ar      1 LKG        -0.0498
      5 C6         16.7470   10.2460   58.9650 C.ar      1 LKG        -0.0592
      6 C7         18.1810   13.5470   58.1280 C.2       1 LKG         0.0968
      7 C8         18.0960   14.8680   58.5830 C.2       1 LKG        -0.0171
      8 C10        19.8850   15.3840   57.1250 C.2       1 LKG         0.1789
      9 C13        22.0550   11.7230   55.9930 C.ar      1 LKG        -0.0365
     10 C15        24.0510   11.0370   57.1590 C.ar      1 LKG        -0.0393
     11 C17        22.0290    9.7090   57.3190 C.ar      1 LKG        -0.0393
     12 C14        23.3950   11.9410   56.3180 C.ar      1 LKG        -0.0663
     13 C16        23.3660    9.9290   57.6550 C.ar      1 LKG         0.0809
     14 O1         24.0000    9.0420   58.4670 O.3       1 LKG        -0.3374
     15 C18        21.3730   10.6120   56.4840 C.ar      1 LKG        -0.0663
     16 C12        21.3200   12.6980   55.0700 C.3       1 LKG         0.0581
     17 C11        20.9240   13.9780   55.8110 C.2       1 LKG         0.1801
     18 N2         19.1050   13.2070   57.2030 N.2       1 LKG        -0.1322
     19 N4         21.4420   15.1960   55.6920 N.2       1 LKG        -0.2663
     20 C9         18.9680   15.8210   58.0750 C.2       1 LKG         0.0065
     21 C3         16.1160   12.9460   59.2540 C.ar      1 LKG        -0.0498
     22 C2         15.2430   11.9730   59.7380 C.ar      1 LKG        -0.0592
     23 C1         15.5580   10.6250   59.5960 C.ar      1 LKG        -0.0600
     24 H1         18.5364   10.9292   57.9913 H         1 LKG         0.0641
     25 H2         16.9926    9.1962   58.8528 H         1 LKG         0.0622
     26 H3         17.3525   15.1455   59.3287 H         1 LKG         0.0717
     27 H4         25.0896   11.1974   57.4246 H         1 LKG         0.0526
     28 H5         21.5047    8.8421   57.7047 H         1 LKG         0.0526
     29 H6         23.9214   12.8021   55.9225 H         1 LKG         0.0535
     30 H7         23.5491    9.0007   59.3022 H         1 LKG         0.2459
     31 H8         20.3348   10.4501   56.2174 H         1 LKG         0.0535
     32 H9         20.4114   12.2113   54.6858 H         1 LKG         0.0631
     33 H10        21.9788   12.9605   54.2292 H         1 LKG         0.0631
     34 H11        18.9357   16.8587   58.4038 H         1 LKG         0.0749
     35 H12        15.8701   13.9955   59.3683 H         1 LKG         0.0641
     36 H13        14.3197   12.2661   60.2245 H         1 LKG         0.0622
     37 H14        14.8810    9.8679   59.9749 H         1 LKG         0.0632
@<TRIPOS>BOND
     1    1    8 1  
     2   17    1 1  
     3    1   18 1  
     4    8    2 2  
     5    2   19 1  
     6    3    4 ar 
     7    6    3 1  
     8    3   21 ar 
     9    4    5 ar 
    10    5   23 ar 
    11    6    7 1  
    12   18    6 2  
    13   20    7 2  
    14    8   20 1  
    15    9   12 ar 
    16    9   15 ar 
    17   16    9 1  
    18   12   10 ar 
    19   10   13 ar 
    20   11   13 ar 
    21   15   11 ar 
    22   13   14 1  
    23   16   17 1  
    24   17   19 2  
    25   21   22 ar 
    26   22   23 ar 
    27    4   24 1  
    28    5   25 1  
    29    7   26 1  
    30   10   27 1  
    31   11   28 1  
    32   12   29 1  
    33   14   30 1  
    34   15   31 1  
    35   16   32 1  
    36   16   33 1  
    37   20   34 1  
    38   21   35 1  
    39   22   36 1  
    40   23   37 1  
@<TRIPOS>SUBSTRUCTURE
     1 LKG         1

