### 
### Created by X-TOOL on Mon Sep 10 21:12:58 2018
### 

@<TRIPOS>MOLECULE
3cct_ligand
   76    79     1     0     0
SMALL
GAST_HUCK


@<TRIPOS>ATOM
      1 N1         32.8920   -7.2870  -12.0660 N.pl3     1 3HI        -0.2548
      2 C5         33.0760   -6.0490  -12.5300 C.2       1 3HI         0.0700
      3 C6         34.1110   -9.5350  -12.2220 C.3       1 3HI         0.0163
      4 C7         31.7240   -7.6330  -11.2460 C.3       1 3HI         0.0583
      5 C8         32.0380   -7.3870   -9.7740 C.3       1 3HI         0.0010
      6 C10        31.1150   -6.9110   -7.5240 C.3       1 3HI         0.0009
      7 C13        32.9010  -10.3690  -12.6390 C.3       1 3HI        -0.0486
      8 C15        30.7320   -3.1220  -13.0870 C.ar      1 3HI        -0.0317
      9 C17        38.3560   -8.9490  -15.4550 C.ar      1 3HI        -0.0494
     10 C20        39.5610   -9.1470  -16.1190 C.ar      1 3HI        -0.0868
     11 C21        32.6290   -3.9970  -11.2620 C.ar      1 3HI        -0.0592
     12 C22        36.0060   -2.7410  -13.9460 C.ar      1 3HI        -0.0662
     13 C24        31.9750   -2.7930  -11.0480 C.ar      1 3HI        -0.0317
     14 C26        37.8090   -7.1590  -16.9770 C.ar      1 3HI         0.1089
     15 C28        35.8300   -2.6200  -15.3180 C.ar      1 3HI        -0.0662
     16 O7         33.3420   -3.2190   -6.7120 O.co2     1 3HI        -0.5689
     17 C36        32.2940   -3.5660   -6.1270 C.2       1 3HI         0.0373
     18 O6         31.5610   -2.7490   -5.5180 O.co2     1 3HI        -0.5689
     19 C35        31.9170   -5.0200   -6.1750 C.3       1 3HI         0.0264
     20 C11        31.2690   -5.3980   -7.5090 C.3       1 3HI         0.0689
     21 O3         29.9880   -4.7970   -7.6710 O.3       1 3HI        -0.3900
     22 C9         30.7920   -7.4770   -8.8950 C.3       1 3HI         0.0602
     23 O4         30.3900   -8.8290   -8.7220 O.3       1 3HI        -0.3916
     24 C27        32.3410   -4.7660  -12.3820 C.ar      1 3HI        -0.0078
     25 C30        31.0300   -2.3610  -11.9630 C.ar      1 3HI         0.1287
     26 F1         30.4070   -1.1990  -11.7500 F         1 3HI        -0.1861
     27 C18        31.3910   -4.3320  -13.2990 C.ar      1 3HI        -0.0592
     28 C12        33.9170   -8.0850  -12.4920 C.2       1 3HI         0.0735
     29 C14        34.5000   -9.7380  -10.7640 C.3       1 3HI        -0.0486
     30 C2         34.8110   -7.3240  -13.2660 C.2       1 3HI         0.0510
     31 C1         34.3200   -6.0470  -13.2890 C.2       1 3HI        -0.0138
     32 C31        34.8630   -4.8510  -13.9820 C.ar      1 3HI        -0.0382
     33 C25        35.5180   -3.8540  -13.2750 C.ar      1 3HI        -0.0616
     34 C19        35.1710   -3.6190  -16.0340 C.ar      1 3HI        -0.0662
     35 C16        34.6740   -4.7300  -15.3560 C.ar      1 3HI        -0.0616
     36 C3         36.0680   -7.8270  -13.8970 C.2       1 3HI         0.1980
     37 O1         36.8770   -8.4050  -13.1760 O.2       1 3HI        -0.3955
     38 N2         36.2350   -7.7300  -15.2130 N.am      1 3HI        -0.2426
     39 C32        37.4700   -7.9510  -15.8710 C.ar      1 3HI         0.0950
     40 O2         36.9850   -6.2000  -17.4100 O.3       1 3HI        -0.3394
     41 C23        39.0180   -7.3580  -17.6510 C.ar      1 3HI        -0.0463
     42 C29        39.8920   -8.3530  -17.2180 C.ar      1 3HI        -0.0862
     43 H1         34.9578   -9.8743  -12.8366 H         1 3HI         0.0511
     44 H2         31.4746   -8.6940  -11.3942 H         1 3HI         0.0617
     45 H3         30.8688   -7.0098  -11.5464 H         1 3HI         0.0617
     46 H4         32.4744   -6.3829   -9.6679 H         1 3HI         0.0317
     47 H5         32.7649   -8.1403   -9.4362 H         1 3HI         0.0317
     48 H6         30.3023   -7.1844   -6.8350 H         1 3HI         0.0316
     49 H7         32.0572   -7.3596   -7.1761 H         1 3HI         0.0316
     50 H8         33.0935  -11.4296  -12.4196 H         1 3HI         0.0259
     51 H9         32.7236  -10.2440  -13.7174 H         1 3HI         0.0259
     52 H10        32.0146  -10.0341  -12.0803 H         1 3HI         0.0259
     53 H11        29.9894   -2.7758  -13.7967 H         1 3HI         0.0595
     54 H12        38.1010   -9.5742  -14.6069 H         1 3HI         0.0466
     55 H13        40.2441   -9.9187  -15.7830 H         1 3HI         0.0484
     56 H14        33.3705   -4.3404  -10.5498 H         1 3HI         0.0578
     57 H15        36.5260   -1.9641  -13.3973 H         1 3HI         0.0606
     58 H16        32.2016   -2.1956  -10.1723 H         1 3HI         0.0595
     59 H17        36.2066   -1.7449  -15.8350 H         1 3HI         0.0580
     60 H18        31.2061   -5.2301   -5.3623 H         1 3HI         0.0456
     61 H19        32.8235   -5.6272   -6.0354 H         1 3HI         0.0456
     62 H20        31.9215   -5.0786   -8.3350 H         1 3HI         0.0612
     63 H21        29.4140   -5.0839   -6.9706 H         1 3HI         0.2099
     64 H22        29.9750   -6.9038   -9.3576 H         1 3HI         0.0595
     65 H23        30.1817   -9.2070   -9.5683 H         1 3HI         0.2098
     66 H24        31.1639   -4.9307  -14.1737 H         1 3HI         0.0578
     67 H25        35.3736   -9.1130  -10.5272 H         1 3HI         0.0259
     68 H26        34.7494  -10.7959  -10.5949 H         1 3HI         0.0259
     69 H27        33.6581   -9.4517  -10.1166 H         1 3HI         0.0259
     70 H28        35.6485   -3.9434  -12.2026 H         1 3HI         0.0582
     71 H29        35.0467   -3.5319  -17.1073 H         1 3HI         0.0606
     72 H30        34.1395   -5.5011  -15.8989 H         1 3HI         0.0582
     73 H31        35.4417   -7.4866  -15.7711 H         1 3HI         0.2206
     74 H32        37.3719   -5.7674  -18.1622 H         1 3HI         0.2433
     75 H33        39.2737   -6.7418  -18.5053 H         1 3HI         0.0495
     76 H34        40.8311   -8.5107  -17.7359 H         1 3HI         0.0460
@<TRIPOS>BOND
     1    2    1 1  
     2    1    4 1  
     3   28    1 1  
     4    2   24 1  
     5   31    2 2  
     6    3    7 1  
     7   28    3 1  
     8    3   29 1  
     9    4    5 1  
    10    5   22 1  
    11    6   20 1  
    12   22    6 1  
    13    8   25 ar 
    14   27    8 ar 
    15    9   10 ar 
    16   39    9 ar 
    17   10   42 ar 
    18   11   13 ar 
    19   24   11 ar 
    20   12   15 ar 
    21   33   12 ar 
    22   13   25 ar 
    23   39   14 ar 
    24   14   40 1  
    25   14   41 ar 
    26   34   15 ar 
    27   17   16 ar 
    28   17   18 ar 
    29   19   17 1  
    30   20   19 1  
    31   20   21 1  
    32   22   23 1  
    33   24   27 ar 
    34   25   26 1  
    35   30   28 2  
    36   30   31 1  
    37   36   30 1  
    38   31   32 1  
    39   32   33 ar 
    40   32   35 ar 
    41   35   34 ar 
    42   36   37 2  
    43   38   36 am 
    44   38   39 1  
    45   41   42 ar 
    46    3   43 1  
    47    4   44 1  
    48    4   45 1  
    49    5   46 1  
    50    5   47 1  
    51    6   48 1  
    52    6   49 1  
    53    7   50 1  
    54    7   51 1  
    55    7   52 1  
    56    8   53 1  
    57    9   54 1  
    58   10   55 1  
    59   11   56 1  
    60   12   57 1  
    61   13   58 1  
    62   15   59 1  
    63   19   60 1  
    64   19   61 1  
    65   20   62 1  
    66   21   63 1  
    67   22   64 1  
    68   23   65 1  
    69   27   66 1  
    70   29   67 1  
    71   29   68 1  
    72   29   69 1  
    73   33   70 1  
    74   34   71 1  
    75   35   72 1  
    76   38   73 1  
    77   40   74 1  
    78   41   75 1  
    79   42   76 1  
@<TRIPOS>SUBSTRUCTURE
     1 3HI         1

