### 
### Created by X-TOOL on Mon Sep 10 21:12:58 2018
### 

@<TRIPOS>MOLECULE
3ccw_ligand
   67    69     1     0     0
SMALL
GAST_HUCK


@<TRIPOS>ATOM
      1 N1        -14.2130    7.4770   45.5500 N.pl3     1 4HI        -0.2330
      2 N3        -15.7600    8.5480   46.7000 N.2       1 4HI        -0.3174
      3 C4        -19.3110    6.9570   48.5760 C.3       1 4HI         0.0630
      4 C5        -14.5490    8.6500   46.1400 C.2       1 4HI         0.1343
      5 C6        -15.3620    5.2000   45.2940 C.3       1 4HI         0.0182
      6 C7        -12.9650    7.2210   44.8150 C.3       1 4HI         0.0623
      7 C8        -13.1670    7.7950   43.4070 C.3       1 4HI         0.0013
      8 C10       -12.5560    7.9950   40.9970 C.3       1 4HI         0.0009
      9 C13       -14.3070    4.3850   46.0420 C.3       1 4HI        -0.0484
     10 C15       -11.8250   11.1370   46.9350 C.ar      1 4HI        -0.0268
     11 C17       -20.6090    4.9650   49.3150 C.ar      1 4HI        -0.0584
     12 C20       -20.7300    3.7310   49.9480 C.ar      1 4HI        -0.0685
     13 C21       -14.3100   11.0670   45.6570 C.ar      1 4HI        -0.0514
     14 C24       -13.5910   12.2590   45.7270 C.ar      1 4HI        -0.0268
     15 C26       -18.2710    5.0400   49.8760 C.ar      1 4HI        -0.0584
     16 O2        -18.1900    6.1200   46.0850 O.2       1 4HI        -0.4039
     17 C3        -17.4980    6.7430   46.8860 C.2       1 4HI         0.1860
     18 N2        -17.9750    7.1730   48.0490 N.am      1 4HI        -0.2806
     19 C32       -19.3870    5.6160   49.2710 C.ar      1 4HI        -0.0212
     20 C23       -18.3900    3.8070   50.5130 C.ar      1 4HI        -0.0685
     21 C29       -19.6170    3.1510   50.5480 C.ar      1 4HI        -0.0687
     22 C2        -16.1990    7.3140   46.4610 C.2       1 4HI         0.0909
     23 C12       -15.2460    6.6210   45.7200 C.2       1 4HI         0.0882
     24 C14       -15.2970    5.0090   43.7820 C.3       1 4HI        -0.0484
     25 C27       -13.7730    9.9080   46.2130 C.ar      1 4HI         0.0192
     26 C30       -12.3500   12.2960   46.3670 C.ar      1 4HI         0.1333
     27 F1        -11.6550   13.4490   46.4290 F         1 4HI        -0.1825
     28 C18       -12.5420    9.9450   46.8700 C.ar      1 4HI        -0.0514
     29 C9        -12.0800    7.5030   42.3610 C.3       1 4HI         0.0603
     30 O4        -11.8150    6.1130   42.2140 O.3       1 4HI        -0.3916
     31 C11       -12.6680    9.5140   40.8890 C.3       1 4HI         0.0689
     32 O3        -11.4080   10.0990   41.1230 O.3       1 4HI        -0.3900
     33 C35       -13.1250    9.8910   39.4840 C.3       1 4HI         0.0264
     34 C36       -13.5930   11.3300   39.4420 C.2       1 4HI         0.0373
     35 O6        -12.8540   12.1870   38.8910 O.co2     1 4HI        -0.5689
     36 O7        -14.7000   11.5990   39.9710 O.co2     1 4HI        -0.5689
     37 H1        -20.0360    6.9794   47.7490 H         1 4HI         0.0681
     38 H2        -19.5510    7.7535   49.2957 H         1 4HI         0.0681
     39 H3        -16.3504    4.8388   45.6141 H         1 4HI         0.0513
     40 H4        -12.7702    6.1398   44.7608 H         1 4HI         0.0620
     41 H5        -12.1210    7.7212   45.3124 H         1 4HI         0.0620
     42 H6        -13.2458    8.8878   43.5045 H         1 4HI         0.0317
     43 H7        -14.1143    7.3922   43.0194 H         1 4HI         0.0317
     44 H8        -13.5468    7.5602   40.7989 H         1 4HI         0.0316
     45 H9        -11.8434    7.6458   40.2353 H         1 4HI         0.0316
     46 H10       -14.3769    3.3296   45.7400 H         1 4HI         0.0259
     47 H11       -14.4792    4.4685   47.1252 H         1 4HI         0.0259
     48 H12       -13.3058    4.7703   45.7990 H         1 4HI         0.0259
     49 H13       -10.8594   11.1632   47.4270 H         1 4HI         0.0606
     50 H14       -21.4777    5.4199   48.8530 H         1 4HI         0.0557
     51 H15       -21.6878    3.2241   49.9732 H         1 4HI         0.0599
     52 H16       -15.2799   11.0420   45.1735 H         1 4HI         0.0619
     53 H17       -13.9965   13.1609   45.2830 H         1 4HI         0.0606
     54 H18       -17.3145    5.5495   49.8508 H         1 4HI         0.0557
     55 H19       -17.3481    7.7010   48.6219 H         1 4HI         0.1858
     56 H20       -17.5234    3.3566   50.9834 H         1 4HI         0.0599
     57 H21       -19.7052    2.1900   51.0418 H         1 4HI         0.0559
     58 H22       -16.0769    5.6181   43.3016 H         1 4HI         0.0259
     59 H23       -15.4586    3.9484   43.5391 H         1 4HI         0.0259
     60 H24       -14.3087    5.3229   43.4149 H         1 4HI         0.0259
     61 H25       -12.1447    9.0470   47.3290 H         1 4HI         0.0619
     62 H26       -11.1557    8.0236   42.6520 H         1 4HI         0.0595
     63 H27       -11.5139    5.7598   43.0429 H         1 4HI         0.2098
     64 H28       -13.3933    9.8840   41.6286 H         1 4HI         0.0612
     65 H29       -10.7877    9.7811   40.4775 H         1 4HI         0.2099
     66 H30       -13.9541    9.2328   39.1851 H         1 4HI         0.0456
     67 H31       -12.2854    9.7638   38.7848 H         1 4HI         0.0456
@<TRIPOS>BOND
     1    4    1 1  
     2    1    6 1  
     3    1   23 1  
     4    2    4 2  
     5   22    2 1  
     6   18    3 1  
     7    3   19 1  
     8    4   25 1  
     9    5    9 1  
    10   23    5 1  
    11    5   24 1  
    12    6    7 1  
    13    7   29 1  
    14   29    8 1  
    15    8   31 1  
    16   26   10 ar 
    17   10   28 ar 
    18   11   12 ar 
    19   19   11 ar 
    20   12   21 ar 
    21   13   14 ar 
    22   25   13 ar 
    23   14   26 ar 
    24   19   15 ar 
    25   15   20 ar 
    26   17   16 2  
    27   17   18 am 
    28   17   22 1  
    29   20   21 ar 
    30   22   23 2  
    31   25   28 ar 
    32   26   27 1  
    33   29   30 1  
    34   31   32 1  
    35   31   33 1  
    36   33   34 1  
    37   34   35 ar 
    38   34   36 ar 
    39    3   37 1  
    40    3   38 1  
    41    5   39 1  
    42    6   40 1  
    43    6   41 1  
    44    7   42 1  
    45    7   43 1  
    46    8   44 1  
    47    8   45 1  
    48    9   46 1  
    49    9   47 1  
    50    9   48 1  
    51   10   49 1  
    52   11   50 1  
    53   12   51 1  
    54   13   52 1  
    55   14   53 1  
    56   15   54 1  
    57   18   55 1  
    58   20   56 1  
    59   21   57 1  
    60   24   58 1  
    61   24   59 1  
    62   24   60 1  
    63   28   61 1  
    64   29   62 1  
    65   30   63 1  
    66   31   64 1  
    67   32   65 1  
    68   33   66 1  
    69   33   67 1  
@<TRIPOS>SUBSTRUCTURE
     1 4HI         1

