### 
### Created by X-TOOL on Mon Sep 10 21:12:59 2018
### 

@<TRIPOS>MOLECULE
3ccz_ligand
   71    73     1     0     0
SMALL
GAST_HUCK


@<TRIPOS>ATOM
      1 N1         78.6220    8.0870   -4.9370 N.pl3     1 5HI        -0.2330
      2 N3         77.3970    9.6590   -5.8520 N.2       1 5HI        -0.3174
      3 C5         77.3870    8.4060   -5.3650 C.2       1 5HI         0.1343
      4 C6         80.8880    9.1900   -4.8070 C.3       1 5HI         0.0182
      5 C7         79.0030    6.8040   -4.3330 C.3       1 5HI         0.0623
      6 C8         79.1560    6.9990   -2.8250 C.3       1 5HI         0.0013
      7 C10        78.8740    5.8790   -0.5990 C.3       1 5HI         0.0009
      8 C13        81.7030    9.5860   -6.0380 C.3       1 5HI        -0.0484
      9 C15        74.7500    5.9010   -6.3730 C.ar      1 5HI        -0.0268
     10 C17        80.6900   14.8700   -8.1560 C.ar      1 5HI        -0.0581
     11 C20        81.9490   15.1660   -8.6720 C.ar      1 5HI        -0.0685
     12 C21        75.2530    7.6810   -4.2900 C.ar      1 5HI        -0.0514
     13 C24        74.1010    6.9010   -4.2750 C.ar      1 5HI        -0.0268
     14 C26        80.8120   12.6540   -9.0940 C.ar      1 5HI        -0.0581
     15 O2         79.8660   12.1250   -5.4580 O.2       1 5HI        -0.4039
     16 C3         79.0750   11.5070   -6.1490 C.2       1 5HI         0.1863
     17 N2         78.5200   12.0150   -7.2560 N.am      1 5HI        -0.2754
     18 C1         78.7630   13.3580   -7.7950 C.3       1 5HI         0.0972
     19 C14        77.7150   13.5630   -8.8920 C.3       1 5HI         0.0767
     20 O5         77.8360   12.5820   -9.9110 O.3       1 5HI        -0.3907
     21 C32        80.1170   13.6140   -8.3580 C.ar      1 5HI        -0.0160
     22 C23        82.0730   12.9530   -9.6100 C.ar      1 5HI        -0.0685
     23 C29        82.6440   14.2050   -9.4000 C.ar      1 5HI        -0.0687
     24 C2         78.6450   10.1350   -5.7380 C.2       1 5HI         0.0909
     25 C19        79.4360    9.1460   -5.1430 C.2       1 5HI         0.0882
     26 C12        81.1530   10.0960   -3.6030 C.3       1 5HI        -0.0484
     27 C27        76.1580    7.5660   -5.3420 C.ar      1 5HI         0.0192
     28 C30        73.8490    6.0130   -5.3170 C.ar      1 5HI         0.1333
     29 F1         72.7350    5.2630   -5.3020 F         1 5HI        -0.1825
     30 C18        75.9040    6.6810   -6.3870 C.ar      1 5HI        -0.0514
     31 C9         79.2570    5.6790   -2.0640 C.3       1 5HI         0.0603
     32 O4         80.5920    5.2040   -2.1110 O.3       1 5HI        -0.3916
     33 C11        77.3640    5.8840   -0.3830 C.3       1 5HI         0.0689
     34 O3         76.8160    4.6380   -0.7770 O.3       1 5HI        -0.3900
     35 C35        77.0620    6.1300    1.0910 C.3       1 5HI         0.0264
     36 C36        75.6210    6.5430    1.2720 C.2       1 5HI         0.0373
     37 O6         74.8280    5.7230    1.7800 O.co2     1 5HI        -0.5689
     38 O7         75.2760    7.6900    0.9080 O.co2     1 5HI        -0.5689
     39 H1         81.1960    8.1732   -4.5221 H         1 5HI         0.0513
     40 H2         79.9571    6.4622   -4.7607 H         1 5HI         0.0620
     41 H3         78.2226    6.0548   -4.5321 H         1 5HI         0.0620
     42 H4         78.2823    7.5535   -2.4520 H         1 5HI         0.0317
     43 H5         80.0687    7.5834   -2.6372 H         1 5HI         0.0317
     44 H6         79.2821    6.8413   -0.2563 H         1 5HI         0.0316
     45 H7         79.3120    5.0628   -0.0057 H         1 5HI         0.0316
     46 H8         82.7712    9.6147   -5.7768 H         1 5HI         0.0259
     47 H9         81.3836   10.5797   -6.3851 H         1 5HI         0.0259
     48 H10        81.5409    8.8486   -6.8379 H         1 5HI         0.0259
     49 H11        74.5535    5.2078   -7.1829 H         1 5HI         0.0606
     50 H12        80.1502   15.6222   -7.5922 H         1 5HI         0.0557
     51 H13        82.3871   16.1437   -8.5068 H         1 5HI         0.0599
     52 H14        75.4460    8.3782   -3.4827 H         1 5HI         0.0619
     53 H15        73.4001    6.9847   -3.4524 H         1 5HI         0.0606
     54 H16        80.3730   11.6777   -9.2645 H         1 5HI         0.0557
     55 H17        77.8850   11.4288   -7.7591 H         1 5HI         0.1862
     56 H18        78.5987   14.0857   -6.9867 H         1 5HI         0.0741
     57 H19        77.8518   14.5599   -9.3364 H         1 5HI         0.0603
     58 H20        76.7117   13.4947   -8.4463 H         1 5HI         0.0603
     59 H21        77.7145   11.7186   -9.5338 H         1 5HI         0.2097
     60 H22        82.6125   12.2045  -10.1790 H         1 5HI         0.0599
     61 H23        83.6253   14.4303   -9.8016 H         1 5HI         0.0559
     62 H24        80.5409    9.7630   -2.7518 H         1 5HI         0.0259
     63 H25        80.8908   11.1330   -3.8597 H         1 5HI         0.0259
     64 H26        82.2177   10.0433   -3.3317 H         1 5HI         0.0259
     65 H27        76.6039    6.5992   -7.2107 H         1 5HI         0.0619
     66 H28        78.5834    4.9411   -2.5242 H         1 5HI         0.0595
     67 H29        80.8488    5.0733   -3.0163 H         1 5HI         0.2098
     68 H30        76.9134    6.6859   -0.9863 H         1 5HI         0.0612
     69 H31        77.2049    3.9439   -0.2579 H         1 5HI         0.2099
     70 H32        77.7178    6.9292    1.4668 H         1 5HI         0.0456
     71 H33        77.2480    5.2060    1.6581 H         1 5HI         0.0456
@<TRIPOS>BOND
     1    3    1 1  
     2    1    5 1  
     3    1   25 1  
     4    2    3 2  
     5   24    2 1  
     6    3   27 1  
     7    4    8 1  
     8   25    4 1  
     9    4   26 1  
    10    5    6 1  
    11    6   31 1  
    12   31    7 1  
    13    7   33 1  
    14   28    9 ar 
    15    9   30 ar 
    16   10   11 ar 
    17   21   10 ar 
    18   11   23 ar 
    19   12   13 ar 
    20   27   12 ar 
    21   13   28 ar 
    22   21   14 ar 
    23   14   22 ar 
    24   16   15 2  
    25   17   16 am 
    26   16   24 1  
    27   18   17 1  
    28   18   19 1  
    29   18   21 1  
    30   19   20 1  
    31   22   23 ar 
    32   24   25 2  
    33   27   30 ar 
    34   28   29 1  
    35   31   32 1  
    36   33   34 1  
    37   33   35 1  
    38   35   36 1  
    39   36   37 ar 
    40   36   38 ar 
    41    4   39 1  
    42    5   40 1  
    43    5   41 1  
    44    6   42 1  
    45    6   43 1  
    46    7   44 1  
    47    7   45 1  
    48    8   46 1  
    49    8   47 1  
    50    8   48 1  
    51    9   49 1  
    52   10   50 1  
    53   11   51 1  
    54   12   52 1  
    55   13   53 1  
    56   14   54 1  
    57   17   55 1  
    58   18   56 1  
    59   19   57 1  
    60   19   58 1  
    61   20   59 1  
    62   22   60 1  
    63   23   61 1  
    64   26   62 1  
    65   26   63 1  
    66   26   64 1  
    67   30   65 1  
    68   31   66 1  
    69   32   67 1  
    70   33   68 1  
    71   34   69 1  
    72   35   70 1  
    73   35   71 1  
@<TRIPOS>SUBSTRUCTURE
     1 5HI         1

