### 
### Created by X-TOOL on Mon Sep 10 21:12:57 2018
### 

@<TRIPOS>MOLECULE
3cd0_ligand
   67    69     1     0     0
SMALL
GAST_HUCK


@<TRIPOS>ATOM
      1 N3        -16.1280    8.7000   46.7900 N.2       1 6HI        -0.3076
      2 C4        -14.4560    4.5470   46.1250 C.3       1 6HI        -0.0341
      3 C5        -14.9230    8.8700   46.2630 C.2       1 6HI         0.0341
      4 C6        -15.6270    5.3170   45.5060 C.3       1 6HI         0.0662
      5 C7        -13.1780    7.3070   44.8950 C.3       1 6HI         0.0138
      6 C8        -13.2060    8.0730   43.5600 C.3       1 6HI        -0.0129
      7 C10       -12.8690    8.0730   41.0680 C.3       1 6HI         0.0010
      8 C13       -15.7680    5.1400   43.9920 C.3       1 6HI        -0.0341
      9 C15       -12.0780   11.3160   46.7780 C.ar      1 6HI        -0.0349
     10 C17       -18.8260    5.1000   49.7920 C.ar      1 6HI        -0.0601
     11 C20       -19.0940    3.8760   50.4150 C.ar      1 6HI        -0.0348
     12 C21       -14.6660   11.2620   45.7490 C.ar      1 6HI        -0.0656
     13 C24       -13.9340   12.4470   45.7380 C.ar      1 6HI        -0.0349
     14 C26       -21.1790    5.4110   49.3880 C.ar      1 6HI        -0.0601
     15 F2        -20.6970    2.2490   51.1220 F         1 6HI        -0.1893
     16 C29       -20.4110    3.4230   50.5250 C.ar      1 6HI         0.1248
     17 C23       -21.4510    4.1920   50.0100 C.ar      1 6HI        -0.0348
     18 C32       -19.8740    5.8710   49.2730 C.ar      1 6HI        -0.0249
     19 C1        -19.6540    7.2060   48.5850 C.3       1 6HI         0.0623
     20 N2        -18.2730    7.3900   48.1680 N.am      1 6HI        -0.2718
     21 C3        -17.7930    6.8960   47.0300 C.2       1 6HI         0.2497
     22 O2        -18.4980    6.2750   46.2410 O.2       1 6HI        -0.3785
     23 C2        -16.4820    7.4220   46.5630 C.2       1 6HI         0.2088
     24 N4        -15.5140    6.7560   45.8830 N.pl3     1 6HI        -0.2236
     25 C12       -14.4760    7.5920   45.6440 C.2       1 6HI         0.0808
     26 C27       -14.0980   10.1000   46.2500 C.ar      1 6HI        -0.0359
     27 C30       -12.6430   12.4790   46.2530 C.ar      1 6HI         0.1255
     28 F1        -11.9460   13.6340   46.2380 F         1 6HI        -0.1886
     29 C18       -12.8130   10.1290   46.7880 C.ar      1 6HI        -0.0656
     30 C9        -12.3110    7.5730   42.4030 C.3       1 6HI         0.0599
     31 O4        -12.2300    6.1510   42.3100 O.3       1 6HI        -0.3915
     32 C11       -12.9330    9.5980   40.9680 C.3       1 6HI         0.0689
     33 O3        -11.6480   10.1290   41.2900 O.3       1 6HI        -0.3900
     34 C35       -13.3870   10.0030   39.5590 C.3       1 6HI         0.0264
     35 C36       -13.8450   11.4480   39.4660 C.2       1 6HI         0.0373
     36 O7        -13.1210   12.3030   38.9630 O.co2     1 6HI        -0.5689
     37 O6        -15.0490   11.8200   39.9100 O.co2     1 6HI        -0.5689
     38 H1        -14.5310    3.4840   45.8521 H         1 6HI         0.0260
     39 H2        -14.4888    4.6477   47.2199 H         1 6HI         0.0260
     40 H3        -13.5074    4.9564   45.7474 H         1 6HI         0.0260
     41 H4        -16.5498    4.9237   45.9573 H         1 6HI         0.0654
     42 H5        -12.3208    7.6423   45.4973 H         1 6HI         0.0480
     43 H6        -13.0905    6.2277   44.7017 H         1 6HI         0.0480
     44 H7        -12.9095    9.1103   43.7747 H         1 6HI         0.0317
     45 H8        -14.2445    8.0559   43.1977 H         1 6HI         0.0317
     46 H9        -13.8860    7.6727   40.9435 H         1 6HI         0.0316
     47 H10       -12.2255    7.6975   40.2588 H         1 6HI         0.0316
     48 H11       -16.6285    5.7238   43.6332 H         1 6HI         0.0260
     49 H12       -15.9244    4.0762   43.7602 H         1 6HI         0.0260
     50 H13       -14.8525    5.4929   43.4947 H         1 6HI         0.0260
     51 H14       -11.0704   11.3342   47.1773 H         1 6HI         0.0588
     52 H15       -17.8042    5.4526   49.7108 H         1 6HI         0.0548
     53 H16       -18.2804    3.2798   50.8120 H         1 6HI         0.0587
     54 H17       -15.6799   11.2479   45.3659 H         1 6HI         0.0549
     55 H18       -14.3730   13.3485   45.3260 H         1 6HI         0.0588
     56 H19       -21.9944    6.0046   48.9907 H         1 6HI         0.0548
     57 H20       -22.4740    3.8431   50.0924 H         1 6HI         0.0587
     58 H21       -19.9234    8.0125   49.2829 H         1 6HI         0.0675
     59 H22       -20.3016    7.2577   47.6973 H         1 6HI         0.0675
     60 H23       -17.6585    7.9096   48.7616 H         1 6HI         0.1871
     61 H24       -12.3838    9.2296   47.2145 H         1 6HI         0.0549
     62 H25       -11.2984    7.9755   42.5535 H         1 6HI         0.0596
     63 H26       -11.8862    5.8006   43.1234 H         1 6HI         0.2098
     64 H27       -13.6655    9.9788   41.6949 H         1 6HI         0.0612
     65 H28       -11.0045    9.7907   40.6785 H         1 6HI         0.2099
     66 H29       -14.2225    9.3524   39.2612 H         1 6HI         0.0456
     67 H30       -12.5449    9.8587   38.8662 H         1 6HI         0.0456
@<TRIPOS>BOND
     1    1    3 1  
     2   23    1 2  
     3    4    2 1  
     4    3   25 2  
     5    3   26 1  
     6    4    8 1  
     7   24    4 1  
     8    5    6 1  
     9   25    5 1  
    10    6   30 1  
    11   30    7 1  
    12    7   32 1  
    13   27    9 ar 
    14    9   29 ar 
    15   10   11 ar 
    16   18   10 ar 
    17   11   16 ar 
    18   12   13 ar 
    19   26   12 ar 
    20   13   27 ar 
    21   14   17 ar 
    22   18   14 ar 
    23   16   15 1  
    24   17   16 ar 
    25   19   18 1  
    26   20   19 1  
    27   21   20 am 
    28   21   22 2  
    29   23   21 1  
    30   23   24 1  
    31   24   25 1  
    32   26   29 ar 
    33   27   28 1  
    34   30   31 1  
    35   32   33 1  
    36   32   34 1  
    37   34   35 1  
    38   35   36 ar 
    39   35   37 ar 
    40    2   38 1  
    41    2   39 1  
    42    2   40 1  
    43    4   41 1  
    44    5   42 1  
    45    5   43 1  
    46    6   44 1  
    47    6   45 1  
    48    7   46 1  
    49    7   47 1  
    50    8   48 1  
    51    8   49 1  
    52    8   50 1  
    53    9   51 1  
    54   10   52 1  
    55   11   53 1  
    56   12   54 1  
    57   13   55 1  
    58   14   56 1  
    59   17   57 1  
    60   19   58 1  
    61   19   59 1  
    62   20   60 1  
    63   29   61 1  
    64   30   62 1  
    65   31   63 1  
    66   32   64 1  
    67   33   65 1  
    68   34   66 1  
    69   34   67 1  
@<TRIPOS>SUBSTRUCTURE
     1 6HI         1

