### 
### Created by X-TOOL on Mon Sep 10 21:12:58 2018
### 

@<TRIPOS>MOLECULE
3cd5_ligand
   75    78     1     0     0
SMALL
GAST_HUCK


@<TRIPOS>ATOM
      1 N1         14.1290    6.7820   45.3590 N.pl3     1 7HI        -0.2733
      2 C4         13.8900    3.2290   46.7850 C.3       1 7HI        -0.0449
      3 C5         14.3900    5.5980   45.9650 C.2       1 7HI         0.0283
      4 C6         15.2240    9.0900   45.1170 C.3       1 7HI        -0.0014
      5 C7         12.9440    7.0450   44.5330 C.3       1 7HI         0.0542
      6 C8         13.2580    6.5620   43.1140 C.3       1 7HI         0.0005
      7 C10        12.5090    6.3030   40.7300 C.3       1 7HI         0.0009
      8 C13        16.0580    9.2280   43.8610 C.3       1 7HI        -0.0536
      9 C15        22.6390    9.8600   51.5330 C.ar      1 7HI        -0.0579
     10 C17        19.8810    8.0990   48.4850 C.ar      1 7HI        -0.0390
     11 C20        20.8860    8.8230   49.1320 C.ar      1 7HI        -0.0662
     12 C21        23.5920   11.9810   52.1980 C.ar      1 7HI        -0.0640
     13 C22        21.6210   10.5220   50.8440 C.ar      1 7HI        -0.0276
     14 C24        22.5730   12.6470   51.5220 C.ar      1 7HI        -0.0637
     15 C26        18.2230    9.1940   49.8380 C.ar      1 7HI        -0.0390
     16 O2         18.0330    8.1570   46.1220 O.2       1 7HI        -0.3955
     17 C3         17.3130    7.5790   46.9200 C.2       1 7HI         0.1947
     18 N2         17.5250    7.5920   48.2400 N.am      1 7HI        -0.2390
     19 C32        18.5400    8.2820   48.8320 C.ar      1 7HI         0.0674
     20 C23        19.2270    9.9190   50.4810 C.ar      1 7HI        -0.0662
     21 C29        20.5640    9.7420   50.1310 C.ar      1 7HI        -0.0321
     22 C18        21.5900   11.9170   50.8490 C.ar      1 7HI        -0.0579
     23 C16        23.6230   10.5870   52.2040 C.ar      1 7HI        -0.0637
     24 C2         16.0400    6.9930   46.4020 C.2       1 7HI         0.0267
     25 C12        15.1250    7.6550   45.5970 C.2       1 7HI         0.0511
     26 C27        13.4750    4.3890   45.8840 C.3       1 7HI        -0.0100
     27 C25        15.2480    2.6960   46.4000 C.3       1 7HI        -0.0507
     28 C19        16.3640    3.3450   46.7270 C.3       1 7HI        -0.0500
     29 C14        16.3200    4.6530   47.4700 C.3       1 7HI        -0.0443
     30 C1         15.6070    5.7020   46.6420 C.2       1 7HI        -0.0607
     31 C9         12.1220    6.7900   42.1210 C.3       1 7HI         0.0602
     32 O4         11.8610    8.1820   42.0210 O.3       1 7HI        -0.3916
     33 C11        12.6280    4.7900   40.5960 C.3       1 7HI         0.0689
     34 O3         11.3650    4.1980   40.8150 O.3       1 7HI        -0.3900
     35 C35        13.0840    4.4350   39.1910 C.3       1 7HI         0.0264
     36 C36        13.6440    3.0340   39.1850 C.2       1 7HI         0.0373
     37 O7         12.9530    2.1020   38.8010 O.co2     1 7HI        -0.5689
     38 O6         14.8920    2.8200   39.6080 O.co2     1 7HI        -0.5689
     39 H1         13.1489    2.4213   46.6939 H         1 7HI         0.0283
     40 H2         13.9246    3.5791   47.8272 H         1 7HI         0.0283
     41 H3         14.2101    9.4626   44.9093 H         1 7HI         0.0444
     42 H4         15.6818    9.6966   45.9123 H         1 7HI         0.0444
     43 H5         12.7243    8.1228   44.5232 H         1 7HI         0.0611
     44 H6         12.0778    6.4978   44.9332 H         1 7HI         0.0611
     45 H7         13.4726    5.4839   43.1540 H         1 7HI         0.0317
     46 H8         14.1472    7.0998   42.7533 H         1 7HI         0.0317
     47 H9         13.4807    6.7476   40.4692 H         1 7HI         0.0316
     48 H10        11.7442    6.6508   40.0200 H         1 7HI         0.0316
     49 H11        16.0951   10.2853   43.5599 H         1 7HI         0.0253
     50 H12        15.6065    8.6326   43.0538 H         1 7HI         0.0253
     51 H13        17.0783    8.8665   44.0567 H         1 7HI         0.0253
     52 H14        22.6651    8.7764   51.5467 H         1 7HI         0.0602
     53 H15        20.1438    7.3901   47.7081 H         1 7HI         0.0510
     54 H16        21.9229    8.6695   48.8557 H         1 7HI         0.0590
     55 H17        24.3585   12.5443   52.7178 H         1 7HI         0.0599
     56 H18        22.5424   13.7306   51.5179 H         1 7HI         0.0612
     57 H19        17.1875    9.3411   50.1231 H         1 7HI         0.0510
     58 H20        16.9056    7.0673   48.8240 H         1 7HI         0.2255
     59 H21        18.9645   10.6261   51.2596 H         1 7HI         0.0590
     60 H22        20.7965   12.4388   50.3263 H         1 7HI         0.0602
     61 H23        24.4140   10.0664   52.7316 H         1 7HI         0.0612
     62 H24        12.4611    4.7038   46.1719 H         1 7HI         0.0395
     63 H25        13.4666    4.0319   44.8436 H         1 7HI         0.0395
     64 H26        15.2487    2.6085   45.3035 H         1 7HI         0.0268
     65 H27        15.3278    1.6945   46.8478 H         1 7HI         0.0268
     66 H28        16.8977    3.5402   45.7852 H         1 7HI         0.0277
     67 H29        16.9549    2.6548   47.3471 H         1 7HI         0.0277
     68 H30        17.3471    4.9888   47.6754 H         1 7HI         0.0330
     69 H31        15.7830    4.5133   48.4198 H         1 7HI         0.0330
     70 H32        11.2224    6.2590   42.4656 H         1 7HI         0.0595
     71 H33        11.6158    8.5192   42.8746 H         1 7HI         0.2098
     72 H34        13.3525    4.4097   41.3312 H         1 7HI         0.0612
     73 H35        10.7471    4.5260   40.1723 H         1 7HI         0.2099
     74 H36        13.8618    5.1425   38.8678 H         1 7HI         0.0456
     75 H37        12.2282    4.4911   38.5022 H         1 7HI         0.0456
@<TRIPOS>BOND
     1    1    3 1  
     2    1    5 1  
     3   25    1 1  
     4   26    2 1  
     5    2   27 1  
     6    3   26 1  
     7    3   30 2  
     8    4    8 1  
     9   25    4 1  
    10    5    6 1  
    11    6   31 1  
    12   31    7 1  
    13    7   33 1  
    14   13    9 ar 
    15    9   23 ar 
    16   10   11 ar 
    17   19   10 ar 
    18   11   21 ar 
    19   14   12 ar 
    20   23   12 ar 
    21   21   13 1  
    22   13   22 ar 
    23   22   14 ar 
    24   19   15 ar 
    25   15   20 ar 
    26   17   16 2  
    27   17   18 am 
    28   24   17 1  
    29   18   19 1  
    30   20   21 ar 
    31   24   25 2  
    32   24   30 1  
    33   27   28 1  
    34   28   29 1  
    35   29   30 1  
    36   31   32 1  
    37   33   34 1  
    38   33   35 1  
    39   35   36 1  
    40   36   37 ar 
    41   36   38 ar 
    42    2   39 1  
    43    2   40 1  
    44    4   41 1  
    45    4   42 1  
    46    5   43 1  
    47    5   44 1  
    48    6   45 1  
    49    6   46 1  
    50    7   47 1  
    51    7   48 1  
    52    8   49 1  
    53    8   50 1  
    54    8   51 1  
    55    9   52 1  
    56   10   53 1  
    57   11   54 1  
    58   12   55 1  
    59   14   56 1  
    60   15   57 1  
    61   18   58 1  
    62   20   59 1  
    63   22   60 1  
    64   23   61 1  
    65   26   62 1  
    66   26   63 1  
    67   27   64 1  
    68   27   65 1  
    69   28   66 1  
    70   28   67 1  
    71   29   68 1  
    72   29   69 1  
    73   31   70 1  
    74   32   71 1  
    75   33   72 1  
    76   34   73 1  
    77   35   74 1  
    78   35   75 1  
@<TRIPOS>SUBSTRUCTURE
     1 7HI         1

