### 
### Created by X-TOOL on Mon Sep 10 21:12:59 2018
### 

@<TRIPOS>MOLECULE
3cd7_ligand
   75    78     1     0     0
SMALL
GAST_HUCK


@<TRIPOS>ATOM
      1 N1         -4.3760  -16.1490    5.9810 N.pl3     1 882        -0.2495
      2 C4         -4.3140  -16.1660    7.3370 C.2       1 882         0.0644
      3 C5         -5.5920  -15.9230    7.7830 C.2       1 882        -0.0145
      4 C6         -3.2050  -16.4030    5.0930 C.3       1 882         0.0617
      5 C7         -3.1160  -16.4370    8.2070 C.3       1 882         0.0118
      6 C8         -2.1360  -15.2810    8.1590 C.3       1 882        -0.0131
      7 C10        -0.6060  -14.0780    9.6930 C.3       1 882         0.0010
      8 C13        -2.8120  -15.1510    4.3140 C.3       1 882        -0.0344
      9 C15        -7.1230  -16.4340   11.2280 C.ar      1 882        -0.0351
     10 C17        -7.8560  -15.3700    1.7450 C.ar      1 882        -0.0414
     11 C20        -8.2580  -15.3070    0.4130 C.ar      1 882        -0.0756
     12 C21        -5.4220  -14.6960    9.8940 C.ar      1 882        -0.0667
     13 C22        -9.6900  -14.1710    7.7540 C.ar      1 882        -0.0308
     14 C24        -5.7090  -14.4730   11.2350 C.ar      1 882        -0.0351
     15 C26        -7.4350  -17.7250    1.5040 C.ar      1 882        -0.0414
     16 C28       -10.5800  -15.1290    7.2720 C.ar      1 882         0.1296
     17 O7         -1.9920  -10.9220   12.8300 O.co2     1 882        -0.5689
     18 C36        -2.1480  -11.1360   11.6070 C.2       1 882         0.0373
     19 O6         -3.1260  -10.6980   10.9630 O.co2     1 882        -0.5689
     20 C35        -1.1020  -11.9480   10.8740 C.3       1 882         0.0264
     21 C11        -1.5500  -13.3910   10.6700 C.3       1 882         0.0689
     22 O3         -1.5070  -14.1440   11.8700 O.3       1 882        -0.3900
     23 C9         -1.1460  -15.4480    9.3040 C.3       1 882         0.0599
     24 O4         -0.0930  -16.2950    8.8810 O.3       1 882        -0.3915
     25 C27        -5.9720  -15.7880    9.2190 C.ar      1 882        -0.0472
     26 C30        -6.5650  -15.3430   11.9010 C.ar      1 882         0.1254
     27 F1         -6.8450  -15.1280   13.1980 F         1 882        -0.1887
     28 C18        -6.8300  -16.6620    9.8810 C.ar      1 882        -0.0667
     29 C14        -3.5440  -17.5670    4.1810 C.3       1 882        -0.0344
     30 C2         -5.6510  -15.8990    5.5750 C.2       1 882         0.1385
     31 C1         -6.4000  -15.6960    6.7190 C.2       1 882        -0.0130
     32 C31        -7.8510  -15.4500    6.8870 C.ar      1 882        -0.0386
     33 C25        -8.3230  -14.3390    7.5750 C.ar      1 882        -0.0613
     34 F2        -11.8950  -14.9480    7.4520 F         1 882        -0.1854
     35 C19       -10.1090  -16.2560    6.6060 C.ar      1 882        -0.0308
     36 C16        -8.7380  -16.4220    6.4260 C.ar      1 882        -0.0613
     37 C3         -6.2030  -15.7470    4.2020 C.2       1 882         0.2400
     38 O1         -5.8090  -14.7540    3.6000 O.2       1 882        -0.3844
     39 N2         -7.0030  -16.6740    3.6510 N.am      1 882        -0.2354
     40 C32        -7.4340  -16.5800    2.3050 C.ar      1 882         0.0652
     41 C23        -7.8480  -17.6630    0.1750 C.ar      1 882        -0.0756
     42 C29        -8.2600  -16.4530   -0.3770 C.ar      1 882        -0.0772
     43 H1         -2.3475  -16.6912    5.7187 H         1 882         0.0651
     44 H2         -2.6135  -17.3493    7.8530 H         1 882         0.0478
     45 H3         -3.4506  -16.5818    9.2448 H         1 882         0.0478
     46 H4         -2.6768  -14.3296    8.2703 H         1 882         0.0317
     47 H5         -1.5992  -15.2876    7.1989 H         1 882         0.0317
     48 H6          0.3798  -14.1984   10.1659 H         1 882         0.0316
     49 H7         -0.5061  -13.4584    8.7896 H         1 882         0.0316
     50 H8         -1.9476  -15.3751    3.6717 H         1 882         0.0260
     51 H9         -2.5471  -14.3489    5.0185 H         1 882         0.0260
     52 H10        -3.6580  -14.8266    3.6902 H         1 882         0.0260
     53 H11        -7.7881  -17.1083   11.7553 H         1 882         0.0587
     54 H12        -7.8704  -14.4728    2.3533 H         1 882         0.0502
     55 H13        -8.5712  -14.3598   -0.0110 H         1 882         0.0577
     56 H14        -4.7642  -14.0152    9.3660 H         1 882         0.0548
     57 H15       -10.0650  -13.2940    8.2691 H         1 882         0.0598
     58 H16        -5.2703  -13.6299   11.7563 H         1 882         0.0587
     59 H17        -7.1110  -18.6716    1.9212 H         1 882         0.0502
     60 H18        -0.1713  -11.9431   11.4603 H         1 882         0.0456
     61 H19        -0.9186  -11.4893    9.8912 H         1 882         0.0456
     62 H20        -2.5752  -13.3939   10.2713 H         1 882         0.0612
     63 H21        -0.6174  -14.1564   12.2030 H         1 882         0.2099
     64 H22        -1.6526  -15.9000   10.1695 H         1 882         0.0596
     65 H23        -0.4471  -17.1437    8.6426 H         1 882         0.2098
     66 H24        -7.2644  -17.5070    9.3591 H         1 882         0.0548
     67 H25        -2.6921  -17.7719    3.5160 H         1 882         0.0260
     68 H26        -4.4280  -17.3143    3.5771 H         1 882         0.0260
     69 H27        -3.7576  -18.4588    4.7886 H         1 882         0.0260
     70 H28        -7.6278  -13.6070    7.9701 H         1 882         0.0583
     71 H29       -10.8034  -16.9988    6.2303 H         1 882         0.0598
     72 H30        -8.3603  -17.3073    5.9273 H         1 882         0.0583
     73 H31        -7.3022  -17.4508    4.2052 H         1 882         0.2243
     74 H32        -7.8486  -18.5610   -0.4322 H         1 882         0.0577
     75 H33        -8.5792  -16.4039   -1.4118 H         1 882         0.0487
@<TRIPOS>BOND
     1    1    2 1  
     2    1    4 1  
     3   30    1 1  
     4    3    2 2  
     5    2    5 1  
     6    3   25 1  
     7   31    3 1  
     8    4    8 1  
     9    4   29 1  
    10    5    6 1  
    11    6   23 1  
    12    7   21 1  
    13   23    7 1  
    14    9   26 ar 
    15   28    9 ar 
    16   10   11 ar 
    17   40   10 ar 
    18   11   42 ar 
    19   12   14 ar 
    20   25   12 ar 
    21   13   16 ar 
    22   33   13 ar 
    23   14   26 ar 
    24   40   15 ar 
    25   15   41 ar 
    26   16   34 1  
    27   35   16 ar 
    28   18   17 ar 
    29   18   19 ar 
    30   20   18 1  
    31   21   20 1  
    32   21   22 1  
    33   23   24 1  
    34   25   28 ar 
    35   26   27 1  
    36   30   31 2  
    37   37   30 1  
    38   31   32 1  
    39   32   33 ar 
    40   32   36 ar 
    41   36   35 ar 
    42   37   38 2  
    43   39   37 am 
    44   39   40 1  
    45   41   42 ar 
    46    4   43 1  
    47    5   44 1  
    48    5   45 1  
    49    6   46 1  
    50    6   47 1  
    51    7   48 1  
    52    7   49 1  
    53    8   50 1  
    54    8   51 1  
    55    8   52 1  
    56    9   53 1  
    57   10   54 1  
    58   11   55 1  
    59   12   56 1  
    60   13   57 1  
    61   14   58 1  
    62   15   59 1  
    63   20   60 1  
    64   20   61 1  
    65   21   62 1  
    66   22   63 1  
    67   23   64 1  
    68   24   65 1  
    69   28   66 1  
    70   29   67 1  
    71   29   68 1  
    72   29   69 1  
    73   33   70 1  
    74   35   71 1  
    75   36   72 1  
    76   39   73 1  
    77   41   74 1  
    78   42   75 1  
@<TRIPOS>SUBSTRUCTURE
     1 882         1

