### 
### Created by X-TOOL on Mon Sep 10 21:12:59 2018
### 

@<TRIPOS>MOLECULE
3cd8_ligand
   46    50     1     0     0
SMALL
GAST_HUCK


@<TRIPOS>ATOM
      1 N1         18.8700   12.9580   57.3230 N.2       1 L5G        -0.1323
      2 N3         20.8530   15.6230   56.7120 N.2       1 L5G        -0.2785
      3 C4         17.0150   12.3890   58.6630 C.ar      1 L5G         0.0070
      4 C5         15.9950   12.7380   59.5520 C.ar      1 L5G        -0.0498
      5 C6         15.0540   11.7850   59.9360 C.ar      1 L5G        -0.0592
      6 C7         17.9610   13.3250   58.2470 C.2       1 L5G         0.0967
      7 C8         17.9690   14.6240   58.7590 C.2       1 L5G        -0.0172
      8 C10        19.8260   15.0590   57.3540 C.2       1 L5G         0.1787
      9 C13        21.9960   10.7850   56.7020 C.ar      1 L5G         0.1239
     10 C15        24.1990   11.0250   57.6610 C.ar      1 L5G        -0.0104
     11 C17        22.8320    9.2880   58.4090 C.ar      1 L5G         0.0240
     12 C20        20.4310    7.8810   58.3500 C.ar      1 L5G        -0.0248
     13 C21        20.6110    8.9750   57.5050 C.ar      1 L5G        -0.0480
     14 C22        22.2490    5.9330   60.8780 C.3       1 L5G         0.0606
     15 O2         21.1940    6.3870   60.0150 O.3       1 L5G        -0.3182
     16 C19        21.4460    7.4750   59.2200 C.ar      1 L5G         0.0945
     17 C18        22.6520    8.1860   59.2510 C.ar      1 L5G        -0.0196
     18 C16        21.8080    9.6830   57.5350 C.ar      1 L5G         0.0348
     19 N5         23.9890    9.9720   58.4400 N.ar      1 L5G        -0.3237
     20 C14        23.2150   11.4610   56.7690 C.ar      1 L5G        -0.0084
     21 O1         20.9960   11.1640   55.8430 O.3       1 L5G        -0.2829
     22 C12        21.0990   12.5060   55.2520 C.3       1 L5G         0.1584
     23 C11        20.7660   13.6440   55.9900 C.2       1 L5G         0.2025
     24 N2         19.7330   13.7400   56.9100 N.pl3     1 L5G        -0.0967
     25 N4         21.3910   14.8220   55.9320 N.2       1 L5G        -0.2658
     26 C9         18.9220   15.5220   58.3060 C.2       1 L5G         0.0064
     27 C3         17.0800   11.0860   58.1580 C.ar      1 L5G        -0.0498
     28 C2         16.1430   10.1300   58.5470 C.ar      1 L5G        -0.0592
     29 C1         15.1280   10.4830   59.4370 C.ar      1 L5G        -0.0600
     30 H1         15.9360   13.7477   59.9419 H         1 L5G         0.0641
     31 H2         14.2616   12.0553   60.6246 H         1 L5G         0.0622
     32 H3         17.2357   14.9274   59.5047 H         1 L5G         0.0717
     33 H4         25.1440   11.5531   57.7168 H         1 L5G         0.0803
     34 H5         19.4925    7.3389   58.3319 H         1 L5G         0.0584
     35 H6         19.8202    9.2732   56.8262 H         1 L5G         0.0652
     36 H7         21.9039    5.0596   61.4508 H         1 L5G         0.0580
     37 H8         22.5278    6.7397   61.5719 H         1 L5G         0.0580
     38 H9         23.1230    5.6520   60.2721 H         1 L5G         0.0580
     39 H10        23.4442    7.8829   59.9260 H         1 L5G         0.0495
     40 H11        23.3978   12.3195   56.1328 H         1 L5G         0.0550
     41 H12        20.4493   12.5077   54.3644 H         1 L5G         0.0862
     42 H13        22.1464   12.6309   54.9400 H         1 L5G         0.0862
     43 H14        18.9621   16.5446   58.6782 H         1 L5G         0.0749
     44 H15        17.8643   10.8179   57.4594 H         1 L5G         0.0641
     45 H16        16.2025    9.1190   58.1606 H         1 L5G         0.0622
     46 H17        14.3952    9.7447   59.7418 H         1 L5G         0.0632
@<TRIPOS>BOND
     1    1    6 2  
     2   24    1 1  
     3    8    2 2  
     4    2   25 1  
     5    3    4 ar 
     6    6    3 1  
     7    3   27 ar 
     8    4    5 ar 
     9    5   29 ar 
    10    6    7 1  
    11   26    7 2  
    12   24    8 1  
    13    8   26 1  
    14    9   18 ar 
    15    9   20 ar 
    16   21    9 1  
    17   10   19 ar 
    18   20   10 ar 
    19   11   17 ar 
    20   18   11 ar 
    21   11   19 ar 
    22   13   12 ar 
    23   12   16 ar 
    24   18   13 ar 
    25   15   14 1  
    26   16   15 1  
    27   17   16 ar 
    28   22   21 1  
    29   23   22 1  
    30   23   24 1  
    31   23   25 2  
    32   27   28 ar 
    33   28   29 ar 
    34    4   30 1  
    35    5   31 1  
    36    7   32 1  
    37   10   33 1  
    38   12   34 1  
    39   13   35 1  
    40   14   36 1  
    41   14   37 1  
    42   14   38 1  
    43   17   39 1  
    44   20   40 1  
    45   22   41 1  
    46   22   42 1  
    47   26   43 1  
    48   27   44 1  
    49   28   45 1  
    50   29   46 1  
@<TRIPOS>SUBSTRUCTURE
     1 L5G         1

