### 
### Created by X-TOOL on Mon Sep 10 21:12:58 2018
### 

@<TRIPOS>MOLECULE
3cda_ligand
   80    83     1     0     0
SMALL
GAST_HUCK


@<TRIPOS>ATOM
      1 N1         21.7720   26.0980   14.1560 N.am      1 8HI        -0.2352
      2 C4         16.5350   24.4240   17.1810 C.ar      1 8HI        -0.0667
      3 C5         15.5700   24.0430   18.1180 C.ar      1 8HI        -0.0350
      4 C6         18.1760   23.7710   15.3620 C.2       1 8HI        -0.0137
      5 C7         18.0090   23.5820   14.0030 C.2       1 8HI         0.0648
      6 C8         20.0630   24.3550   14.3530 C.2       1 8HI         0.1401
      7 C10        19.9790   24.5550   16.9480 C.ar      1 8HI        -0.0352
      8 C13        20.9440   25.3630   19.4560 C.ar      1 8HI        -0.0651
      9 C15        20.0850   23.6380   17.9850 C.ar      1 8HI        -0.0601
     10 C17        22.9810   26.6470   13.8430 C.ar      1 8HI         0.0653
     11 C20        25.3430   27.9700   13.0700 C.ar      1 8HI         0.0924
     12 C21        25.3920   26.6610   13.5650 C.ar      1 8HI        -0.0490
     13 C22        24.2180   25.9960   13.9440 C.ar      1 8HI        -0.0395
     14 C24        19.8600   25.2760   11.4240 C.3       1 8HI        -0.0343
     15 C26        16.7500   23.1070   13.3180 C.3       1 8HI         0.0119
     16 C28        15.5310   21.1720   12.3300 C.3       1 8HI         0.0599
     17 O5         16.8040   17.6360   16.1000 O.co2     1 8HI        -0.5689
     18 C32        15.7920   17.3590   15.4610 C.2       1 8HI         0.0373
     19 O6         14.7630   16.7640   16.0510 O.co2     1 8HI        -0.5689
     20 C31        15.6940   17.7240   14.0070 C.3       1 8HI         0.0264
     21 C30        15.4480   19.2200   13.8960 C.3       1 8HI         0.0689
     22 O4         14.1610   19.5490   14.3790 O.3       1 8HI        -0.3900
     23 C29        15.5330   19.6580   12.4450 C.3       1 8HI         0.0010
     24 O3         15.2560   21.5150   10.9810 O.3       1 8HI        -0.3915
     25 C27        16.9010   21.7190   12.7340 C.3       1 8HI        -0.0131
     26 C3         17.1390   23.4570   16.3900 C.ar      1 8HI        -0.0470
     27 C2         16.7950   22.1160   16.5500 C.ar      1 8HI        -0.0667
     28 C1         15.8420   21.7320   17.4870 C.ar      1 8HI        -0.0350
     29 C          15.2310   22.7010   18.2730 C.ar      1 8HI         0.1255
     30 F          14.3070   22.3300   19.1750 F         1 8HI        -0.1887
     31 N          19.1790   23.9410   13.4110 N.pl3     1 8HI        -0.2487
     32 C23        19.3720   23.9140   11.9200 C.3       1 8HI         0.0620
     33 C25        20.2500   22.7570   11.4730 C.3       1 8HI        -0.0343
     34 C9         19.4490   24.2060   15.5950 C.2       1 8HI        -0.0104
     35 C11        20.3380   25.8860   17.1850 C.ar      1 8HI        -0.0601
     36 C12        20.8300   26.2930   18.4260 C.ar      1 8HI        -0.0651
     37 C14        20.5740   24.0390   19.2300 C.ar      1 8HI        -0.0651
     38 C16        21.4770   24.7970   14.1410 C.2       1 8HI         0.2411
     39 O          22.1730   23.9760   13.5700 O.2       1 8HI        -0.3837
     40 C18        22.9460   27.9460   13.3380 C.ar      1 8HI        -0.0395
     41 C19        24.1110   28.6120   12.9670 C.ar      1 8HI        -0.0490
     42 S          26.6630   28.7720   12.6430 S.o2      1 8HI         0.0591
     43 O1         27.7390   27.8980   12.2940 O.2       1 8HI        -0.1524
     44 O2         26.3590   29.6320   11.5290 O.2       1 8HI        -0.1524
     45 N2         27.0590   29.6990   13.8850 N.am      1 8HI        -0.2626
     46 H1         21.0412   26.7273   14.4204 H         1 8HI         0.2243
     47 H2         16.8094   25.4671   17.0732 H         1 8HI         0.0548
     48 H3         15.0830   24.7960   18.7271 H         1 8HI         0.0588
     49 H4         21.3180   25.6670   20.4269 H         1 8HI         0.0589
     50 H5         19.7873   22.6076   17.8277 H         1 8HI         0.0590
     51 H6         26.3474   26.1571   13.6559 H         1 8HI         0.0596
     52 H7         24.2667   24.9787   14.3151 H         1 8HI         0.0503
     53 H8         19.9966   25.2415   10.3331 H         1 8HI         0.0260
     54 H9         20.8182   25.5200   11.9060 H         1 8HI         0.0260
     55 H10        19.1161   26.0461   11.6761 H         1 8HI         0.0260
     56 H11        16.5036   23.8071   12.5062 H         1 8HI         0.0478
     57 H12        15.9312   23.0943   14.0524 H         1 8HI         0.0478
     58 H13        14.7574   21.5954   12.9874 H         1 8HI         0.0596
     59 H14        14.8604   17.1764   13.5432 H         1 8HI         0.0456
     60 H15        16.6328   17.4643   13.4960 H         1 8HI         0.0456
     61 H16        16.2079   19.7532   14.4861 H         1 8HI         0.0612
     62 H17        13.5051   19.0897   13.8677 H         1 8HI         0.2099
     63 H18        16.4617   19.2655   12.0051 H         1 8HI         0.0316
     64 H19        14.6687   19.2549   11.8969 H         1 8HI         0.0316
     65 H20        15.2509   22.4607   10.8906 H         1 8HI         0.2098
     66 H21        17.3519   21.0542   13.4855 H         1 8HI         0.0317
     67 H22        17.5511   21.7649   11.8478 H         1 8HI         0.0317
     68 H23        17.2763   21.3630   15.9365 H         1 8HI         0.0548
     69 H24        15.5784   20.6869   17.6030 H         1 8HI         0.0588
     70 H25        18.3827   23.7464   11.4693 H         1 8HI         0.0651
     71 H26        19.8409   21.8138   11.8643 H         1 8HI         0.0260
     72 H27        21.2705   22.9014   11.8573 H         1 8HI         0.0260
     73 H28        20.2740   22.7182   10.3740 H         1 8HI         0.0260
     74 H29        20.2321   26.6151   16.3898 H         1 8HI         0.0590
     75 H30        21.1210   27.3248   18.5867 H         1 8HI         0.0608
     76 H31        20.6667   23.3124   20.0291 H         1 8HI         0.0608
     77 H32        21.9912   28.4483   13.2319 H         1 8HI         0.0503
     78 H33        24.0594   29.6300   12.5980 H         1 8HI         0.0596
     79 H34        27.8632   30.2908   13.8308 H         1 8HI         0.1633
     80 H35        26.5023   29.6867   14.7156 H         1 8HI         0.1633
@<TRIPOS>BOND
     1    1   10 1  
     2   38    1 am 
     3    2    3 ar 
     4   26    2 ar 
     5    3   29 ar 
     6    5    4 2  
     7    4   26 1  
     8   34    4 1  
     9    5   15 1  
    10   31    5 1  
    11   31    6 1  
    12    6   34 2  
    13    6   38 1  
    14    7    9 ar 
    15   34    7 1  
    16    7   35 ar 
    17    8   36 ar 
    18   37    8 ar 
    19    9   37 ar 
    20   10   13 ar 
    21   10   40 ar 
    22   12   11 ar 
    23   11   41 ar 
    24   11   42 1  
    25   13   12 ar 
    26   32   14 1  
    27   15   25 1  
    28   16   23 1  
    29   16   24 1  
    30   25   16 1  
    31   18   17 ar 
    32   18   19 ar 
    33   20   18 1  
    34   21   20 1  
    35   21   22 1  
    36   23   21 1  
    37   26   27 ar 
    38   27   28 ar 
    39   28   29 ar 
    40   29   30 1  
    41   31   32 1  
    42   32   33 1  
    43   35   36 ar 
    44   38   39 2  
    45   40   41 ar 
    46   42   43 2  
    47   42   44 2  
    48   42   45 am 
    49    1   46 1  
    50    2   47 1  
    51    3   48 1  
    52    8   49 1  
    53    9   50 1  
    54   12   51 1  
    55   13   52 1  
    56   14   53 1  
    57   14   54 1  
    58   14   55 1  
    59   15   56 1  
    60   15   57 1  
    61   16   58 1  
    62   20   59 1  
    63   20   60 1  
    64   21   61 1  
    65   22   62 1  
    66   23   63 1  
    67   23   64 1  
    68   24   65 1  
    69   25   66 1  
    70   25   67 1  
    71   27   68 1  
    72   28   69 1  
    73   32   70 1  
    74   33   71 1  
    75   33   72 1  
    76   33   73 1  
    77   35   74 1  
    78   36   75 1  
    79   37   76 1  
    80   40   77 1  
    81   41   78 1  
    82   45   79 1  
    83   45   80 1  
@<TRIPOS>SUBSTRUCTURE
     1 8HI         1

