### 
### Created by X-TOOL on Mon Sep 10 21:12:58 2018
### 

@<TRIPOS>MOLECULE
3cdb_ligand
   80    83     1     0     0
SMALL
GAST_HUCK


@<TRIPOS>ATOM
      1 N1         14.3860    6.5480   45.4770 N.pl3     1 9HI        -0.2629
      2 N3         10.9610    7.4240   51.3610 N.am      1 9HI        -0.3027
      3 C5         14.5670    5.2740   45.8620 C.2       1 9HI         0.0647
      4 C6         15.4940    8.8340   45.8730 C.3       1 9HI         0.0109
      5 C7         13.3080    6.9340   44.5720 C.3       1 9HI         0.0557
      6 C8         13.7390    6.7040   43.1340 C.3       1 9HI         0.0006
      7 C10        12.9670    6.1130   40.8620 C.3       1 9HI         0.0009
      8 C13        14.2200    9.6060   46.2210 C.3       1 9HI        -0.0504
      9 C15        12.3190    2.2800   46.2390 C.ar      1 9HI        -0.0323
     10 C17        15.7760    7.0350   51.3220 C.ar      1 9HI        -0.0391
     11 C20        14.5580    7.2400   51.9820 C.ar      1 9HI        -0.0577
     12 C21        14.2090    3.2580   44.4460 C.ar      1 9HI        -0.0601
     13 C22        17.5150    2.0290   47.1600 C.ar      1 9HI        -0.0321
     14 C24        13.5750    2.0490   44.1930 C.ar      1 9HI        -0.0323
     15 C26        14.7180    7.5460   49.2380 C.ar      1 9HI        -0.0391
     16 C28        17.4920    1.8500   48.5270 C.ar      1 9HI         0.1284
     17 O5         12.0840    8.4000   53.0310 O.2       1 9HI        -0.3931
     18 C3         12.0950    7.8310   51.9490 C.2       1 9HI         0.1895
     19 C29        13.4160    7.6000   51.2630 C.ar      1 9HI         0.0316
     20 C23        13.5080    7.7530   49.8860 C.ar      1 9HI        -0.0577
     21 C32        15.8780    7.1870   49.9330 C.ar      1 9HI         0.0680
     22 N2         17.0960    6.9700   49.3440 N.am      1 9HI        -0.1885
     23 S1         17.4550    6.9580   47.7680 S.o2      1 9HI         0.0709
     24 O1         18.0050    8.2250   47.3980 O.2       1 9HI        -0.1506
     25 O2         18.4950    5.9980   47.5610 O.2       1 9HI        -0.1506
     26 C2         16.1620    6.5290   46.8290 C.2       1 9HI         0.1063
     27 C1         15.7030    5.2520   46.7700 C.2       1 9HI        -0.0102
     28 C31        16.3020    4.0670   47.4260 C.ar      1 9HI        -0.0420
     29 C25        16.9240    3.1420   46.6090 C.ar      1 9HI        -0.0630
     30 C16        16.2770    3.8950   48.8050 C.ar      1 9HI        -0.0630
     31 C19        16.8780    2.7770   49.3620 C.ar      1 9HI        -0.0321
     32 F2         18.0740    0.7600   49.0240 F         1 9HI        -0.1864
     33 C12        15.3400    7.3570   46.0450 C.2       1 9HI         0.0722
     34 C14        15.9900    9.1380   44.4600 C.3       1 9HI        -0.0504
     35 C27        13.8910    3.9790   45.5940 C.ar      1 9HI        -0.0104
     36 C30        12.6340    1.5650   45.0940 C.ar      1 9HI         0.1280
     37 C18        12.9510    3.4910   46.4910 C.ar      1 9HI        -0.0601
     38 F1         12.0240    0.4040   44.8510 F         1 9HI        -0.1866
     39 C9         12.5260    6.6510   42.2160 C.3       1 9HI         0.0602
     40 O4         11.9960    7.9580   42.0640 O.3       1 9HI        -0.3916
     41 C11        13.0460    4.5940   40.8430 C.3       1 9HI         0.0689
     42 O3         11.7790    4.0510   41.1830 O.3       1 9HI        -0.3900
     43 C35        13.4780    4.1510   39.4510 C.3       1 9HI         0.0264
     44 C36        13.9130    2.7050   39.4440 C.2       1 9HI         0.0373
     45 O6         14.9610    2.3630   39.9760 O.co2     1 9HI        -0.5689
     46 O7         13.1480    1.7990   38.8470 O.co2     1 9HI        -0.5689
     47 H1         10.9953    6.9605   50.4756 H         1 9HI         0.1803
     48 H2         10.0808    7.5839   51.8079 H         1 9HI         0.1803
     49 H3         16.2719    9.1679   46.5754 H         1 9HI         0.0484
     50 H4         13.0725    7.9986   44.7171 H         1 9HI         0.0612
     51 H5         12.4154    6.3283   44.7873 H         1 9HI         0.0612
     52 H6         14.2850    5.7514   43.0677 H         1 9HI         0.0317
     53 H7         14.3970    7.5266   42.8173 H         1 9HI         0.0317
     54 H8         13.9603    6.5219   40.6252 H         1 9HI         0.0316
     55 H9         12.2447    6.4393   40.0992 H         1 9HI         0.0316
     56 H10        14.3926   10.6827   46.0761 H         1 9HI         0.0256
     57 H11        13.9511    9.4158   47.2705 H         1 9HI         0.0256
     58 H12        13.4002    9.2748   45.5666 H         1 9HI         0.0256
     59 H13        11.5823    1.8956   46.9351 H         1 9HI         0.0594
     60 H14        16.6529    6.7546   51.8943 H         1 9HI         0.0497
     61 H15        14.5012    7.1185   53.0577 H         1 9HI         0.0625
     62 H16        14.9492    3.6394   43.7520 H         1 9HI         0.0572
     63 H17        17.9965    1.2961   46.5227 H         1 9HI         0.0595
     64 H18        13.8126    1.4858   43.2978 H         1 9HI         0.0594
     65 H19        14.7656    7.6660   48.1617 H         1 9HI         0.0497
     66 H20        12.6312    8.0353   49.3146 H         1 9HI         0.0625
     67 H21        17.8586    6.7974   49.9674 H         1 9HI         0.2187
     68 H22        16.9460    3.2934   45.5358 H         1 9HI         0.0573
     69 H23        15.7920    4.6284   49.4390 H         1 9HI         0.0573
     70 H24        16.8695    2.6272   50.4356 H         1 9HI         0.0595
     71 H25        16.9045    8.5602   44.2602 H         1 9HI         0.0256
     72 H26        16.2085   10.2124   44.3713 H         1 9HI         0.0256
     73 H27        15.2142    8.8601   43.7313 H         1 9HI         0.0256
     74 H28        12.7107    4.0535   47.3859 H         1 9HI         0.0572
     75 H29        11.7598    5.9899   42.6471 H         1 9HI         0.0595
     76 H30        11.7227    8.2883   42.9118 H         1 9HI         0.2098
     77 H31        13.7905    4.2547   41.5782 H         1 9HI         0.0612
     78 H32        11.1310    4.3432   40.5527 H         1 9HI         0.2099
     79 H33        14.3181    4.7792   39.1200 H         1 9HI         0.0456
     80 H34        12.6328    4.2739   38.7578 H         1 9HI         0.0456
@<TRIPOS>BOND
     1    3    1 1  
     2    1    5 1  
     3   33    1 1  
     4   18    2 am 
     5   27    3 2  
     6    3   35 1  
     7    4    8 1  
     8   33    4 1  
     9    4   34 1  
    10    5    6 1  
    11    6   39 1  
    12   39    7 1  
    13    7   41 1  
    14   36    9 ar 
    15    9   37 ar 
    16   10   11 ar 
    17   21   10 ar 
    18   11   19 ar 
    19   12   14 ar 
    20   35   12 ar 
    21   13   16 ar 
    22   29   13 ar 
    23   14   36 ar 
    24   15   20 ar 
    25   21   15 ar 
    26   16   31 ar 
    27   16   32 1  
    28   18   17 2  
    29   19   18 1  
    30   20   19 ar 
    31   22   21 1  
    32   23   22 am 
    33   23   24 2  
    34   23   25 2  
    35   26   23 1  
    36   27   26 1  
    37   26   33 2  
    38   28   27 1  
    39   28   29 ar 
    40   28   30 ar 
    41   30   31 ar 
    42   35   37 ar 
    43   36   38 1  
    44   39   40 1  
    45   41   42 1  
    46   41   43 1  
    47   43   44 1  
    48   44   45 ar 
    49   44   46 ar 
    50    2   47 1  
    51    2   48 1  
    52    4   49 1  
    53    5   50 1  
    54    5   51 1  
    55    6   52 1  
    56    6   53 1  
    57    7   54 1  
    58    7   55 1  
    59    8   56 1  
    60    8   57 1  
    61    8   58 1  
    62    9   59 1  
    63   10   60 1  
    64   11   61 1  
    65   12   62 1  
    66   13   63 1  
    67   14   64 1  
    68   15   65 1  
    69   20   66 1  
    70   22   67 1  
    71   29   68 1  
    72   30   69 1  
    73   31   70 1  
    74   34   71 1  
    75   34   72 1  
    76   34   73 1  
    77   37   74 1  
    78   39   75 1  
    79   40   76 1  
    80   41   77 1  
    81   42   78 1  
    82   43   79 1  
    83   43   80 1  
@<TRIPOS>SUBSTRUCTURE
     1 9HI         1

