### 
### Created by X-TOOL on Mon Sep 10 21:13:00 2018
### 

@<TRIPOS>MOLECULE
3cde_ligand
   58    61     1     0     0
SMALL
GAST_HUCK


@<TRIPOS>ATOM
      1 C4         97.1910    8.4740   51.0050 C.2       1 N3H        -0.0723
      2 C5         96.3130    8.3060   61.2490 C.ar      1 N3H        -0.0257
      3 C6         98.2970    6.4460   50.7650 C.2       1 N3H        -0.0104
      4 C7         95.0690    9.0170   59.2540 C.ar      1 N3H        -0.0062
      5 C8         95.7890    9.4020   61.9650 C.ar      1 N3H         0.0567
      6 C10        96.8340    7.8460   52.1800 C.2       1 N3H         0.0529
      7 C13        95.9190    7.7600   54.6240 C.2       1 N3H         0.1544
      8 C15        94.4130    9.6170   55.1680 C.2       1 N3H         0.2377
      9 C17        90.6100    9.2730   52.2970 C.3       1 N3H        -0.0626
     10 C20        93.8660   11.2450   53.3870 C.3       1 N3H         0.0870
     11 C21        92.0860    9.6850   52.2840 C.3       1 N3H        -0.0439
     12 O31        95.7360    7.1320   63.9560 O.2       1 N3H        -0.1503
     13 S35        96.3040    8.3730   64.4700 S.o2      1 N3H         0.0562
     14 O30        95.9180    8.8660   65.7720 O.2       1 N3H        -0.1503
     15 C18        98.0750    8.2330   64.5250 C.3       1 N3H         0.0786
     16 N26        96.1250    9.6520   63.3340 N.am      1 N3H        -0.1958
     17 C3         94.9260   10.2980   61.3320 C.ar      1 N3H        -0.0527
     18 C9         95.9390    8.1300   59.9030 C.ar      1 N3H         0.1025
     19 S34        96.5580    6.7540   58.9890 S.o2      1 N3H         0.0892
     20 O28        97.9620    6.6410   59.3120 O.2       1 N3H        -0.1446
     21 O29        95.6570    5.6390   59.2310 O.2       1 N3H        -0.1446
     22 N24        96.3390    7.2290   57.3820 N.am      1 N3H        -0.1652
     23 C14        95.3970    8.2320   57.0430 C.2       1 N3H         0.1267
     24 N22        94.6760    8.8910   57.9120 N.2       1 N3H        -0.3475
     25 C2         94.5690   10.1110   59.9900 C.ar      1 N3H        -0.0733
     26 C12        95.2850    8.4810   55.5880 C.2       1 N3H         0.1325
     27 O32        96.4070    6.4850   54.8110 O.3       1 N3H        -0.3083
     28 O27        93.6570   10.1720   55.9750 O.2       1 N3H        -0.4091
     29 N25        94.5550   10.0610   53.8660 N.am      1 N3H        -0.1349
     30 C19        92.3820   10.9410   53.1360 C.3       1 N3H        -0.0188
     31 C16        92.5560    9.9070   50.8370 C.3       1 N3H        -0.0626
     32 N23        95.3460    9.4620   52.9410 N.2       1 N3H        -0.1319
     33 C11        96.0010    8.3910   53.2630 C.2       1 N3H         0.1481
     34 S33        97.5260    6.2840   52.2880 S.3       1 N3H        -0.0424
     35 C1         98.0280    7.6640   50.1840 C.2       1 N3H        -0.0798
     36 H1         96.8687    9.4784   50.7344 H         1 N3H         0.0393
     37 H2         96.9928    7.6101   61.7272 H         1 N3H         0.0486
     38 H3         98.9233    5.6785   50.3127 H         1 N3H         0.0700
     39 H4         90.4739    8.3771   51.6734 H         1 N3H         0.0232
     40 H5         89.9965   10.0942   51.8979 H         1 N3H         0.0232
     41 H6         90.3001    9.0519   53.3290 H         1 N3H         0.0232
     42 H7         94.3307   11.5787   52.4475 H         1 N3H         0.0664
     43 H8         93.9495   12.0418   54.1407 H         1 N3H         0.0664
     44 H9         92.6658    8.8526   52.7095 H         1 N3H         0.0296
     45 H10        98.4435    7.8595   63.5582 H         1 N3H         0.0487
     46 H11        98.3629    7.5322   65.3225 H         1 N3H         0.0487
     47 H12        98.5148    9.2206   64.7283 H         1 N3H         0.0487
     48 H13        96.2592   10.5952   63.6378 H         1 N3H         0.2137
     49 H14        94.5295   11.1438   61.8820 H         1 N3H         0.0467
     50 H15        96.8810    6.7969   56.6612 H         1 N3H         0.2309
     51 H16        93.8997   10.8166   59.5113 H         1 N3H         0.0498
     52 H17        97.0550    6.4939   55.5057 H         1 N3H         0.2632
     53 H18        91.9422   11.8084   52.6221 H         1 N3H         0.0298
     54 H19        91.8949   10.8080   54.1133 H         1 N3H         0.0298
     55 H20        92.3411    9.0086   50.2398 H         1 N3H         0.0232
     56 H21        93.6385   10.1023   50.8289 H         1 N3H         0.0232
     57 H22        92.0247   10.7688   50.4070 H         1 N3H         0.0232
     58 H23        98.4096    7.9724   49.2118 H         1 N3H         0.0410
@<TRIPOS>BOND
     1    6    1 2  
     2    1   35 1  
     3    2    5 ar 
     4   18    2 ar 
     5   34    3 1  
     6    3   35 2  
     7    4   18 ar 
     8   24    4 1  
     9    4   25 ar 
    10    5   16 1  
    11   17    5 ar 
    12   33    6 1  
    13    6   34 1  
    14   26    7 2  
    15    7   27 1  
    16    7   33 1  
    17   26    8 1  
    18    8   28 2  
    19    8   29 am 
    20   11    9 1  
    21   29   10 1  
    22   10   30 1  
    23   30   11 1  
    24   11   31 1  
    25   13   12 2  
    26   13   14 2  
    27   13   15 1  
    28   16   13 am 
    29   25   17 ar 
    30   19   18 1  
    31   19   20 2  
    32   19   21 2  
    33   22   19 am 
    34   23   22 1  
    35   23   24 2  
    36   23   26 1  
    37   29   32 1  
    38   32   33 2  
    39    1   36 1  
    40    2   37 1  
    41    3   38 1  
    42    9   39 1  
    43    9   40 1  
    44    9   41 1  
    45   10   42 1  
    46   10   43 1  
    47   11   44 1  
    48   15   45 1  
    49   15   46 1  
    50   15   47 1  
    51   16   48 1  
    52   17   49 1  
    53   22   50 1  
    54   25   51 1  
    55   27   52 1  
    56   30   53 1  
    57   30   54 1  
    58   31   55 1  
    59   31   56 1  
    60   31   57 1  
    61   35   58 1  
@<TRIPOS>SUBSTRUCTURE
     1 N3H         1

