### 
### Created by X-TOOL on Mon Sep 10 21:12:58 2018
### 

@<TRIPOS>MOLECULE
3ce0_ligand
   55    57     1     0     0
SMALL
GAST_HUCK


@<TRIPOS>ATOM
      1 CAA        21.7950   -7.7540   18.0360 C.3       1 P34        -0.0415
      2 N          22.0100   -6.3750   17.5780 N.4       1 P34         0.2477
      3 CAB        21.1840   -5.4460   18.3610 C.3       1 P34        -0.0415
      4 CA         21.6570   -6.2600   16.1570 C.3       1 P34         0.0574
      5 C          22.8490   -6.2570   15.1840 C.2       1 P34         0.2218
      6 O          23.9550   -6.4330   15.5810 O.2       1 P34        -0.3912
      7 NAM        22.5890   -6.1590   13.7510 N.am      1 P34        -0.2795
      8 CAP        21.2190   -5.9190   13.3130 C.3       1 P34         0.0428
      9 CAK        20.4030   -7.0530   12.6470 C.3       1 P34        -0.0217
     10 CAU        18.9420   -6.7820   12.2000 C.3       1 P34         0.0075
     11 CAT        18.1280   -7.8810   11.5410 C.3       1 P34        -0.0227
     12 CAI        18.7740   -9.2750   11.3230 C.3       1 P34        -0.0492
     13 CAF        17.9440  -10.3860   10.6560 C.3       1 P34        -0.0528
     14 CAE        16.5010  -10.1350   10.2080 C.3       1 P34        -0.0525
     15 CAH        15.8680   -8.7560   10.4270 C.3       1 P34        -0.0424
     16 CAS        16.7070   -7.6300   11.1030 C.3       1 P34         0.0314
     17 CAQ        16.0840   -6.2240   11.3330 C.3       1 P34         0.0837
     18 OAD        14.7630   -5.9630   10.9570 O.3       1 P34        -0.3528
     19 NAN        16.8910   -5.1350   11.9840 N.4       1 P34         0.2516
     20 CAR        18.3160   -5.3880   12.4260 C.3       1 P34        -0.0169
     21 CAJ        19.1340   -4.2500   13.0970 C.3       1 P34        -0.0073
     22 CAG        20.5870   -4.5150   13.5420 C.3       1 P34        -0.0248
     23 H1         22.0613   -7.8325   19.1004 H         1 P34         0.0778
     24 H2         22.4255   -8.4379   17.4489 H         1 P34         0.0778
     25 H3         20.7372   -8.0243   17.9018 H         1 P34         0.0778
     26 H4         22.9817   -6.1359   17.6988 H         1 P34         0.2047
     27 H5         21.3541   -4.4180   18.0086 H         1 P34         0.0778
     28 H6         21.4573   -5.5191   19.4240 H         1 P34         0.0778
     29 H7         20.1223   -5.7053   18.2366 H         1 P34         0.0778
     30 H8         21.1028   -5.3199   16.0190 H         1 P34         0.1063
     31 H9         21.0082   -7.1096   15.8977 H         1 P34         0.1063
     32 H10        23.3308   -6.2539   13.0872 H         1 P34         0.1856
     33 H11        21.5832   -5.5999   12.3253 H         1 P34         0.0556
     34 H12        20.3687   -7.8863   13.3642 H         1 P34         0.0292
     35 H13        20.9595   -7.3635   11.7504 H         1 P34         0.0292
     36 H14        18.5798   -7.1060   13.1868 H         1 P34         0.0359
     37 H15        18.4872   -7.5562   10.5534 H         1 P34         0.0311
     38 H16        19.0762   -9.6485   12.3125 H         1 P34         0.0268
     39 H17        19.6676   -9.1223   10.7001 H         1 P34         0.0268
     40 H18        17.9081  -11.2210   11.3711 H         1 P34         0.0265
     41 H19        18.5001  -10.6953    9.7588 H         1 P34         0.0265
     42 H20        15.8706  -10.8635   10.7388 H         1 P34         0.0265
     43 H21        16.4628  -10.3358    9.1272 H         1 P34         0.0265
     44 H22        14.9745   -8.9084   11.0502 H         1 P34         0.0271
     45 H23        15.5657   -8.3810    9.4381 H         1 P34         0.0271
     46 H24        16.3444   -7.9563   12.0889 H         1 P34         0.0384
     47 H25        16.4365   -5.9029   10.3417 H         1 P34         0.1186
     48 H26        14.3876   -6.7414   10.5624 H         1 P34         0.2154
     49 H27        16.3810   -4.8508   12.8057 H         1 P34         0.2044
     50 H28        16.9246   -4.3703   11.3281 H         1 P34         0.2044
     51 H29        17.9560   -5.7093   13.4145 H         1 P34         0.0854
     52 H30        18.5766   -3.9423   13.9940 H         1 P34         0.0321
     53 H31        19.1666   -3.4154   12.3812 H         1 P34         0.0321
     54 H32        21.2207   -3.7893   13.0112 H         1 P34         0.0289
     55 H33        20.6305   -4.3179   14.6233 H         1 P34         0.0289
@<TRIPOS>BOND
     1    1    2 1  
     2    2    3 1  
     3    2    4 1  
     4    4    5 1  
     5    5    6 2  
     6    5    7 am 
     7    7    8 1  
     8    8    9 1  
     9    8   22 1  
    10    9   10 1  
    11   10   11 1  
    12   10   20 1  
    13   11   12 1  
    14   11   16 1  
    15   12   13 1  
    16   13   14 1  
    17   14   15 1  
    18   15   16 1  
    19   16   17 1  
    20   17   18 1  
    21   17   19 1  
    22   19   20 1  
    23   20   21 1  
    24   21   22 1  
    25    1   23 1  
    26    1   24 1  
    27    1   25 1  
    28    2   26 1  
    29    3   27 1  
    30    3   28 1  
    31    3   29 1  
    32    4   30 1  
    33    4   31 1  
    34    7   32 1  
    35    8   33 1  
    36    9   34 1  
    37    9   35 1  
    38   10   36 1  
    39   11   37 1  
    40   12   38 1  
    41   12   39 1  
    42   13   40 1  
    43   13   41 1  
    44   14   42 1  
    45   14   43 1  
    46   15   44 1  
    47   15   45 1  
    48   16   46 1  
    49   17   47 1  
    50   18   48 1  
    51   19   49 1  
    52   19   50 1  
    53   20   51 1  
    54   21   52 1  
    55   21   53 1  
    56   22   54 1  
    57   22   55 1  
@<TRIPOS>SUBSTRUCTURE
     1 P34         1

