### 
### Created by X-TOOL on Mon Sep 10 21:12:58 2018
### 

@<TRIPOS>MOLECULE
3ce3_ligand
   50    54     1     0     0
SMALL
GAST_HUCK


@<TRIPOS>ATOM
      1 C13        20.1290   13.9630   56.6070 C.ar      1 1FN         0.1533
      2 C18        20.9900   19.2030   54.1050 C.2       1 1FN         0.1044
      3 C17        20.6500   17.8170   54.4190 C.2       1 1FN         0.2095
      4 C20        21.1940   20.2600   55.1650 C.2       1 1FN         0.2390
      5 C22        21.5690   21.9420   53.3500 C.2       1 1FN         0.0912
      6 C23        21.3710   20.9230   52.3980 C.2       1 1FN        -0.0275
      7 C24        21.0970   19.5900   52.7750 C.2       1 1FN        -0.0524
      8 C11        20.2820   16.3960   56.4620 C.ar      1 1FN         0.0536
      9 C12        20.3220   15.1680   55.8210 C.ar      1 1FN        -0.0142
     10 C34        20.6950   23.6230   55.6090 C.ar      1 1FN        -0.0279
     11 C27        19.2290   10.7480   61.0600 C.2       1 1FN        -0.0584
     12 C33        20.8330   24.6500   56.5850 C.ar      1 1FN        -0.0346
     13 C1         20.4990   11.3330   60.5740 C.ar      1 1FN         0.0342
     14 C2         21.5490   10.8710   61.3510 C.ar      1 1FN         0.1243
     15 N3         22.8200   11.2670   61.1320 N.ar      1 1FN        -0.3044
     16 C4         23.2390   12.1540   60.1260 C.ar      1 1FN        -0.0184
     17 C5         22.2400   12.6710   59.2710 C.ar      1 1FN        -0.0189
     18 C6         20.8620   12.2850   59.4790 C.ar      1 1FN         0.1224
     19 O7         19.7230   12.7650   58.6810 O.3       1 1FN        -0.2598
     20 C8         19.8800   14.0030   57.9990 C.ar      1 1FN         0.1386
     21 C9         19.8310   15.3190   58.6040 C.ar      1 1FN        -0.0415
     22 C10        20.0310   16.5250   57.8520 C.ar      1 1FN        -0.0517
     23 F14        20.1860   12.6880   56.0620 F         1 1FN        -0.1922
     24 N15        20.4830   17.5510   55.7970 N.am      1 1FN        -0.2456
     25 O19        20.5080   17.0310   53.4880 O.2       1 1FN        -0.3950
     26 N21        21.4960   21.6110   54.6410 N.am      1 1FN        -0.1580
     27 O25        21.1200   20.0560   56.4290 O.2       1 1FN        -0.4080
     28 C26        21.6840   22.5980   55.5700 C.ar      1 1FN         0.1104
     29 C28        19.6860    9.9130   62.1750 C.2       1 1FN         0.0219
     30 N29        21.1120   10.0280   62.3290 N.pl3     1 1FN        -0.2714
     31 C30        22.8050   22.5980   56.5220 C.ar      1 1FN        -0.0279
     32 C31        22.9820   23.6210   57.5240 C.ar      1 1FN        -0.0346
     33 C32        21.9480   24.6060   57.4700 C.ar      1 1FN         0.1224
     34 F35        22.1450   25.4620   58.3510 F         1 1FN        -0.1912
     35 H1         21.7749   22.9663   53.0428 H         1 1FN         0.1309
     36 H2         21.4310   21.1706   51.3392 H         1 1FN         0.0413
     37 H3         20.9651   18.8398   51.9967 H         1 1FN         0.0733
     38 H4         20.4942   15.1084   54.7524 H         1 1FN         0.0465
     39 H5         19.8618   23.6208   54.9156 H         1 1FN         0.0556
     40 H6         18.2174   10.8988   60.6862 H         1 1FN         0.0297
     41 H7         20.1041   25.4495   56.6533 H         1 1FN         0.0581
     42 H8         24.2812   12.4291   60.0111 H         1 1FN         0.0711
     43 H9         22.5037   13.3496   58.4679 H         1 1FN         0.0513
     44 H10        19.6354   15.3956   59.6675 H         1 1FN         0.0510
     45 H11        19.9917   17.4979   58.3285 H         1 1FN         0.0448
     46 H12        20.5206   18.3619   56.3810 H         1 1FN         0.2206
     47 H13        19.0397    9.2951   62.7967 H         1 1FN         0.0913
     48 H14        21.6917    9.5624   63.0418 H         1 1FN         0.2290
     49 H15        23.5302   21.7941   56.4686 H         1 1FN         0.0556
     50 H16        23.8016   23.6401   58.2332 H         1 1FN         0.0581
@<TRIPOS>BOND
     1    9    1 ar 
     2    1   20 ar 
     3    1   23 1  
     4    2    3 1  
     5    4    2 1  
     6    2    7 2  
     7    3   24 am 
     8    3   25 2  
     9   26    4 am 
    10    4   27 2  
    11    5    6 2  
    12   26    5 1  
    13    6    7 1  
    14    8    9 ar 
    15    8   22 ar 
    16   24    8 1  
    17   10   12 ar 
    18   28   10 ar 
    19   13   11 1  
    20   11   29 2  
    21   12   33 ar 
    22   13   14 ar 
    23   18   13 ar 
    24   14   15 ar 
    25   14   30 1  
    26   16   15 ar 
    27   17   16 ar 
    28   18   17 ar 
    29   19   18 1  
    30   20   19 1  
    31   21   20 ar 
    32   22   21 ar 
    33   26   28 1  
    34   28   31 ar 
    35   29   30 1  
    36   31   32 ar 
    37   32   33 ar 
    38   33   34 1  
    39    5   35 1  
    40    6   36 1  
    41    7   37 1  
    42    9   38 1  
    43   10   39 1  
    44   11   40 1  
    45   12   41 1  
    46   16   42 1  
    47   17   43 1  
    48   21   44 1  
    49   22   45 1  
    50   24   46 1  
    51   29   47 1  
    52   30   48 1  
    53   31   49 1  
    54   32   50 1  
@<TRIPOS>SUBSTRUCTURE
     1 1FN         1

