### 
### Created by X-TOOL on Mon Sep 10 21:12:59 2018
### 

@<TRIPOS>MOLECULE
3cen_ligand
   50    53     1     0     0
SMALL
GAST_HUCK


@<TRIPOS>ATOM
      1 C1          2.6140   44.1490   64.6190 C.ar      1 FXA        -0.0753
      2 C2          3.8800   44.8420   64.8280 C.ar      1 FXA        -0.0482
      3 C3          5.0580   44.3360   64.1280 C.ar      1 FXA         0.1347
      4 C10         6.3900   43.0150   61.2230 C.2       1 FXA         0.2246
      5 C11         7.0220   41.8910   60.4320 C.ar      1 FXA         0.0451
      6 C13         7.8420   42.1940   59.2370 C.ar      1 FXA        -0.0489
      7 C14         8.3920   41.0990   58.4150 C.ar      1 FXA        -0.0218
      8 C15         8.1420   39.6780   58.7570 C.ar      1 FXA         0.1155
      9 C16         7.3630   39.3820   59.9810 C.ar      1 FXA        -0.0218
     10 N18         8.5660   38.6400   57.8430 N.am      1 FXA        -0.1601
     11 C19         7.7130   38.3430   56.6840 C.2       1 FXA         0.2209
     12 C20         8.1600   37.3770   55.6250 C.2       1 FXA        -0.0083
     13 C21         9.7910   38.0050   58.0150 C.2       1 FXA         0.0846
     14 C24        10.2010   37.0630   57.0000 C.2       1 FXA        -0.0375
     15 C27        11.5290   44.8570   64.6300 C.ar      1 FXA        -0.0447
     16 C4          4.9780   43.1950   63.2350 C.ar      1 FXA         0.0928
     17 C5          3.7230   42.4800   63.0640 C.ar      1 FXA        -0.0393
     18 C6          2.5430   42.9620   63.7660 C.ar      1 FXA        -0.0754
     19 S7          6.6410   45.1360   64.3020 S.o2      1 FXA         0.0886
     20 N8          7.8300   44.1030   64.8380 N.am      1 FXA        -0.1709
     21 N9          6.0740   42.7220   62.5230 N.am      1 FXA        -0.2328
     22 O12         6.1750   44.1220   60.7230 O.2       1 FXA        -0.3781
     23 C17         6.8120   40.4790   60.8030 C.ar      1 FXA        -0.0489
     24 O22         6.6080   38.8870   56.5780 O.2       1 FXA        -0.4116
     25 C23         9.4310   36.7480   55.8150 C.2       1 FXA        -0.0753
     26 C25         9.1980   44.2460   65.1290 C.ar      1 FXA         0.1340
     27 C26        10.1410   44.9200   64.2320 C.ar      1 FXA        -0.0170
     28 C28        11.9670   44.1310   65.8220 C.ar      1 FXA         0.0487
     29 C29        10.9850   43.4910   66.6910 C.ar      1 FXA         0.0042
     30 N30         9.6490   43.6010   66.3050 N.ar      1 FXA        -0.2891
     31 CL31       13.7510   43.8780   66.2190 Cl        1 FXA        -0.0770
     32 O32         6.4460   46.1540   65.3040 O.2       1 FXA        -0.1461
     33 O33         7.0340   45.5490   62.9830 O.2       1 FXA        -0.1461
     34 H1          1.7155   44.5172   65.1009 H         1 FXA         0.0488
     35 H2          3.9447   45.7045   65.4815 H         1 FXA         0.0597
     36 H3          8.0391   43.2246   58.9648 H         1 FXA         0.0642
     37 H4          8.9908   41.3382   57.5436 H         1 FXA         0.0572
     38 H5          7.1957   38.3525   60.2762 H         1 FXA         0.0572
     39 H6          7.5447   37.1647   54.7519 H         1 FXA         0.0415
     40 H7         10.4173   38.2102   58.8819 H         1 FXA         0.1242
     41 H8         11.1546   36.5548   57.1352 H         1 FXA         0.0386
     42 H9         12.2708   45.3651   64.0245 H         1 FXA         0.0691
     43 H10         3.6678   41.6053   62.4262 H         1 FXA         0.0503
     44 H11         1.6014   42.4363   63.6559 H         1 FXA         0.0577
     45 H12         7.4970   43.1718   64.9864 H         1 FXA         0.2230
     46 H13         6.6941   42.1059   63.0087 H         1 FXA         0.2250
     47 H14         6.2432   40.2419   61.6948 H         1 FXA         0.0642
     48 H15         9.8137   36.0425   55.0790 H         1 FXA         0.0646
     49 H16         9.8194   45.4308   63.3316 H         1 FXA         0.0578
     50 H17        11.2780   42.9585   67.5886 H         1 FXA         0.0775
@<TRIPOS>BOND
     1    2    1 ar 
     2    1   18 ar 
     3    3    2 ar 
     4    3   16 ar 
     5   19    3 1  
     6    4    5 1  
     7   21    4 am 
     8    4   22 2  
     9    5    6 ar 
    10    5   23 ar 
    11    6    7 ar 
    12    7    8 ar 
    13    9    8 ar 
    14    8   10 1  
    15   23    9 ar 
    16   10   11 am 
    17   10   13 1  
    18   11   12 1  
    19   11   24 2  
    20   12   25 2  
    21   13   14 2  
    22   14   25 1  
    23   27   15 ar 
    24   15   28 ar 
    25   16   17 ar 
    26   16   21 1  
    27   17   18 ar 
    28   20   19 am 
    29   19   32 2  
    30   19   33 2  
    31   26   20 1  
    32   26   27 ar 
    33   26   30 ar 
    34   28   29 ar 
    35   28   31 1  
    36   29   30 ar 
    37    1   34 1  
    38    2   35 1  
    39    6   36 1  
    40    7   37 1  
    41    9   38 1  
    42   12   39 1  
    43   13   40 1  
    44   14   41 1  
    45   15   42 1  
    46   17   43 1  
    47   18   44 1  
    48   20   45 1  
    49   21   46 1  
    50   23   47 1  
    51   25   48 1  
    52   27   49 1  
    53   29   50 1  
@<TRIPOS>SUBSTRUCTURE
     1 FXA         1

