### 
### Created by X-TOOL on Mon Sep 10 21:12:57 2018
### 

@<TRIPOS>MOLECULE
3cf8_ligand
   32    34     1     0     0
SMALL
GAST_HUCK


@<TRIPOS>ATOM
      1 C1         11.9150   18.6260  -12.2090 C.ar      1 QUE        -0.0094
      2 C2         12.2600   17.5760  -11.3630 C.ar      1 QUE         0.0929
      3 C3         13.4690   16.8820  -11.5480 C.ar      1 QUE         0.0812
      4 C4         14.3410   17.2470  -12.5850 C.ar      1 QUE         0.1206
      5 C5         13.9840   18.3070  -13.4220 C.ar      1 QUE        -0.0055
      6 C6         12.7780   18.9930  -13.2360 C.ar      1 QUE         0.0766
      7 C9         13.8270   15.8340  -10.6990 C.2       1 QUE         0.1453
      8 C10        15.0340   15.1760  -10.8970 C.2       1 QUE         0.1600
      9 C11        15.8720   15.5550  -11.9550 C.2       1 QUE         0.1531
     10 C14        17.0790   14.8720  -12.0900 C.ar      1 QUE        -0.0055
     11 C15        17.1210   13.5200  -12.4430 C.ar      1 QUE        -0.0720
     12 C16        18.3550   12.8710  -12.5400 C.ar      1 QUE        -0.0408
     13 C17        19.5420   13.5680  -12.2800 C.ar      1 QUE         0.1166
     14 C18        19.5040   14.9130  -11.9180 C.ar      1 QUE         0.1158
     15 C19        18.2670   15.5630  -11.8190 C.ar      1 QUE        -0.0332
     16 O12        15.5440   16.5960  -12.8100 O.3       1 QUE        -0.2591
     17 O13        13.1060   15.4930   -9.7600 O.2       1 QUE        -0.4153
     18 O23        20.6650   15.5810  -11.6680 O.3       1 QUE        -0.3371
     19 O24        20.7420   12.9420  -12.3770 O.3       1 QUE        -0.3363
     20 O27        15.3890   14.1490  -10.0570 O.3       1 QUE        -0.3400
     21 O29        12.4330   20.0320  -14.0540 O.3       1 QUE        -0.3353
     22 O30        11.3970   17.2500  -10.3580 O.3       1 QUE        -0.3327
     23 H1         10.9791   19.1546  -12.0682 H         1 QUE         0.0396
     24 H2         14.6492   18.6020  -14.2255 H         1 QUE         0.0393
     25 H3         16.2027   12.9787  -12.6401 H         1 QUE         0.0495
     26 H4         18.3937   11.8239  -12.8176 H         1 QUE         0.0514
     27 H5         18.2289   16.6073  -11.5309 H         1 QUE         0.0495
     28 H6         21.4000   14.9899  -11.7818 H         1 QUE         0.2442
     29 H7         20.6060   12.0366  -12.6305 H         1 QUE         0.2450
     30 H8         14.7111   14.0280   -9.4025 H         1 QUE         0.2421
     31 H9         11.5898   20.3781  -13.7860 H         1 QUE         0.2494
     32 H10        11.8350   17.3503   -9.5210 H         1 QUE         0.2504
@<TRIPOS>BOND
     1    1    2 ar 
     2    1    6 ar 
     3    2    3 ar 
     4    2   22 1  
     5    3    4 ar 
     6    3    7 1  
     7    4    5 ar 
     8    4   16 1  
     9    5    6 ar 
    10    6   21 1  
    11    7    8 1  
    12    7   17 2  
    13    8    9 2  
    14    8   20 1  
    15    9   10 1  
    16    9   16 1  
    17   10   11 ar 
    18   10   15 ar 
    19   11   12 ar 
    20   12   13 ar 
    21   13   14 ar 
    22   13   19 1  
    23   14   15 ar 
    24   14   18 1  
    25    1   23 1  
    26    5   24 1  
    27   11   25 1  
    28   12   26 1  
    29   15   27 1  
    30   18   28 1  
    31   19   29 1  
    32   20   30 1  
    33   21   31 1  
    34   22   32 1  
@<TRIPOS>SUBSTRUCTURE
     1 QUE         1

