### 
### Created by X-TOOL on Mon Sep 10 21:12:57 2018
### 

@<TRIPOS>MOLECULE
3cf9_ligand
   30    32     1     0     0
SMALL
GAST_HUCK


@<TRIPOS>ATOM
      1 CAG        18.8910   16.4080  -11.9940 C.ar      1 AGI        -0.0519
      2 CAE        20.2660   16.2300  -12.0070 C.ar      1 AGI        -0.0265
      3 CAM        20.7720   14.9370  -11.9840 C.ar      1 AGI         0.0943
      4 OAB        22.1160   14.7890  -11.9920 O.3       1 AGI        -0.3288
      5 CAF        19.9240   13.8240  -11.9580 C.ar      1 AGI        -0.0265
      6 CAH        18.5390   14.0070  -11.9480 C.ar      1 AGI        -0.0519
      7 CAP        18.0290   15.3090  -11.9930 C.ar      1 AGI         0.0209
      8 CAQ        16.6790   15.6290  -11.9380 C.2       1 AGI         0.1357
      9 OAL        16.1770   16.6270  -12.7550 O.3       1 AGI        -0.2431
     10 CAJ        15.9010   14.9790  -10.9750 C.2       1 AGI         0.0025
     11 CAR        14.5600   15.3120  -10.8450 C.2       1 AGI         0.0968
     12 OAA        13.8680   14.7270  -10.0060 O.2       1 AGI        -0.4276
     13 CAT        14.0460   16.3460  -11.6310 C.ar      1 AGI         0.0767
     14 CAS        14.8690   17.0080  -12.5540 C.ar      1 AGI         0.1290
     15 CAK        14.3460   18.0750  -13.2960 C.ar      1 AGI        -0.0033
     16 CAN        13.0260   18.5010  -13.1030 C.ar      1 AGI         0.0775
     17 OAC        12.5260   19.5440  -13.8320 O.3       1 AGI        -0.3351
     18 CAI        12.2180   17.8620  -12.1640 C.ar      1 AGI        -0.0086
     19 CAO        12.7460   16.8050  -11.4200 C.ar      1 AGI         0.0935
     20 OAD        11.9810   16.1860  -10.4890 O.3       1 AGI        -0.3326
     21 H1         18.4805   17.4112  -11.9845 H         1 AGI         0.0640
     22 H2         20.9333   17.0839  -12.0346 H         1 AGI         0.0561
     23 H3         22.4722   15.1834  -12.7795 H         1 AGI         0.2508
     24 H4         20.3404   12.8232  -11.9457 H         1 AGI         0.0561
     25 H5         17.8707   13.1545  -11.9061 H         1 AGI         0.0640
     26 H6         16.3432   14.2186  -10.3330 H         1 AGI         0.0374
     27 H7         14.9697   18.5762  -14.0273 H         1 AGI         0.0401
     28 H8         11.6241   19.7020  -13.5791 H         1 AGI         0.2494
     29 H9         11.1932   18.1815  -12.0133 H         1 AGI         0.0403
     30 H10        12.4847   15.4948  -10.0755 H         1 AGI         0.2503
@<TRIPOS>BOND
     1    1    2 ar 
     2    1    7 ar 
     3    2    3 ar 
     4    3    4 1  
     5    3    5 ar 
     6    5    6 ar 
     7    6    7 ar 
     8    7    8 1  
     9    8    9 1  
    10    8   10 2  
    11    9   14 1  
    12   10   11 1  
    13   11   12 2  
    14   11   13 1  
    15   13   14 ar 
    16   13   19 ar 
    17   14   15 ar 
    18   15   16 ar 
    19   16   17 1  
    20   16   18 ar 
    21   18   19 ar 
    22   19   20 1  
    23    1   21 1  
    24    2   22 1  
    25    4   23 1  
    26    5   24 1  
    27    6   25 1  
    28   10   26 1  
    29   15   27 1  
    30   17   28 1  
    31   18   29 1  
    32   20   30 1  
@<TRIPOS>SUBSTRUCTURE
     1 AGI         1

