### 
### Created by X-TOOL on Mon Sep 10 21:13:01 2018
### 

@<TRIPOS>MOLECULE
3cfn_ligand
   33    35     1     0     0
SMALL
GAST_HUCK


@<TRIPOS>ATOM
      1 C1        -24.2300   -0.6460   -4.1920 C.ar      1 2AN         0.0730
      2 C2        -24.2910   -1.8480   -4.9040 C.ar      1 2AN        -0.0412
      3 C3        -25.3210   -2.7580   -4.7090 C.ar      1 2AN        -0.0768
      4 C4        -26.3120   -2.4640   -3.7810 C.ar      1 2AN        -0.0703
      5 C5        -26.2710   -1.2750   -3.0600 C.ar      1 2AN        -0.0263
      6 C6        -27.2990   -1.0470   -2.1480 C.ar      1 2AN        -0.0593
      7 C7        -27.3170    0.1200   -1.3970 C.ar      1 2AN        -0.0629
      8 C8        -26.3000    1.0510   -1.5650 C.ar      1 2AN        -0.0420
      9 N         -23.1900    0.1950   -4.4310 N.pl3     1 2AN        -0.2710
     10 S         -24.1580    2.0180   -2.5410 S.o2      1 2AN        -0.1624
     11 C9        -25.2570    0.8450   -2.4730 C.ar      1 2AN         0.0589
     12 C10       -25.2310   -0.3410   -3.2450 C.ar      1 2AN         0.0329
     13 C11       -22.5030    0.2340   -5.6030 C.ar      1 2AN         0.0604
     14 C12       -21.4820   -0.6870   -5.8620 C.ar      1 2AN        -0.0391
     15 C13       -20.7760   -0.6430   -7.0640 C.ar      1 2AN        -0.0719
     16 C14       -21.0830    0.3350   -8.0110 C.ar      1 2AN        -0.0738
     17 C15       -22.0980    1.2590   -7.7550 C.ar      1 2AN        -0.0719
     18 C16       -22.8050    1.2110   -6.5530 C.ar      1 2AN        -0.0391
     19 O1        -24.3570    2.9120   -1.3860 O.co2     1 2AN        -0.4795
     20 O2        -24.3060    2.7870   -3.7970 O.co2     1 2AN        -0.4795
     21 O3        -22.7940    1.4610   -2.4570 O.co2     1 2AN        -0.4795
     22 H1        -23.5149   -2.0748   -5.6260 H         1 2AN         0.0480
     23 H2        -25.3515   -3.6837   -5.2722 H         1 2AN         0.0576
     24 H3        -27.1222   -3.1654   -3.6177 H         1 2AN         0.0477
     25 H4        -28.0860   -1.7821   -2.0247 H         1 2AN         0.0595
     26 H5        -28.1157    0.3028   -0.6873 H         1 2AN         0.0613
     27 H6        -26.3154    1.9613   -0.9766 H         1 2AN         0.0604
     28 H7        -22.9057    0.8405   -3.6804 H         1 2AN         0.2117
     29 H8        -21.2377   -1.4409   -5.1224 H         1 2AN         0.0532
     30 H9        -19.9923   -1.3653   -7.2618 H         1 2AN         0.0586
     31 H10       -20.5339    0.3773   -8.9447 H         1 2AN         0.0516
     32 H11       -22.3376    2.0163   -8.4927 H         1 2AN         0.0586
     33 H12       -23.5894    1.9330   -6.3568 H         1 2AN         0.0532
@<TRIPOS>BOND
     1    1    2 ar 
     2    1    9 1  
     3    1   12 ar 
     4    2    3 ar 
     5    3    4 ar 
     6    4    5 ar 
     7    5    6 ar 
     8    5   12 ar 
     9    6    7 ar 
    10    7    8 ar 
    11    8   11 ar 
    12    9   13 1  
    13   11   10 1  
    14   10   19 ar 
    15   10   20 ar 
    16   10   21 ar 
    17   11   12 ar 
    18   13   14 ar 
    19   13   18 ar 
    20   14   15 ar 
    21   15   16 ar 
    22   16   17 ar 
    23   17   18 ar 
    24    2   22 1  
    25    3   23 1  
    26    4   24 1  
    27    6   25 1  
    28    7   26 1  
    29    8   27 1  
    30    9   28 1  
    31   14   29 1  
    32   15   30 1  
    33   16   31 1  
    34   17   32 1  
    35   18   33 1  
@<TRIPOS>SUBSTRUCTURE
     1 2AN         1

