### 
### Created by X-TOOL on Mon Sep 10 21:13:00 2018
### 

@<TRIPOS>MOLECULE
3cft_ligand
   23    24     1     0     0
SMALL
GAST_HUCK


@<TRIPOS>ATOM
      1 C1        -22.4990    1.7320  -27.0500 C.ar      1 5NS        -0.0429
      2 C2        -22.9310    2.1000  -25.7760 C.ar      1 5NS        -0.0622
      3 C3        -22.5900    1.3100  -24.6810 C.ar      1 5NS        -0.0544
      4 C4        -21.8130    0.1540  -24.8510 C.ar      1 5NS         0.0090
      5 C5        -21.3740   -0.2190  -26.1400 C.ar      1 5NS        -0.0074
      6 C6        -21.7170    0.5840  -27.2480 C.ar      1 5NS         0.0533
      7 C9        -20.2600   -2.1530  -25.1700 C.ar      1 5NS        -0.0784
      8 C10       -20.5960   -1.3790  -26.2800 C.ar      1 5NS        -0.0698
      9 O14       -20.7370    1.4800  -29.3870 O.co2     1 5NS        -0.4801
     10 S11       -21.2660    0.2440  -28.7650 S.o2      1 5NS        -0.1641
     11 O12       -22.4480   -0.2750  -29.5040 O.co2     1 5NS        -0.4801
     12 O13       -20.2070   -0.7970  -28.8280 O.co2     1 5NS        -0.4801
     13 C8        -20.7040   -1.7800  -23.9010 C.ar      1 5NS        -0.0461
     14 C7        -21.4790   -0.6300  -23.7340 C.ar      1 5NS         0.0492
     15 N15       -21.8940   -0.3020  -22.4750 N.pl3     1 5NS        -0.3324
     16 H1        -22.7722    2.3437  -27.9022 H         1 5NS         0.0631
     17 H2        -23.5279    2.9945  -25.6391 H         1 5NS         0.0585
     18 H3        -22.9274    1.5903  -23.6897 H         1 5NS         0.0631
     19 H4        -19.6544   -3.0436  -25.2928 H         1 5NS         0.0573
     20 H5        -20.2520   -1.6769  -27.2639 H         1 5NS         0.0468
     21 H6        -20.4461   -2.3860  -23.0400 H         1 5NS         0.0463
     22 H7        -22.4665    0.5409  -22.3247 H         1 5NS         0.1757
     23 H8        -21.6345   -0.8975  -21.6757 H         1 5NS         0.1757
@<TRIPOS>BOND
     1    1    2 ar 
     2    1    6 ar 
     3    2    3 ar 
     4    3    4 ar 
     5    4    5 ar 
     6    4   14 ar 
     7    5    6 ar 
     8    5    8 ar 
     9    6   10 1  
    10    8    7 ar 
    11    7   13 ar 
    12   10    9 ar 
    13   10   11 ar 
    14   10   12 ar 
    15   13   14 ar 
    16   14   15 1  
    17    1   16 1  
    18    2   17 1  
    19    3   18 1  
    20    7   19 1  
    21    8   20 1  
    22   13   21 1  
    23   15   22 1  
    24   15   23 1  
@<TRIPOS>SUBSTRUCTURE
     1 5NS         1

