### 
### Created by X-TOOL on Mon Sep 10 21:12:59 2018
### 

@<TRIPOS>MOLECULE
3cgf_ligand
   44    47     1     0     0
SMALL
GAST_HUCK


@<TRIPOS>ATOM
      1 C01        23.3980   14.4120   31.4350 C.3       1 JNF         0.0225
      2 N02        23.4600   12.9400   31.4580 N.pl3     1 JNF        -0.2776
      3 C03        22.2030   12.3420   31.9200 C.ar      1 JNF         0.1796
      4 N04        22.0200   10.9450   31.9390 N.ar      1 JNF        -0.2642
      5 C05        20.8100   10.4410   32.4230 C.ar      1 JNF         0.0636
      6 C06        20.6370    8.9730   32.4020 C.2       1 JNF         0.1193
      7 N07        21.5540    8.0260   31.9580 N.pl3     1 JNF        -0.1916
      8 C08        20.9470    6.7500   32.1400 C.2       1 JNF         0.1448
      9 C09        21.7120    5.5940   31.7420 C.2       1 JNF        -0.0110
     10 C10        22.9680    5.7590   31.2180 C.2       1 JNF        -0.0554
     11 C11        23.5680    7.0920   31.0400 C.2       1 JNF        -0.0201
     12 C12        22.8540    8.1820   31.4130 C.2       1 JNF         0.0871
     13 N13        19.7500    6.8430   32.6510 N.2       1 JNF        -0.3266
     14 C14        19.5460    8.1980   32.8210 C.2       1 JNF        -0.0067
     15 C15        19.7790   11.2500   32.8930 C.ar      1 JNF        -0.0264
     16 C16        20.0370   12.6230   32.8490 C.ar      1 JNF         0.0028
     17 N17        21.2060   13.1870   32.3760 N.ar      1 JNF        -0.2672
     18 C18        24.0810   12.3550   30.2260 C.3       1 JNF         0.0443
     19 C19        23.1530   12.1860   28.9940 C.3       1 JNF        -0.0294
     20 C20        23.9100   11.5850   27.7900 C.3       1 JNF        -0.0509
     21 C21        24.5210   10.2090   28.1200 C.3       1 JNF        -0.0529
     22 C22        25.4190   10.2600   29.3640 C.3       1 JNF        -0.0509
     23 C23        24.7430   10.9790   30.5650 C.3       1 JNF        -0.0294
     24 H1         22.9336   14.7740   32.3641 H         1 JNF         0.0490
     25 H2         22.7983   14.7403   30.5733 H         1 JNF         0.0490
     26 H3         24.4158   14.8206   31.3505 H         1 JNF         0.0490
     27 H4         21.2940    4.5950   31.8572 H         1 JNF         0.0602
     28 H5         23.5385    4.8789   30.9249 H         1 JNF         0.0675
     29 H6         24.5657    7.1998   30.6170 H         1 JNF         0.0574
     30 H7         23.2786    9.1777   31.2942 H         1 JNF         0.1245
     31 H8         18.6328    8.6209   33.2372 H         1 JNF         0.0629
     32 H9         18.8451   10.8450   33.2656 H         1 JNF         0.0606
     33 H10        19.2654   13.2925   33.2116 H         1 JNF         0.0855
     34 H11        24.8800   13.0476   29.9227 H         1 JNF         0.0562
     35 H12        22.7546   13.1710   28.7094 H         1 JNF         0.0288
     36 H13        22.3215   11.5177   29.2624 H         1 JNF         0.0288
     37 H14        24.7185   12.2721   27.5000 H         1 JNF         0.0266
     38 H15        23.2081   11.4698   26.9509 H         1 JNF         0.0266
     39 H16        25.1219    9.8727   27.2622 H         1 JNF         0.0265
     40 H17        23.7058    9.4927   28.3000 H         1 JNF         0.0265
     41 H18        26.3441   10.7973   29.1081 H         1 JNF         0.0266
     42 H19        25.6639    9.2302   29.6633 H         1 JNF         0.0266
     43 H20        23.9629   10.3146   30.9649 H         1 JNF         0.0288
     44 H21        25.5094   11.1499   31.3353 H         1 JNF         0.0288
@<TRIPOS>BOND
     1    1    2 1  
     2    2    3 1  
     3    2   18 1  
     4    3    4 ar 
     5    3   17 ar 
     6    4    5 ar 
     7    5    6 1  
     8    5   15 ar 
     9    6    7 1  
    10    6   14 2  
    11    7    8 1  
    12    7   12 1  
    13    8    9 1  
    14    8   13 2  
    15    9   10 2  
    16   10   11 1  
    17   11   12 2  
    18   13   14 1  
    19   15   16 ar 
    20   16   17 ar 
    21   18   19 1  
    22   18   23 1  
    23   19   20 1  
    24   20   21 1  
    25   21   22 1  
    26   22   23 1  
    27    1   24 1  
    28    1   25 1  
    29    1   26 1  
    30    9   27 1  
    31   10   28 1  
    32   11   29 1  
    33   12   30 1  
    34   14   31 1  
    35   15   32 1  
    36   16   33 1  
    37   18   34 1  
    38   19   35 1  
    39   19   36 1  
    40   20   37 1  
    41   20   38 1  
    42   21   39 1  
    43   21   40 1  
    44   22   41 1  
    45   22   42 1  
    46   23   43 1  
    47   23   44 1  
@<TRIPOS>SUBSTRUCTURE
     1 JNF         1

