### 
### Created by X-TOOL on Mon Sep 10 21:12:59 2018
### 

@<TRIPOS>MOLECULE
3cgo_ligand
   51    54     1     0     0
SMALL
GAST_HUCK


@<TRIPOS>ATOM
      1 C01        26.8050    2.4860   28.4980 C.3       1 JNO         0.0197
      2 N02        26.3680    3.8360   28.2460 N.am      1 JNO        -0.2857
      3 C03        27.2640    4.9060   28.2510 C.2       1 JNO         0.2213
      4 O04        28.4160    4.8490   27.8170 O.2       1 JNO        -0.3912
      5 C05        26.6880    6.1780   28.8490 C.3       1 JNO         0.0579
      6 N06        25.4020    5.9070   29.5080 N.4       1 JNO         0.2521
      7 C07        24.4600    7.0470   29.3380 C.3       1 JNO        -0.0279
      8 C08        23.1240    6.7750   30.0410 C.3       1 JNO         0.0110
      9 C09        23.3850    6.4960   31.5390 C.3       1 JNO         0.0513
     10 C10        24.3180    5.2860   31.6750 C.3       1 JNO         0.0110
     11 C11        25.6410    5.5730   30.9500 C.3       1 JNO        -0.0279
     12 N12        22.1230    6.2460   32.2130 N.pl3     1 JNO        -0.2879
     13 C13        21.2250    7.2460   32.5710 C.ar      1 JNO         0.1773
     14 N14        21.6350    8.5360   32.4200 N.ar      1 JNO        -0.2644
     15 C15        20.7520    9.5410   32.7690 C.ar      1 JNO         0.0636
     16 C16        19.4600    9.2760   33.2630 C.ar      1 JNO        -0.0264
     17 C17        19.1470    7.9360   33.3730 C.ar      1 JNO         0.0028
     18 N18        19.9930    6.9200   33.0360 N.ar      1 JNO        -0.2674
     19 C19        21.2270   10.9320   32.5670 C.2       1 JNO         0.1193
     20 N20        22.4530   11.3450   32.0500 N.pl3     1 JNO        -0.1916
     21 C21        23.5780   10.6090   31.5750 C.2       1 JNO         0.0871
     22 C22        24.6710   11.2680   31.1050 C.2       1 JNO        -0.0201
     23 C23        24.6650   12.7340   31.1030 C.2       1 JNO        -0.0554
     24 C24        23.5940   13.4550   31.5570 C.2       1 JNO        -0.0110
     25 C25        22.4320   12.7670   32.0570 C.2       1 JNO         0.1448
     26 N26        21.3170   13.2350   32.5320 N.2       1 JNO        -0.3266
     27 C27        20.5760   12.1270   32.8450 C.2       1 JNO        -0.0067
     28 H1         25.9421    1.8057   28.4465 H         1 JNO         0.0484
     29 H2         27.2584    2.4281   29.4985 H         1 JNO         0.0484
     30 H3         27.5479    2.1938   27.7413 H         1 JNO         0.0484
     31 H4         25.4004    4.0101   28.0633 H         1 JNO         0.1849
     32 H5         26.5347    6.9162   28.0481 H         1 JNO         0.1063
     33 H6         27.3949    6.5813   29.5890 H         1 JNO         0.1063
     34 H7         24.9869    5.1009   29.0677 H         1 JNO         0.2053
     35 H8         24.2752    7.2023   28.2648 H         1 JNO         0.0815
     36 H9         24.9127    7.9531   29.7670 H         1 JNO         0.0815
     37 H10        22.6387    5.9005   29.5831 H         1 JNO         0.0340
     38 H11        22.4692    7.6530   29.9390 H         1 JNO         0.0340
     39 H12        23.8667    7.3742   31.9936 H         1 JNO         0.0563
     40 H13        23.8394    4.4023   31.2277 H         1 JNO         0.0340
     41 H14        24.5177    5.0953   32.7398 H         1 JNO         0.0340
     42 H15        26.1416    6.4224   31.4378 H         1 JNO         0.0815
     43 H16        26.2850    4.6834   31.0112 H         1 JNO         0.0815
     44 H17        21.8788    5.2712   32.4391 H         1 JNO         0.1863
     45 H18        18.7657   10.0626   33.5355 H         1 JNO         0.0606
     46 H19        18.1656    7.6740   33.7516 H         1 JNO         0.0855
     47 H20        23.5621    9.5202   31.5885 H         1 JNO         0.1245
     48 H21        25.5349   10.7167   30.7368 H         1 JNO         0.0574
     49 H22        25.5390   13.2652   30.7290 H         1 JNO         0.0675
     50 H23        23.6204   14.5436   31.5402 H         1 JNO         0.0602
     51 H24        19.5747   12.1777   33.2701 H         1 JNO         0.0629
@<TRIPOS>BOND
     1    1    2 1  
     2    2    3 am 
     3    3    4 2  
     4    3    5 1  
     5    5    6 1  
     6    6    7 1  
     7    6   11 1  
     8    7    8 1  
     9    8    9 1  
    10    9   10 1  
    11    9   12 1  
    12   10   11 1  
    13   12   13 1  
    14   13   14 ar 
    15   13   18 ar 
    16   14   15 ar 
    17   15   16 ar 
    18   15   19 1  
    19   16   17 ar 
    20   17   18 ar 
    21   19   20 1  
    22   19   27 2  
    23   20   21 1  
    24   20   25 1  
    25   21   22 2  
    26   22   23 1  
    27   23   24 2  
    28   24   25 1  
    29   25   26 2  
    30   26   27 1  
    31    1   28 1  
    32    1   29 1  
    33    1   30 1  
    34    2   31 1  
    35    5   32 1  
    36    5   33 1  
    37    6   34 1  
    38    7   35 1  
    39    7   36 1  
    40    8   37 1  
    41    8   38 1  
    42    9   39 1  
    43   10   40 1  
    44   10   41 1  
    45   11   42 1  
    46   11   43 1  
    47   12   44 1  
    48   16   45 1  
    49   17   46 1  
    50   21   47 1  
    51   22   48 1  
    52   23   49 1  
    53   24   50 1  
    54   27   51 1  
@<TRIPOS>SUBSTRUCTURE
     1 JNO         1

