### 
### Created by X-TOOL on Mon Sep 10 21:12:59 2018
### 

@<TRIPOS>MOLECULE
3cgy_ligand
   42    44     1     0     0
SMALL
GAST_HUCK


@<TRIPOS>ATOM
      1 C1         61.5240    6.3360   21.5630 C.2       1 RDC         0.2451
      2 C2         62.8820    6.9090   21.1560 C.ar      1 RDC         0.0834
      3 C3         63.4600    6.5500   19.8740 C.ar      1 RDC         0.0971
      4 C4         64.6940    7.0720   19.5010 C.ar      1 RDC        -0.0045
      5 C5         65.4060    7.9550   20.3150 C.ar      1 RDC         0.0931
      6 C6         64.8940    8.3490   21.5910 C.ar      1 RDC         0.0654
      7 C7         63.6360    7.8490   22.0260 C.ar      1 RDC        -0.0069
      8 C8         63.0800    8.2780   23.4190 C.3       1 RDC         0.0497
      9 C9         63.7520    7.6610   24.6050 C.2       1 RDC         0.1176
     10 C10        63.5800    6.2480   25.0280 C.2       1 RDC        -0.0220
     11 C11        62.8090    5.2460   24.4130 C.2       1 RDC        -0.0641
     12 C12        62.8020    3.9160   25.0880 C.2       1 RDC        -0.0558
     13 C13        62.1820    2.7230   24.7390 C.2       1 RDC        -0.0298
     14 C14        61.2860    2.1830   23.5620 C.3       1 RDC         0.1255
     15 C15        59.9760    2.9070   23.0280 C.3       1 RDC         0.1057
     16 C16        60.1880    3.3350   21.5530 C.3       1 RDC         0.0093
     17 C17        59.5630    4.7220   21.0980 C.3       1 RDC         0.0858
     18 C18        58.7080    5.4320   22.1880 C.3       1 RDC        -0.0343
     19 O1         60.8340    5.4340   20.7530 O.3       1 RDC        -0.2787
     20 O2         61.0580    6.6580   22.6850 O.2       1 RDC        -0.3725
     21 O3         62.8520    5.6980   19.0480 O.3       1 RDC        -0.3313
     22 O4         66.5830    8.4170   19.8710 O.3       1 RDC        -0.3330
     23 CL1        65.8360    9.4680   22.5760 Cl        1 RDC        -0.0932
     24 O5         64.5000    8.4110   25.2950 O.2       1 RDC        -0.3923
     25 O6         60.0430    1.5590   23.5940 O.3       1 RDC        -0.3469
     26 H1         65.1174    6.7834   18.5457 H         1 RDC         0.0425
     27 H2         62.0146    8.0068   23.4555 H         1 RDC         0.0645
     28 H3         63.1835    9.3699   23.5023 H         1 RDC         0.0645
     29 H4         64.1183    5.9508   25.9268 H         1 RDC         0.0499
     30 H5         62.2495    5.4302   23.4971 H         1 RDC         0.0706
     31 H6         63.3804    3.8730   26.0097 H         1 RDC         0.0474
     32 H7         62.3659    1.9493   25.4830 H         1 RDC         0.0885
     33 H8         61.9956    1.7980   22.8148 H         1 RDC         0.0863
     34 H9         59.4134    3.6795   23.5727 H         1 RDC         0.0661
     35 H10        59.7515    2.5516   20.9160 H         1 RDC         0.0322
     36 H11        61.2726    3.3884   21.3774 H         1 RDC         0.0322
     37 H12        58.9316    4.5930   20.2066 H         1 RDC         0.0645
     38 H13        58.3172    6.3793   21.7880 H         1 RDC         0.0258
     39 H14        59.3337    5.6365   23.0693 H         1 RDC         0.0258
     40 H15        57.8689    4.7821   22.4768 H         1 RDC         0.0258
     41 H16        62.0253    5.4252   19.4285 H         1 RDC         0.2508
     42 H17        66.7615    8.0522   19.0122 H         1 RDC         0.2502
@<TRIPOS>BOND
     1    1    2 1  
     2    1   19 1  
     3    1   20 2  
     4    2    3 ar 
     5    2    7 ar 
     6    3    4 ar 
     7    3   21 1  
     8    4    5 ar 
     9    5    6 ar 
    10    5   22 1  
    11    6    7 ar 
    12    6   23 1  
    13    7    8 1  
    14    8    9 1  
    15    9   10 1  
    16    9   24 2  
    17   10   11 2  
    18   11   12 1  
    19   12   13 2  
    20   13   14 1  
    21   14   15 1  
    22   14   25 1  
    23   15   16 1  
    24   15   25 1  
    25   16   17 1  
    26   17   18 1  
    27   17   19 1  
    28    4   26 1  
    29    8   27 1  
    30    8   28 1  
    31   10   29 1  
    32   11   30 1  
    33   12   31 1  
    34   13   32 1  
    35   14   33 1  
    36   15   34 1  
    37   16   35 1  
    38   16   36 1  
    39   17   37 1  
    40   18   38 1  
    41   18   39 1  
    42   18   40 1  
    43   21   41 1  
    44   22   42 1  
@<TRIPOS>SUBSTRUCTURE
     1 RDC         1

