### 
### Created by X-TOOL on Mon Sep 10 21:12:59 2018
### 

@<TRIPOS>MOLECULE
3chg_ligand
   15    14     1     0     0
SMALL
GAST_HUCK


@<TRIPOS>ATOM
      1 O3         13.2440  -16.5190   22.8380 O.co2     1 313        -0.5649
      2 C2         14.0570  -17.1970   22.1710 C.2       1 313         0.0854
      3 O1         15.2690  -16.9150   22.0620 O.co2     1 313        -0.5649
      4 C4         13.5500  -18.4270   21.4640 C.3       1 313         0.1604
      5 S5         12.5450  -19.2510   22.4960 S.3       1 313        -0.0029
      6 C7         11.5910  -20.2990   21.6350 C.3       1 313         0.1007
      7 C6         13.4930  -20.1020   23.5580 C.3       1 313         0.1007
      8 H1         14.3977  -19.0683   21.1810 H         1 313         0.1014
      9 H2         12.9947  -18.1335   20.5610 H         1 313         0.1014
     10 H3         10.9276  -20.8417   22.3245 H         1 313         0.0804
     11 H4         12.2276  -21.0171   21.0974 H         1 313         0.0804
     12 H5         10.9848  -19.7335   20.9120 H         1 313         0.0804
     13 H6         14.1241  -19.4034   24.1270 H         1 313         0.0804
     14 H7         14.1321  -20.8017   22.9995 H         1 313         0.0804
     15 H8         12.8517  -20.6651   24.2519 H         1 313         0.0804
@<TRIPOS>BOND
     1    1    2 ar 
     2    2    3 ar 
     3    2    4 1  
     4    4    5 1  
     5    5    6 1  
     6    5    7 1  
     7    4    8 1  
     8    4    9 1  
     9    6   10 1  
    10    6   11 1  
    11    6   12 1  
    12    7   13 1  
    13    7   14 1  
    14    7   15 1  
@<TRIPOS>SUBSTRUCTURE
     1 313         1

