### 
### Created by X-TOOL on Mon Sep 10 21:12:57 2018
### 

@<TRIPOS>MOLECULE
3cho_ligand
   36    37     1     0     0
SMALL
GAST_HUCK


@<TRIPOS>ATOM
      1 C1         24.4390   -0.1590    3.5850 C.ar      1 4BG        -0.0578
      2 C2         23.5200    0.4490    4.4520 C.ar      1 4BG        -0.0685
      3 C3         22.8920    1.6500    4.0840 C.ar      1 4BG        -0.0687
      4 C4         23.1740    2.2360    2.8430 C.ar      1 4BG        -0.0685
      5 C5         24.0940    1.6280    1.9770 C.ar      1 4BG        -0.0578
      6 C6         24.7390    0.4320    2.3510 C.ar      1 4BG        -0.0134
      7 C7         25.9480   -0.0260    1.5520 C.3       1 4BG         0.1011
      8 O8         26.1420    0.5280    0.3220 O.3       1 4BG        -0.3151
      9 C9         27.4400    0.4410   -0.0940 C.ar      1 4BG         0.0786
     10 C12        28.4670    0.6530    0.8410 C.ar      1 4BG        -0.0456
     11 C13        29.7450    0.9960    0.4140 C.ar      1 4BG        -0.0490
     12 C10        27.7130    0.5220   -1.4690 C.ar      1 4BG        -0.0456
     13 C11        29.0080    0.8690   -1.8990 C.ar      1 4BG        -0.0490
     14 C14        30.0260    1.1310   -0.9570 C.ar      1 4BG         0.0558
     15 N15        31.1750    1.6990   -1.3930 N.am      1 4BG        -0.2358
     16 C16        32.1290    2.2040   -0.5820 C.2       1 4BG         0.2461
     17 O17        31.9390    2.5910    0.5750 O.2       1 4BG        -0.3804
     18 C18        33.5070    2.3450   -1.2300 C.3       1 4BG         0.0597
     19 N19        34.3360    3.2530   -0.4220 N.4       1 4BG         0.2361
     20 H1         24.9184   -1.0884    3.8703 H         1 4BG         0.0557
     21 H2         23.2938   -0.0089    5.4082 H         1 4BG         0.0599
     22 H3         22.1892    2.1236    4.7600 H         1 4BG         0.0559
     23 H4         22.6820    3.1574    2.5530 H         1 4BG         0.0599
     24 H5         24.3101    2.0798    1.0156 H         1 4BG         0.0557
     25 H6         25.8563   -1.1131    1.4117 H         1 4BG         0.0773
     26 H7         26.8419    0.1918    2.1549 H         1 4BG         0.0773
     27 H8         28.2621    0.5487    1.9003 H         1 4BG         0.0507
     28 H9         30.5301    1.1605    1.1431 H         1 4BG         0.0478
     29 H10        26.9329    0.3190   -2.1937 H         1 4BG         0.0507
     30 H11        29.2244    0.9353   -2.9591 H         1 4BG         0.0478
     31 H12        31.3270    1.7477   -2.3802 H         1 4BG         0.2222
     32 H13        33.3953    2.7551   -2.2445 H         1 4BG         0.1066
     33 H14        33.9897    1.3581   -1.2845 H         1 4BG         0.1066
     34 H15        35.2447    3.3469   -0.8480 H         1 4BG         0.2012
     35 H16        34.4380    2.8770    0.5077 H         1 4BG         0.2012
     36 H17        33.8933    4.1572   -0.3721 H         1 4BG         0.2012
@<TRIPOS>BOND
     1    1    2 ar 
     2    1    6 ar 
     3    2    3 ar 
     4    3    4 ar 
     5    4    5 ar 
     6    5    6 ar 
     7    6    7 1  
     8    7    8 1  
     9    8    9 1  
    10    9   10 ar 
    11    9   12 ar 
    12   10   11 ar 
    13   11   14 ar 
    14   12   13 ar 
    15   13   14 ar 
    16   14   15 1  
    17   15   16 am 
    18   16   17 2  
    19   16   18 1  
    20   18   19 1  
    21    1   20 1  
    22    2   21 1  
    23    3   22 1  
    24    4   23 1  
    25    5   24 1  
    26    7   25 1  
    27    7   26 1  
    28   10   27 1  
    29   11   28 1  
    30   12   29 1  
    31   13   30 1  
    32   15   31 1  
    33   18   32 1  
    34   18   33 1  
    35   19   34 1  
    36   19   35 1  
    37   19   36 1  
@<TRIPOS>SUBSTRUCTURE
     1 4BG         1

