### 
### Created by X-TOOL on Mon Sep 10 21:12:59 2018
### 

@<TRIPOS>MOLECULE
3chp_ligand
   41    42     1     0     0
SMALL
GAST_HUCK


@<TRIPOS>ATOM
      1 C12         8.5610   41.8670   67.9200 C.ar      1 4BO        -0.0490
      2 C13         7.7440   41.0110   68.6820 C.ar      1 4BO        -0.0456
      3 C24         8.8950   38.0960   71.6280 C.ar      1 4BO        -0.0578
      4 C11         9.5650   41.3400   67.0890 C.ar      1 4BO         0.0558
      5 C14         7.9130   39.6150   68.6160 C.ar      1 4BO         0.0786
      6 C15         8.9110   39.0850   67.7760 C.ar      1 4BO        -0.0456
      7 O1         13.8240   41.2220   63.6590 O.co2     1 4BO        -0.5686
      8 C2         14.5240   41.7760   64.5420 C.2       1 4BO         0.0425
      9 C4         13.8510   42.8740   65.4020 C.3       1 4BO         0.0611
     10 C7         11.5360   41.8270   65.7910 C.2       1 4BO         0.2509
     11 C5         12.3260   42.9900   65.1620 C.3       1 4BO         0.0817
     12 C20         8.4650   35.7530   71.1370 C.ar      1 4BO        -0.0578
     13 C21         9.1820   35.3790   72.2830 C.ar      1 4BO        -0.0685
     14 C22         9.7550   36.3580   73.1020 C.ar      1 4BO        -0.0687
     15 C23         9.6110   37.7180   72.7740 C.ar      1 4BO        -0.0685
     16 C19         8.3210   37.1100   70.8020 C.ar      1 4BO        -0.0134
     17 C18         7.6350   37.4540   69.6320 C.3       1 4BO         0.1011
     18 O17         7.1020   38.7970   69.3860 O.3       1 4BO        -0.3151
     19 C16         9.7270   39.9390   67.0250 C.ar      1 4BO        -0.0490
     20 N9         10.4280   42.1990   66.4790 N.am      1 4BO        -0.2354
     21 O8         11.9510   40.6720   65.6950 O.2       1 4BO        -0.3799
     22 N6         11.8390   44.2520   65.6990 N.4       1 4BO         0.2395
     23 O3         15.7320   41.5240   64.7880 O.co2     1 4BO        -0.5686
     24 H1          8.4151   42.9398   67.9742 H         1 4BO         0.0478
     25 H2          6.9784   41.4301   69.3249 H         1 4BO         0.0507
     26 H3          8.7838   39.1451   71.3788 H         1 4BO         0.0557
     27 H4          9.0479   38.0117   67.7107 H         1 4BO         0.0507
     28 H5         14.3170   43.8409   65.1611 H         1 4BO         0.0512
     29 H6         14.0206   42.6394   66.4632 H         1 4BO         0.0512
     30 H7         12.1492   42.9765   64.0764 H         1 4BO         0.1122
     31 H8          8.0199   34.9916   70.5068 H         1 4BO         0.0557
     32 H9          9.2923   34.3303   72.5344 H         1 4BO         0.0599
     33 H10        10.3089   36.0688   73.9878 H         1 4BO         0.0559
     34 H11        10.0546   38.4767   73.4086 H         1 4BO         0.0599
     35 H12         6.7749   36.7709   69.5727 H         1 4BO         0.0773
     36 H13         8.3267   37.2456   68.8025 H         1 4BO         0.0773
     37 H14        10.4944   39.5186   66.3851 H         1 4BO         0.0478
     38 H15        10.2299   43.1771   66.5432 H         1 4BO         0.2222
     39 H16        10.8461   44.3236   65.5408 H         1 4BO         0.2016
     40 H17        12.3085   45.0163   65.2392 H         1 4BO         0.2016
     41 H18        12.0251   44.2901   66.6889 H         1 4BO         0.2016
@<TRIPOS>BOND
     1    2    1 ar 
     2    1    4 ar 
     3    5    2 ar 
     4    3   15 ar 
     5   16    3 ar 
     6   19    4 ar 
     7    4   20 1  
     8    5    6 ar 
     9   18    5 1  
    10    6   19 ar 
    11    8    7 ar 
    12    9    8 1  
    13    8   23 ar 
    14   11    9 1  
    15   10   11 1  
    16   20   10 am 
    17   10   21 2  
    18   11   22 1  
    19   12   13 ar 
    20   16   12 ar 
    21   13   14 ar 
    22   15   14 ar 
    23   17   16 1  
    24   17   18 1  
    25    1   24 1  
    26    2   25 1  
    27    3   26 1  
    28    6   27 1  
    29    9   28 1  
    30    9   29 1  
    31   11   30 1  
    32   12   31 1  
    33   13   32 1  
    34   14   33 1  
    35   15   34 1  
    36   17   35 1  
    37   17   36 1  
    38   19   37 1  
    39   20   38 1  
    40   22   39 1  
    41   22   40 1  
    42   22   41 1  
@<TRIPOS>SUBSTRUCTURE
     1 4BO         1

