### 
### Created by X-TOOL on Mon Sep 10 21:12:58 2018
### 

@<TRIPOS>MOLECULE
3chq_ligand
   44    45     1     0     0
SMALL
GAST_HUCK


@<TRIPOS>ATOM
      1 C21         8.1650   38.3260   72.1190 C.ar      1 4BQ        -0.0578
      2 C22         8.8530   37.7620   73.2080 C.ar      1 4BQ        -0.0685
      3 C23         9.0680   36.3750   73.2630 C.ar      1 4BQ        -0.0687
      4 C24         8.5960   35.5500   72.2280 C.ar      1 4BQ        -0.0685
      5 C25         7.9100   36.1130   71.1390 C.ar      1 4BQ        -0.0578
      6 C20         7.6940   37.4990   71.0780 C.ar      1 4BQ        -0.0134
      7 C19         7.0270   38.0450   69.9710 C.3       1 4BQ         0.1011
      8 O18         6.7690   39.4780   69.8650 O.3       1 4BQ        -0.3151
      9 C15         7.6750   40.1960   69.0960 C.ar      1 4BQ         0.0786
     10 C16         8.7890   39.5920   68.4610 C.ar      1 4BQ        -0.0456
     11 C17         9.6850   40.3750   67.7080 C.ar      1 4BQ        -0.0490
     12 C14         7.4770   41.5780   68.9540 C.ar      1 4BQ        -0.0456
     13 C13         8.3700   42.3580   68.1990 C.ar      1 4BQ        -0.0490
     14 C12         9.4830   41.7690   67.5750 C.ar      1 4BQ         0.0556
     15 N10        10.3820   42.5930   66.9750 N.am      1 4BQ        -0.2402
     16 C8         11.5730   42.2220   66.4620 C.2       1 4BQ         0.2010
     17 O9         12.0710   41.0950   66.5570 O.2       1 4BQ        -0.3863
     18 C7         12.3620   43.3750   65.8280 C.3       1 4BQ         0.0493
     19 C6         13.8740   43.1050   65.8300 C.3       1 4BQ         0.0197
     20 C4         14.3560   42.3320   64.5840 C.3       1 4BQ         0.0304
     21 C2         15.7790   41.8500   64.8450 C.2       1 4BQ         0.0846
     22 O3         16.7070   42.4790   64.3010 O.co2     1 4BQ        -0.5643
     23 O1         15.9050   40.8690   65.6020 O.co2     1 4BQ        -0.5643
     24 N5         13.5010   41.1600   64.3220 N.4       1 4BQ         0.2328
     25 H1          7.9967   39.3961   72.0796 H         1 4BQ         0.0557
     26 H2          9.2179   38.3984   74.0061 H         1 4BQ         0.0599
     27 H3          9.5977   35.9413   74.1034 H         1 4BQ         0.0559
     28 H4          8.7612   34.4795   72.2699 H         1 4BQ         0.0599
     29 H5          7.5458   35.4745   70.3423 H         1 4BQ         0.0557
     30 H6          6.0462   37.5491   69.9244 H         1 4BQ         0.0773
     31 H7          7.6192   37.7703   69.0857 H         1 4BQ         0.0773
     32 H8          8.9517   38.5244   68.5553 H         1 4BQ         0.0507
     33 H9         10.5357   39.9063   67.2267 H         1 4BQ         0.0478
     34 H10         6.6258   42.0493   69.4319 H         1 4BQ         0.0507
     35 H11         8.1986   43.4235   68.0971 H         1 4BQ         0.0478
     36 H12        10.1388   43.5606   66.9079 H         1 4BQ         0.2220
     37 H13        12.1647   44.2957   66.3967 H         1 4BQ         0.0510
     38 H14        12.0259   43.5066   64.7889 H         1 4BQ         0.0510
     39 H15        14.1226   42.5154   66.7248 H         1 4BQ         0.0363
     40 H16        14.4012   44.0696   65.8683 H         1 4BQ         0.0363
     41 H17        14.3394   42.9988   63.7093 H         1 4BQ         0.1026
     42 H18        13.8373   40.6747   63.5051 H         1 4BQ         0.2010
     43 H19        12.5528   41.4641   64.1655 H         1 4BQ         0.2010
     44 H20        13.5283   40.5399   65.1162 H         1 4BQ         0.2010
@<TRIPOS>BOND
     1    1    2 ar 
     2    1    6 ar 
     3    2    3 ar 
     4    3    4 ar 
     5    4    5 ar 
     6    5    6 ar 
     7    6    7 1  
     8    7    8 1  
     9    8    9 1  
    10    9   10 ar 
    11    9   12 ar 
    12   10   11 ar 
    13   11   14 ar 
    14   12   13 ar 
    15   13   14 ar 
    16   14   15 1  
    17   15   16 am 
    18   16   17 2  
    19   16   18 1  
    20   18   19 1  
    21   19   20 1  
    22   20   21 1  
    23   20   24 1  
    24   21   22 ar 
    25   21   23 ar 
    26    1   25 1  
    27    2   26 1  
    28    3   27 1  
    29    4   28 1  
    30    5   29 1  
    31    7   30 1  
    32    7   31 1  
    33   10   32 1  
    34   11   33 1  
    35   12   34 1  
    36   13   35 1  
    37   15   36 1  
    38   18   37 1  
    39   18   38 1  
    40   19   39 1  
    41   19   40 1  
    42   20   41 1  
    43   24   42 1  
    44   24   43 1  
    45   24   44 1  
@<TRIPOS>SUBSTRUCTURE
     1 4BQ         1

