### 
### Created by X-TOOL on Mon Sep 10 21:12:58 2018
### 

@<TRIPOS>MOLECULE
3chr_ligand
   42    43     1     0     0
SMALL
GAST_HUCK


@<TRIPOS>ATOM
      1 N1         13.4230   40.4570   63.4290 N.4       1 4BS         0.2186
      2 C2         13.7260   41.8570   63.1620 C.3       1 4BS        -0.0333
      3 C3         13.4320   42.6790   64.4060 C.3       1 4BS         0.0047
      4 C4         11.9480   42.8780   64.6800 C.3       1 4BS         0.0474
      5 C5         11.2950   41.7490   65.4240 C.2       1 4BS         0.2009
      6 O6         11.8400   40.6740   65.5910 O.2       1 4BS        -0.3863
      7 N7         10.0890   42.0370   65.8820 N.am      1 4BS        -0.2402
      8 C9          9.3340   41.1650   66.5840 C.ar      1 4BS         0.0556
      9 C10         9.5880   39.7840   66.6700 C.ar      1 4BS        -0.0490
     10 C11         8.8010   38.9750   67.4850 C.ar      1 4BS        -0.0456
     11 C12         7.7470   39.5430   68.1830 C.ar      1 4BS         0.0786
     12 C13         7.5060   40.9060   68.0960 C.ar      1 4BS        -0.0456
     13 C14         8.2770   41.7090   67.2870 C.ar      1 4BS        -0.0490
     14 O15         6.8960   38.8520   69.0010 O.3       1 4BS        -0.3151
     15 C16         6.9170   37.4700   69.3580 C.3       1 4BS         0.1011
     16 C17         7.8420   36.9830   70.4780 C.ar      1 4BS        -0.0134
     17 C18         8.4390   37.7700   71.4790 C.ar      1 4BS        -0.0578
     18 C19         9.2480   37.1870   72.4510 C.ar      1 4BS        -0.0685
     19 C20         9.4650   35.8050   72.4430 C.ar      1 4BS        -0.0687
     20 C21         8.8760   35.0220   71.4640 C.ar      1 4BS        -0.0685
     21 C22         8.0850   35.6180   70.5010 C.ar      1 4BS        -0.0578
     22 H1         13.6168   39.9084   62.6059 H         1 4BS         0.1994
     23 H2         12.4493   40.3645   63.6728 H         1 4BS         0.1994
     24 H3         13.9933   40.1295   64.1929 H         1 4BS         0.1994
     25 H4         13.1037   42.2155   62.3288 H         1 4BS         0.0815
     26 H5         14.7886   41.9591   62.8965 H         1 4BS         0.0815
     27 H6         13.8970   43.6684   64.2847 H         1 4BS         0.0341
     28 H7         13.8781   42.1678   65.2718 H         1 4BS         0.0341
     29 H8         11.4334   42.9966   63.7151 H         1 4BS         0.0509
     30 H9         11.8285   43.7957   65.2745 H         1 4BS         0.0509
     31 H10         9.7168   42.9470   65.6993 H         1 4BS         0.2220
     32 H11        10.3999   39.3480   66.0993 H         1 4BS         0.0478
     33 H12         9.0098   37.9149   67.5725 H         1 4BS         0.0507
     34 H13         6.6998   41.3445   68.6728 H         1 4BS         0.0507
     35 H14         8.0551   42.7666   67.2017 H         1 4BS         0.0478
     36 H15         7.1944   36.9119   68.4516 H         1 4BS         0.0773
     37 H16         5.8918   37.2026   69.6539 H         1 4BS         0.0773
     38 H17         8.2678   38.8403   71.4941 H         1 4BS         0.0557
     39 H18         9.7095   37.8039   73.2136 H         1 4BS         0.0599
     40 H19        10.0919   35.3485   73.2004 H         1 4BS         0.0559
     41 H20         9.0345   33.9497   71.4536 H         1 4BS         0.0599
     42 H21         7.6376   34.9954   69.7347 H         1 4BS         0.0557
@<TRIPOS>BOND
     1    1    2 1  
     2    2    3 1  
     3    3    4 1  
     4    4    5 1  
     5    5    6 2  
     6    5    7 am 
     7    7    8 1  
     8    8    9 ar 
     9    8   13 ar 
    10    9   10 ar 
    11   10   11 ar 
    12   11   12 ar 
    13   11   14 1  
    14   12   13 ar 
    15   14   15 1  
    16   15   16 1  
    17   16   17 ar 
    18   16   21 ar 
    19   17   18 ar 
    20   18   19 ar 
    21   19   20 ar 
    22   20   21 ar 
    23    1   22 1  
    24    1   23 1  
    25    1   24 1  
    26    2   25 1  
    27    2   26 1  
    28    3   27 1  
    29    3   28 1  
    30    4   29 1  
    31    4   30 1  
    32    7   31 1  
    33    9   32 1  
    34   10   33 1  
    35   12   34 1  
    36   13   35 1  
    37   15   36 1  
    38   15   37 1  
    39   17   38 1  
    40   18   39 1  
    41   19   40 1  
    42   20   41 1  
    43   21   42 1  
@<TRIPOS>SUBSTRUCTURE
     1 4BS         1

