### 
### Created by X-TOOL on Mon Sep 10 21:12:58 2018
### 

@<TRIPOS>MOLECULE
3chs_ligand
   48    49     1     0     0
SMALL
GAST_HUCK


@<TRIPOS>ATOM
      1 O9         12.1870   40.9890   65.8760 O.2       1 4BU        -0.3863
      2 C8         11.5650   42.0710   65.7190 C.2       1 4BU         0.2010
      3 C7         12.2270   43.2830   65.1480 C.3       1 4BU         0.0493
      4 C6         13.7450   42.8790   65.1520 C.3       1 4BU         0.0197
      5 C4         14.4240   42.0820   63.9840 C.3       1 4BU         0.0304
      6 N5         13.7190   40.8210   63.6870 N.4       1 4BU         0.2328
      7 C2         15.8270   41.6970   64.2240 C.2       1 4BU         0.0846
      8 O3         16.7990   42.3890   63.8720 O.co2     1 4BU        -0.5643
      9 O1         16.0810   40.6180   64.7990 O.co2     1 4BU        -0.5643
     10 N10        10.2430   42.1600   66.0620 N.am      1 4BU        -0.2402
     11 C12         9.5490   41.3280   66.8970 C.ar      1 4BU         0.0556
     12 C13         8.6280   41.9020   67.8130 C.ar      1 4BU        -0.0490
     13 C14         7.8950   41.0730   68.6980 C.ar      1 4BU        -0.0458
     14 C15         8.0710   39.6690   68.6930 C.ar      1 4BU         0.0762
     15 C16         8.9800   39.0950   67.7830 C.ar      1 4BU        -0.0458
     16 C17         9.7060   39.9140   66.8980 C.ar      1 4BU        -0.0490
     17 O18         7.3420   38.9360   69.5820 O.3       1 4BU        -0.3230
     18 C19         7.4130   37.5580   70.0110 C.3       1 4BU         0.1028
     19 C20         8.2740   37.7090   71.3070 C.3       1 4BU         0.1162
     20 O21         7.4760   38.4900   72.2070 O.3       1 4BU        -0.3766
     21 C23         8.8250   36.4640   71.9420 C.ar      1 4BU        -0.0122
     22 C24         8.6580   35.1590   71.4030 C.ar      1 4BU        -0.0578
     23 C25         9.2260   34.0320   72.0320 C.ar      1 4BU        -0.0685
     24 C26         9.9670   34.1960   73.2170 C.ar      1 4BU        -0.0687
     25 C27        10.1390   35.4760   73.7820 C.ar      1 4BU        -0.0685
     26 C28         9.5780   36.5990   73.1450 C.ar      1 4BU        -0.0578
     27 H1         12.0497   44.1665   65.7788 H         1 4BU         0.0510
     28 H2         11.8726   43.4848   64.1264 H         1 4BU         0.0510
     29 H3         13.8941   42.2732   66.0579 H         1 4BU         0.0363
     30 H4         14.3079   43.8197   65.2432 H         1 4BU         0.0363
     31 H5         14.3906   42.7267   63.0934 H         1 4BU         0.1026
     32 H6         14.1878   40.3435   62.9332 H         1 4BU         0.2010
     33 H7         12.7688   41.0226   63.4176 H         1 4BU         0.2010
     34 H8         13.7186   40.2350   64.5072 H         1 4BU         0.2010
     35 H9          9.7281   42.9160   65.6579 H         1 4BU         0.2220
     36 H10         8.4855   42.9764   67.8352 H         1 4BU         0.0478
     37 H11         7.1895   41.5207   69.3886 H         1 4BU         0.0507
     38 H12         9.1207   38.0203   67.7642 H         1 4BU         0.0507
     39 H13        10.4001   39.4573   66.2018 H         1 4BU         0.0478
     40 H14         7.9123   36.9247   69.2629 H         1 4BU         0.0657
     41 H15         6.4159   37.1490   70.2310 H         1 4BU         0.0657
     42 H16         9.1546   38.3085   71.0330 H         1 4BU         0.0784
     43 H17         7.2902   39.3340   71.8126 H         1 4BU         0.2131
     44 H18         8.0841   35.0281   70.4927 H         1 4BU         0.0557
     45 H19         9.0925   33.0446   71.6050 H         1 4BU         0.0599
     46 H20        10.4089   33.3315   73.6990 H         1 4BU         0.0559
     47 H21        10.7001   35.5948   74.7018 H         1 4BU         0.0599
     48 H22         9.7210   37.5831   73.5765 H         1 4BU         0.0557
@<TRIPOS>BOND
     1    1    2 2  
     2    2    3 1  
     3    2   10 am 
     4    3    4 1  
     5    4    5 1  
     6    5    6 1  
     7    5    7 1  
     8    7    8 ar 
     9    7    9 ar 
    10   10   11 1  
    11   11   12 ar 
    12   11   16 ar 
    13   12   13 ar 
    14   13   14 ar 
    15   14   15 ar 
    16   14   17 1  
    17   15   16 ar 
    18   17   18 1  
    19   18   19 1  
    20   19   20 1  
    21   19   21 1  
    22   21   22 ar 
    23   21   26 ar 
    24   22   23 ar 
    25   23   24 ar 
    26   24   25 ar 
    27   25   26 ar 
    28    3   27 1  
    29    3   28 1  
    30    4   29 1  
    31    4   30 1  
    32    5   31 1  
    33    6   32 1  
    34    6   33 1  
    35    6   34 1  
    36   10   35 1  
    37   12   36 1  
    38   13   37 1  
    39   15   38 1  
    40   16   39 1  
    41   18   40 1  
    42   18   41 1  
    43   19   42 1  
    44   20   43 1  
    45   22   44 1  
    46   23   45 1  
    47   24   46 1  
    48   25   47 1  
    49   26   48 1  
@<TRIPOS>SUBSTRUCTURE
     1 4BU         1

