### 
### Created by X-TOOL on Mon Sep 10 21:12:57 2018
### 

@<TRIPOS>MOLECULE
3cib_ligand
   90    93     1     0     0
SMALL
GAST_HUCK


@<TRIPOS>ATOM
      1 F1         27.0260   10.8080   19.1370 F         1 314        -0.1863
      2 F2         23.0830   13.3590   18.5300 F         1 314        -0.1863
      3 C1         26.9670   15.4970   24.5220 C.ar      1 314        -0.0367
      4 C2         27.1190   14.2850   23.7900 C.ar      1 314         0.0490
      5 C3         25.9710   13.4800   23.4990 C.ar      1 314        -0.0289
      6 C4         24.6770   13.8930   23.9290 C.ar      1 314         0.0488
      7 C5         24.5280   15.1130   24.6560 C.ar      1 314        -0.0367
      8 C6         25.6760   15.9110   24.9520 C.ar      1 314        -0.0353
      9 C7         28.4540   13.8480   23.3730 C.2       1 314         0.2069
     10 N1         28.7000   13.6420   22.0440 N.am      1 314        -0.2724
     11 O1         29.3310   13.6560   24.2090 O.2       1 314        -0.3844
     12 C8         30.0440   13.1900   21.7000 C.3       1 314         0.0331
     13 C9         27.7220   13.8510   20.9750 C.3       1 314         0.0331
     14 C10        28.2290   14.9260   20.0160 C.3       1 314        -0.0354
     15 C11        28.7940   16.1390   20.7520 C.3       1 314        -0.0634
     16 C12        30.0120   11.7180   21.2070 C.3       1 314        -0.0354
     17 C13        29.1930   10.7760   22.1100 C.3       1 314        -0.0634
     18 C14        25.5260   17.1700   25.7040 C.3       1 314        -0.0293
     19 C15        23.5000   13.0770   23.6160 C.2       1 314         0.2049
     20 O2         22.3790   13.5510   23.4840 O.2       1 314        -0.3846
     21 N2         23.7510   11.7520   23.4810 N.am      1 314        -0.2784
     22 C16        22.6520   10.8310   23.1420 C.3       1 314         0.0820
     23 C17        22.1250   10.0290   24.3540 C.3       1 314         0.1220
     24 O3         21.2030    9.0310   23.8910 O.3       1 314        -0.3837
     25 C18        23.1230    9.8710   22.0330 C.3       1 314         0.0048
     26 C19        23.8000   10.6420   20.9170 C.ar      1 314        -0.0445
     27 C20        25.1440   10.3410   20.5500 C.ar      1 314        -0.0310
     28 C21        25.7740   11.0720   19.4940 C.ar      1 314         0.1242
     29 C22        25.0680   12.0950   18.8120 C.ar      1 314        -0.0019
     30 C23        23.7330   12.3950   19.1770 C.ar      1 314         0.1242
     31 C24        23.0940   11.6750   20.2240 C.ar      1 314        -0.0310
     32 C25        21.3970   10.8940   25.3900 C.3       1 314         0.0066
     33 C26        20.0980   11.4990   24.8210 C.3       1 314        -0.0024
     34 C27        19.2700   12.1920   25.9060 C.3       1 314        -0.0214
     35 C28        19.1350   11.3150   27.1530 C.3       1 314        -0.0078
     36 C29        20.4750   10.8010   27.6430 C.3       1 314        -0.0329
     37 N3         21.1010   10.0310   26.5560 N.4       1 314         0.2311
     38 C30        17.9180   12.7260   25.3740 C.3       1 314        -0.0159
     39 C31        16.9520   11.5900   25.0960 C.ar      1 314        -0.0428
     40 C32        16.0490   11.1570   26.1120 C.ar      1 314        -0.0603
     41 C33        15.1370   10.0880   25.8540 C.ar      1 314        -0.0686
     42 C34        15.1310    9.4540   24.5780 C.ar      1 314        -0.0687
     43 C35        16.0330    9.8900   23.5650 C.ar      1 314        -0.0686
     44 C36        16.9420   10.9560   23.8210 C.ar      1 314        -0.0603
     45 H1         27.8352   16.1041   24.7515 H         1 314         0.0642
     46 H2         26.0869   12.5528   22.9494 H         1 314         0.0665
     47 H3         23.5454   15.4334   24.9829 H         1 314         0.0642
     48 H4         30.6883   13.2603   22.5887 H         1 314         0.0522
     49 H5         30.4484   13.8304   20.9023 H         1 314         0.0522
     50 H6         26.7655   14.1730   21.4124 H         1 314         0.0522
     51 H7         27.5752   12.9100   20.4246 H         1 314         0.0522
     52 H8         27.3939   15.2553   19.3802 H         1 314         0.0282
     53 H9         29.0208   14.4937   19.3866 H         1 314         0.0282
     54 H10        29.1445   16.8815   20.0200 H         1 314         0.0230
     55 H11        29.6357   15.8238   21.3862 H         1 314         0.0230
     56 H12        28.0088   16.5854   21.3799 H         1 314         0.0230
     57 H13        31.0457   11.3445   21.1637 H         1 314         0.0282
     58 H14        29.5730   11.6997   20.1986 H         1 314         0.0282
     59 H15        29.2186    9.7572   21.6960 H         1 314         0.0230
     60 H16        28.1515   11.1267   22.1568 H         1 314         0.0230
     61 H17        29.6242   10.7714   23.1219 H         1 314         0.0230
     62 H18        26.5123   17.6397   25.8331 H         1 314         0.0391
     63 H19        25.0890   16.9578   26.6909 H         1 314         0.0391
     64 H20        24.8649   17.8520   25.1492 H         1 314         0.0391
     65 H21        24.6783   11.4009   23.6109 H         1 314         0.1851
     66 H22        21.8172   11.4318   22.7519 H         1 314         0.0606
     67 H23        22.9799    9.5400   24.8438 H         1 314         0.0675
     68 H24        21.6474    8.4460   23.2886 H         1 314         0.2102
     69 H25        22.2539    9.3333   21.6262 H         1 314         0.0448
     70 H26        23.8353    9.1484   22.4578 H         1 314         0.0448
     71 H27        25.6873    9.5602   21.0698 H         1 314         0.0508
     72 H28        25.5493   12.6466   18.0125 H         1 314         0.0532
     73 H29        22.0714   11.9093   20.4969 H         1 314         0.0508
     74 H30        22.0579   11.7161   25.7021 H         1 314         0.0877
     75 H31        19.4963   10.6939   24.3740 H         1 314         0.0325
     76 H32        20.3578   12.2358   24.0466 H         1 314         0.0325
     77 H33        19.8440   13.0779   26.2153 H         1 314         0.0326
     78 H34        18.4927   10.4550   26.9128 H         1 314         0.0321
     79 H35        18.6694   11.9081   27.9539 H         1 314         0.0321
     80 H36        20.3268   10.1535   28.5198 H         1 314         0.0814
     81 H37        21.1204   11.6483   27.9178 H         1 314         0.0814
     82 H38        21.9608    9.6267   26.8925 H         1 314         0.2017
     83 H39        20.4733    9.2960   26.2701 H         1 314         0.2017
     84 H40        18.0938   13.2838   24.4424 H         1 314         0.0429
     85 H41        17.4763   13.3970   26.1254 H         1 314         0.0429
     86 H42        16.0548   11.6403   27.0823 H         1 314         0.0557
     87 H43        14.4514    9.7601   26.6270 H         1 314         0.0599
     88 H44        14.4416    8.6416   24.3784 H         1 314         0.0559
     89 H45        16.0274    9.4077   22.5942 H         1 314         0.0599
     90 H46        17.6254   11.2843   23.0463 H         1 314         0.0557
@<TRIPOS>BOND
     1   28    1 1  
     2   30    2 1  
     3    4    3 ar 
     4    8    3 ar 
     5    5    4 ar 
     6    4    9 1  
     7    6    5 ar 
     8    6    7 ar 
     9   19    6 1  
    10    7    8 ar 
    11    8   18 1  
    12    9   10 am 
    13    9   11 2  
    14   10   12 1  
    15   10   13 1  
    16   12   16 1  
    17   13   14 1  
    18   14   15 1  
    19   16   17 1  
    20   19   20 2  
    21   21   19 am 
    22   22   21 1  
    23   22   23 1  
    24   25   22 1  
    25   23   24 1  
    26   23   32 1  
    27   26   25 1  
    28   27   26 ar 
    29   26   31 ar 
    30   28   27 ar 
    31   29   28 ar 
    32   29   30 ar 
    33   30   31 ar 
    34   32   33 1  
    35   32   37 1  
    36   33   34 1  
    37   34   35 1  
    38   34   38 1  
    39   35   36 1  
    40   36   37 1  
    41   38   39 1  
    42   39   40 ar 
    43   39   44 ar 
    44   40   41 ar 
    45   41   42 ar 
    46   42   43 ar 
    47   43   44 ar 
    48    3   45 1  
    49    5   46 1  
    50    7   47 1  
    51   12   48 1  
    52   12   49 1  
    53   13   50 1  
    54   13   51 1  
    55   14   52 1  
    56   14   53 1  
    57   15   54 1  
    58   15   55 1  
    59   15   56 1  
    60   16   57 1  
    61   16   58 1  
    62   17   59 1  
    63   17   60 1  
    64   17   61 1  
    65   18   62 1  
    66   18   63 1  
    67   18   64 1  
    68   21   65 1  
    69   22   66 1  
    70   23   67 1  
    71   24   68 1  
    72   25   69 1  
    73   25   70 1  
    74   27   71 1  
    75   29   72 1  
    76   31   73 1  
    77   32   74 1  
    78   33   75 1  
    79   33   76 1  
    80   34   77 1  
    81   35   78 1  
    82   35   79 1  
    83   36   80 1  
    84   36   81 1  
    85   37   82 1  
    86   37   83 1  
    87   38   84 1  
    88   38   85 1  
    89   40   86 1  
    90   41   87 1  
    91   42   88 1  
    92   43   89 1  
    93   44   90 1  
@<TRIPOS>SUBSTRUCTURE
     1 314         1

