### 
### Created by X-TOOL on Mon Sep 10 21:12:58 2018
### 

@<TRIPOS>MOLECULE
3cic_ligand
   88    91     1     0     0
SMALL
GAST_HUCK


@<TRIPOS>ATOM
      1 C1         27.0460   15.5560   24.3080 C.ar      1 316        -0.0367
      2 C2         27.1800   14.3390   23.5830 C.ar      1 316         0.0490
      3 C3         26.0170   13.5650   23.2740 C.ar      1 316        -0.0289
      4 C4         24.7300   14.0160   23.6840 C.ar      1 316         0.0488
      5 C5         24.6010   15.2420   24.4030 C.ar      1 316        -0.0367
      6 C6         25.7630   16.0100   24.7160 C.ar      1 316        -0.0353
      7 C7         28.5150   13.8710   23.1840 C.2       1 316         0.2069
      8 N1         28.7560   13.6490   21.8540 N.am      1 316        -0.2724
      9 O1         29.3930   13.6740   24.0200 O.2       1 316        -0.3844
     10 C8         30.0870   13.1760   21.4970 C.3       1 316         0.0331
     11 C9         27.7740   13.8650   20.7890 C.3       1 316         0.0331
     12 C10        28.3220   14.8730   19.7840 C.3       1 316        -0.0354
     13 C11        28.8950   16.1170   20.4720 C.3       1 316        -0.0634
     14 C12        30.0430   11.7030   21.0340 C.3       1 316        -0.0354
     15 C13        29.2200   10.7970   21.9560 C.3       1 316        -0.0634
     16 C14        25.6360   17.2730   25.4620 C.3       1 316        -0.0293
     17 C15        23.5370   13.2360   23.3490 C.2       1 316         0.2049
     18 O2         22.4670   13.7610   23.0780 O.2       1 316        -0.3846
     19 N2         23.7070   11.8880   23.3540 N.am      1 316        -0.2783
     20 C16        22.5680   11.0220   23.0040 C.3       1 316         0.0842
     21 C17        22.0430   10.1760   24.2040 C.3       1 316         0.1392
     22 O3         21.0350    9.2690   23.7360 O.3       1 316        -0.3812
     23 C18        22.9740   10.0800   21.8660 C.3       1 316         0.0049
     24 C19        23.6680   10.8250   20.7470 C.ar      1 316        -0.0445
     25 C20        22.9770   11.8450   20.0280 C.ar      1 316        -0.0310
     26 C21        23.6380   12.5390   18.9740 C.ar      1 316         0.1242
     27 C22        24.9800   12.2180   18.6350 C.ar      1 316        -0.0019
     28 C23        25.6690   11.2050   19.3470 C.ar      1 316         0.1242
     29 C24        25.0180   10.5040   20.4060 C.ar      1 316        -0.0310
     30 F1         23.0060   13.4930   18.2950 F         1 316        -0.1863
     31 F2         26.9270   10.9150   19.0190 F         1 316        -0.1863
     32 C25        21.4450   10.9970   25.3540 C.3       1 316         0.0957
     33 C26        20.1430   11.7170   24.9360 C.2       1 316         0.2317
     34 N4         19.1010   11.6420   25.8120 N.am      1 316        -0.2522
     35 C28        19.0910   10.9390   27.1040 C.3       1 316         0.0761
     36 C29        20.4610   10.5800   27.5990 C.3       1 316        -0.0105
     37 N3         21.2780   10.1180   26.4990 N.4       1 316         0.2495
     38 O4         20.0780   12.3170   23.8700 O.2       1 316        -0.3904
     39 C27        17.8420   12.3040   25.4630 C.3       1 316         0.0679
     40 C31        16.7860   11.2830   25.1040 C.ar      1 316        -0.0208
     41 C32        16.9470   10.4670   23.9470 C.ar      1 316        -0.0584
     42 C33        15.9540    9.5030   23.6120 C.ar      1 316        -0.0685
     43 C34        14.8000    9.3560   24.4340 C.ar      1 316        -0.0687
     44 C35        14.6380   10.1730   25.5940 C.ar      1 316        -0.0685
     45 C36        15.6320   11.1370   25.9270 C.ar      1 316        -0.0584
     46 H1         27.9269   16.1395   24.5502 H         1 316         0.0642
     47 H2         26.1157   12.6342   22.7272 H         1 316         0.0665
     48 H3         23.6216   15.5897   24.7112 H         1 316         0.0642
     49 H4         30.7457   13.2582   22.3741 H         1 316         0.0522
     50 H5         30.4835   13.7982   20.6811 H         1 316         0.0522
     51 H6         26.8411   14.2525   21.2244 H         1 316         0.0522
     52 H7         27.5722   12.9118   20.2784 H         1 316         0.0522
     53 H8         27.5082   15.1823   19.1116 H         1 316         0.0282
     54 H9         29.1193   14.3925   19.1979 H         1 316         0.0282
     55 H10        29.2772   16.8135   19.7112 H         1 316         0.0230
     56 H11        29.7151   15.8203   21.1424 H         1 316         0.0230
     57 H12        28.1040   16.6101   21.0561 H         1 316         0.0230
     58 H13        31.0730   11.3187   20.9971 H         1 316         0.0282
     59 H14        29.6020   11.6675   20.0269 H         1 316         0.0282
     60 H15        29.2331    9.7684   21.5663 H         1 316         0.0230
     61 H16        28.1826   11.1605   21.9967 H         1 316         0.0230
     62 H17        29.6536   10.8116   22.9668 H         1 316         0.0230
     63 H18        26.6326   17.7159   25.6054 H         1 316         0.0391
     64 H19        25.1781   17.0753   26.4424 H         1 316         0.0391
     65 H20        25.0025   17.9714   24.8955 H         1 316         0.0391
     66 H21        24.5928   11.4894   23.5919 H         1 316         0.1851
     67 H22        21.7467   11.6656   22.6559 H         1 316         0.0608
     68 H23        22.8897    9.5984   24.6034 H         1 316         0.0702
     69 H24        21.4087    8.6937   23.0788 H         1 316         0.2104
     70 H25        22.0719    9.5942   21.4657 H         1 316         0.0448
     71 H26        23.6572    9.3146   22.2627 H         1 316         0.0448
     72 H27        21.9525   12.0912   20.2827 H         1 316         0.0508
     73 H28        25.4772   12.7485   17.8310 H         1 316         0.0532
     74 H29        25.5464    9.7298   20.9505 H         1 316         0.0508
     75 H30        22.1702   11.7763   25.6310 H         1 316         0.1126
     76 H31        18.5072   10.0134   26.9926 H         1 316         0.0577
     77 H32        18.6100   11.5883   27.8503 H         1 316         0.0577
     78 H33        20.3790    9.7824   28.3521 H         1 316         0.0834
     79 H34        20.9284   11.4663   28.0529 H         1 316         0.0834
     80 H35        22.1969    9.9288   26.8676 H         1 316         0.2037
     81 H36        20.8684    9.2611   26.1613 H         1 316         0.2037
     82 H37        18.0094   12.9688   24.6028 H         1 316         0.0686
     83 H38        17.4947   12.8965   26.3222 H         1 316         0.0686
     84 H39        17.8254   10.5801   23.3219 H         1 316         0.0557
     85 H40        16.0761    8.8816   22.7322 H         1 316         0.0599
     86 H41        14.0435    8.6228   24.1786 H         1 316         0.0559
     87 H42        13.7602   10.0596   26.2198 H         1 316         0.0599
     88 H43        15.5107   11.7594   26.8062 H         1 316         0.0557
@<TRIPOS>BOND
     1    1    2 ar 
     2    1    6 ar 
     3    2    3 ar 
     4    2    7 1  
     5    3    4 ar 
     6    4    5 ar 
     7    4   17 1  
     8    5    6 ar 
     9    6   16 1  
    10    7    8 am 
    11    7    9 2  
    12    8   10 1  
    13    8   11 1  
    14   10   14 1  
    15   11   12 1  
    16   12   13 1  
    17   14   15 1  
    18   17   18 2  
    19   17   19 am 
    20   19   20 1  
    21   20   21 1  
    22   20   23 1  
    23   21   22 1  
    24   21   32 1  
    25   23   24 1  
    26   24   25 ar 
    27   24   29 ar 
    28   25   26 ar 
    29   26   27 ar 
    30   26   30 1  
    31   27   28 ar 
    32   28   29 ar 
    33   28   31 1  
    34   32   33 1  
    35   32   37 1  
    36   33   34 am 
    37   33   38 2  
    38   34   35 1  
    39   34   39 1  
    40   35   36 1  
    41   36   37 1  
    42   39   40 1  
    43   40   41 ar 
    44   40   45 ar 
    45   41   42 ar 
    46   42   43 ar 
    47   43   44 ar 
    48   44   45 ar 
    49    1   46 1  
    50    3   47 1  
    51    5   48 1  
    52   10   49 1  
    53   10   50 1  
    54   11   51 1  
    55   11   52 1  
    56   12   53 1  
    57   12   54 1  
    58   13   55 1  
    59   13   56 1  
    60   13   57 1  
    61   14   58 1  
    62   14   59 1  
    63   15   60 1  
    64   15   61 1  
    65   15   62 1  
    66   16   63 1  
    67   16   64 1  
    68   16   65 1  
    69   19   66 1  
    70   20   67 1  
    71   21   68 1  
    72   22   69 1  
    73   23   70 1  
    74   23   71 1  
    75   25   72 1  
    76   27   73 1  
    77   29   74 1  
    78   32   75 1  
    79   35   76 1  
    80   35   77 1  
    81   36   78 1  
    82   36   79 1  
    83   37   80 1  
    84   37   81 1  
    85   39   82 1  
    86   39   83 1  
    87   41   84 1  
    88   42   85 1  
    89   43   86 1  
    90   44   87 1  
    91   45   88 1  
@<TRIPOS>SUBSTRUCTURE
     1 316         1

