### 
### Created by X-TOOL on Mon Sep 10 21:12:57 2018
### 

@<TRIPOS>MOLECULE
3cid_ligand
   85    88     1     0     0
SMALL
GAST_HUCK


@<TRIPOS>ATOM
      1 F1         26.7270   11.0100   18.9990 F         1 318        -0.1863
      2 F2         22.8010   13.5990   18.3320 F         1 318        -0.1863
      3 N1         23.5910   11.8970   23.3320 N.am      1 318        -0.2783
      4 C1         22.4460   11.0200   23.0130 C.3       1 318         0.0842
      5 C2         21.9880   10.1610   24.2360 C.3       1 318         0.1393
      6 O1         20.9670    9.2440   23.8110 O.3       1 318        -0.3812
      7 C3         21.4300   11.0400   25.3780 C.3       1 318         0.0978
      8 N2         21.1990   10.2000   26.5800 N.4       1 318         0.2653
      9 C4         19.8950   10.6620   27.1280 C.3       1 318         0.0616
     10 N3         19.2830   11.4570   26.0690 N.am      1 318        -0.2185
     11 C5         20.1010   11.7020   25.0450 C.2       1 318         0.2354
     12 C6         22.7830   10.1150   21.8290 C.3       1 318         0.0049
     13 C7         23.3530   13.2240   23.4450 C.2       1 318         0.2049
     14 O2         19.8560   12.3420   24.0230 O.2       1 318        -0.3903
     15 C8         17.8940   11.9020   26.2050 C.3       1 318         0.0725
     16 C9         16.9640   11.2900   25.1840 C.ar      1 318        -0.0206
     17 C10        16.2090   12.1360   24.3190 C.ar      1 318        -0.0584
     18 C11        15.3260   11.5660   23.3530 C.ar      1 318        -0.0685
     19 C12        15.1970   10.1500   23.2540 C.ar      1 318        -0.0687
     20 C13        15.9510    9.3020   24.1190 C.ar      1 318        -0.0685
     21 C14        16.8350    9.8730   25.0840 C.ar      1 318        -0.0584
     22 C15        23.4730   10.8860   20.7250 C.ar      1 318        -0.0445
     23 C16        22.7790   11.9180   20.0300 C.ar      1 318        -0.0310
     24 C17        23.4360   12.6330   18.9900 C.ar      1 318         0.1242
     25 C18        24.7770   12.3220   18.6430 C.ar      1 318        -0.0019
     26 C19        25.4670   11.2940   19.3340 C.ar      1 318         0.1242
     27 C20        24.8200   10.5730   20.3780 C.ar      1 318        -0.0310
     28 O3         22.2300   13.6970   23.2940 O.2       1 318        -0.3846
     29 C21        24.5280   14.0470   23.7520 C.ar      1 318         0.0488
     30 C22        25.8210   13.6180   23.3410 C.ar      1 318        -0.0289
     31 C23        26.9660   14.4260   23.6260 C.ar      1 318         0.0490
     32 C24        26.8060   15.6630   24.3320 C.ar      1 318        -0.0367
     33 C25        25.5090   16.0940   24.7430 C.ar      1 318        -0.0353
     34 C26        24.3680   15.2890   24.4530 C.ar      1 318        -0.0367
     35 C27        25.3460   17.3680   25.4640 C.3       1 318        -0.0293
     36 C28        28.3120   13.9810   23.2140 C.2       1 318         0.2069
     37 O4         29.1970   13.7760   24.0390 O.2       1 318        -0.3844
     38 N4         28.5490   13.7950   21.8730 N.am      1 318        -0.2724
     39 C29        29.8820   13.3510   21.5020 C.3       1 318         0.0331
     40 C30        29.8700   11.8790   21.0530 C.3       1 318        -0.0354
     41 C31        29.1490   10.9200   22.0440 C.3       1 318        -0.0634
     42 C32        27.5680   14.0200   20.8180 C.3       1 318         0.0331
     43 C33        28.1520   14.9720   19.7840 C.3       1 318        -0.0354
     44 C34        28.7060   16.2580   20.4420 C.3       1 318        -0.0634
     45 H1         24.5096   11.5231   23.4599 H         1 318         0.1851
     46 H2         21.6030   11.6642   22.7225 H         1 318         0.0608
     47 H3         22.8518    9.5947   24.6143 H         1 318         0.0702
     48 H4         21.3150    8.6761   23.1335 H         1 318         0.2104
     49 H5         22.1696   11.8214   25.6070 H         1 318         0.1127
     50 H6         21.9353   10.3369   27.2547 H         1 318         0.2058
     51 H7         21.1517    9.2253   26.3273 H         1 318         0.2058
     52 H8         20.0524   11.2763   28.0268 H         1 318         0.1106
     53 H9         19.2576    9.8014   27.3790 H         1 318         0.1106
     54 H10        21.8528    9.6801   21.4346 H         1 318         0.0448
     55 H11        23.4480    9.3089   22.1723 H         1 318         0.0448
     56 H12        17.8657   12.9957   26.0907 H         1 318         0.0688
     57 H13        17.5373   11.6289   27.2091 H         1 318         0.0688
     58 H14        16.3058   13.2130   24.3952 H         1 318         0.0557
     59 H15        14.7538   12.2099   22.6949 H         1 318         0.0599
     60 H16        14.5257    9.7171   22.5212 H         1 318         0.0559
     61 H17        15.8528    8.2251   24.0436 H         1 318         0.0599
     62 H18        17.4085    9.2292   25.7411 H         1 318         0.0557
     63 H19        21.7549   12.1575   20.2924 H         1 318         0.0508
     64 H20        25.2731   12.8701   17.8502 H         1 318         0.0532
     65 H21        25.3498    9.7890   20.9069 H         1 318         0.0508
     66 H22        25.9380   12.6791   22.8121 H         1 318         0.0665
     67 H23        27.6735   16.2736   24.5547 H         1 318         0.0642
     68 H24        23.3813   15.6148   24.7616 H         1 318         0.0642
     69 H25        26.3291   17.8439   25.5944 H         1 318         0.0391
     70 H26        24.8977   17.1765   26.4501 H         1 318         0.0391
     71 H27        24.6895   18.0351   24.8860 H         1 318         0.0391
     72 H28        30.5504   13.4567   22.3692 H         1 318         0.0522
     73 H29        30.2519   13.9757   20.6756 H         1 318         0.0522
     74 H30        30.9115   11.5427   20.9425 H         1 318         0.0282
     75 H31        29.3599   11.8183   20.0803 H         1 318         0.0282
     76 H32        29.1845    9.8930   21.6517 H         1 318         0.0230
     77 H33        28.1006   11.2323   22.1593 H         1 318         0.0230
     78 H34        29.6522   10.9567   23.0215 H         1 318         0.0230
     79 H35        26.6576   14.4606   21.2504 H         1 318         0.0522
     80 H36        27.3193   13.0625   20.3370 H         1 318         0.0522
     81 H37        27.3640   15.2485   19.0681 H         1 318         0.0282
     82 H38        28.9690   14.4631   19.2516 H         1 318         0.0282
     83 H39        29.1182   16.9189   19.6653 H         1 318         0.0230
     84 H40        29.4994   15.9921   21.1560 H         1 318         0.0230
     85 H41        27.8943   16.7774   20.9725 H         1 318         0.0230
@<TRIPOS>BOND
     1   26    1 1  
     2   24    2 1  
     3    4    3 1  
     4    3   13 am 
     5    4    5 1  
     6   12    4 1  
     7    5    6 1  
     8    5    7 1  
     9    7    8 1  
    10    7   11 1  
    11    8    9 1  
    12   10    9 1  
    13   11   10 am 
    14   10   15 1  
    15   11   14 2  
    16   22   12 1  
    17   13   28 2  
    18   13   29 1  
    19   15   16 1  
    20   16   17 ar 
    21   16   21 ar 
    22   17   18 ar 
    23   18   19 ar 
    24   20   19 ar 
    25   21   20 ar 
    26   23   22 ar 
    27   22   27 ar 
    28   24   23 ar 
    29   25   24 ar 
    30   25   26 ar 
    31   26   27 ar 
    32   29   30 ar 
    33   29   34 ar 
    34   30   31 ar 
    35   31   32 ar 
    36   31   36 1  
    37   32   33 ar 
    38   33   34 ar 
    39   33   35 1  
    40   36   37 2  
    41   36   38 am 
    42   38   39 1  
    43   38   42 1  
    44   39   40 1  
    45   40   41 1  
    46   42   43 1  
    47   43   44 1  
    48    3   45 1  
    49    4   46 1  
    50    5   47 1  
    51    6   48 1  
    52    7   49 1  
    53    8   50 1  
    54    8   51 1  
    55    9   52 1  
    56    9   53 1  
    57   12   54 1  
    58   12   55 1  
    59   15   56 1  
    60   15   57 1  
    61   17   58 1  
    62   18   59 1  
    63   19   60 1  
    64   20   61 1  
    65   21   62 1  
    66   23   63 1  
    67   25   64 1  
    68   27   65 1  
    69   30   66 1  
    70   32   67 1  
    71   34   68 1  
    72   35   69 1  
    73   35   70 1  
    74   35   71 1  
    75   39   72 1  
    76   39   73 1  
    77   40   74 1  
    78   40   75 1  
    79   41   76 1  
    80   41   77 1  
    81   41   78 1  
    82   42   79 1  
    83   42   80 1  
    84   43   81 1  
    85   43   82 1  
    86   44   83 1  
    87   44   84 1  
    88   44   85 1  
@<TRIPOS>SUBSTRUCTURE
     1 318         1

