### 
### Created by X-TOOL on Mon Sep 10 21:12:58 2018
### 

@<TRIPOS>MOLECULE
3cj2_ligand
   37    38     1     0     0
SMALL
GAST_HUCK


@<TRIPOS>ATOM
      1 BR1       -19.2830    9.2300  -14.4060 Br        1 SX3        -0.0605
      2 C11       -20.8160    8.5870  -15.3110 C.ar      1 SX3         0.0047
      3 C10       -21.8210    9.5080  -15.6250 C.ar      1 SX3        -0.0437
      4 C12       -20.9370    7.2320  -15.6400 C.ar      1 SX3        -0.0597
      5 C13       -22.1080    6.8040  -16.2950 C.ar      1 SX3        -0.0356
      6 C14       -23.1370    7.7080  -16.6380 C.ar      1 SX3         0.0599
      7 N2        -24.2690    7.2190  -17.3100 N.pl3     1 SX3        -0.3308
      8 C9        -22.9800    9.0760  -16.2840 C.ar      1 SX3         0.0698
      9 C8        -23.9740   10.1270  -16.6150 C.2       1 SX3         0.1999
     10 O1        -23.5970   10.9450  -17.4540 O.2       1 SX3        -0.3919
     11 N1        -25.2720   10.2250  -16.0880 N.am      1 SX3        -0.2741
     12 C6        -25.6520    9.3820  -14.9480 C.3       1 SX3         0.0356
     13 C4        -26.1280   10.1760  -13.7390 C.3       1 SX3        -0.0232
     14 C5        -26.5810    9.2090  -12.6660 C.3       1 SX3        -0.0606
     15 C3        -27.2440   11.1310  -14.1370 C.3       1 SX3        -0.0442
     16 C7        -26.2000   11.3270  -16.4140 C.3       1 SX3         0.0356
     17 C2        -26.7800   12.0800  -15.2340 C.3       1 SX3        -0.0232
     18 C1        -27.9560   12.9430  -15.6860 C.3       1 SX3        -0.0606
     19 H1        -21.7037   10.5524  -15.3595 H         1 SX3         0.0663
     20 H2        -20.1485    6.5290  -15.3966 H         1 SX3         0.0644
     21 H3        -22.2222    5.7547  -16.5419 H         1 SX3         0.0535
     22 H4        -24.3363    6.2184  -17.5448 H         1 SX3         0.1755
     23 H5        -25.0320    7.8610  -17.5681 H         1 SX3         0.1755
     24 H6        -24.7780    8.7842  -14.6501 H         1 SX3         0.0524
     25 H7        -26.4638    8.7113  -15.2659 H         1 SX3         0.0524
     26 H8        -25.2876   10.7682  -13.3479 H         1 SX3         0.0318
     27 H9        -26.9273    9.7725  -11.7871 H         1 SX3         0.0233
     28 H10       -25.7403    8.5607  -12.3780 H         1 SX3         0.0233
     29 H11       -27.4046    8.5911  -13.0532 H         1 SX3         0.0233
     30 H12       -27.5470   11.7178  -13.2573 H         1 SX3         0.0272
     31 H13       -28.1027   10.5492  -14.5033 H         1 SX3         0.0272
     32 H14       -27.0378   10.9028  -16.9868 H         1 SX3         0.0524
     33 H15       -25.6567   12.0501  -17.0400 H         1 SX3         0.0524
     34 H16       -25.9976   12.7344  -14.8222 H         1 SX3         0.0318
     35 H17       -28.3676   13.4838  -14.8211 H         1 SX3         0.0233
     36 H18       -28.7357   12.3011  -16.1220 H         1 SX3         0.0233
     37 H19       -27.6118   13.6658  -16.4404 H         1 SX3         0.0233
@<TRIPOS>BOND
     1    1    2 1  
     2    2    3 ar 
     3    2    4 ar 
     4    3    8 ar 
     5    4    5 ar 
     6    5    6 ar 
     7    6    7 1  
     8    6    8 ar 
     9    8    9 1  
    10    9   10 2  
    11    9   11 am 
    12   11   12 1  
    13   11   16 1  
    14   12   13 1  
    15   13   14 1  
    16   13   15 1  
    17   15   17 1  
    18   16   17 1  
    19   17   18 1  
    20    3   19 1  
    21    4   20 1  
    22    5   21 1  
    23    7   22 1  
    24    7   23 1  
    25   12   24 1  
    26   12   25 1  
    27   13   26 1  
    28   14   27 1  
    29   14   28 1  
    30   14   29 1  
    31   15   30 1  
    32   15   31 1  
    33   16   32 1  
    34   16   33 1  
    35   17   34 1  
    36   18   35 1  
    37   18   36 1  
    38   18   37 1  
@<TRIPOS>SUBSTRUCTURE
     1 SX3         1

