### 
### Created by X-TOOL on Mon Sep 10 21:12:58 2018
### 

@<TRIPOS>MOLECULE
3cj3_ligand
   41    43     1     0     0
SMALL
GAST_HUCK


@<TRIPOS>ATOM
      1 CL1         9.9040   36.2100   78.0570 Cl        1 SX4        -0.0772
      2 C18        10.8610   34.7590   78.2920 C.ar      1 SX4         0.0413
      3 C17        12.1120   34.8730   78.9200 C.ar      1 SX4        -0.0546
      4 C16        12.9370   33.7640   79.1430 C.ar      1 SX4        -0.0682
      5 C15        12.5310   32.5000   78.7270 C.ar      1 SX4        -0.0684
      6 C14        11.2880   32.3570   78.1030 C.ar      1 SX4        -0.0596
      7 C13        10.4430   33.4700   77.8850 C.ar      1 SX4        -0.0267
      8 C12         9.1180   33.3040   77.1990 C.3       1 SX4         0.0047
      9 C11         9.1540   33.7130   75.7100 C.3       1 SX4         0.0538
     10 C10        10.1430   32.8830   74.8740 C.3       1 SX4        -0.0261
     11 C9          9.3650   31.6530   74.3830 C.3       1 SX4        -0.0304
     12 C8          7.9330   31.8920   74.8490 C.3       1 SX4         0.0336
     13 N2          7.8890   33.3220   75.1040 N.am      1 SX4        -0.2696
     14 C7          6.7430   34.0900   74.9350 C.2       1 SX4         0.2003
     15 O1          5.7170   33.6240   74.4050 O.2       1 SX4        -0.3919
     16 C6          6.7580   35.5130   75.3920 C.ar      1 SX4         0.0698
     17 C1          5.9490   35.9490   76.4730 C.ar      1 SX4         0.0599
     18 N1          5.0840   35.1030   77.1770 N.pl3     1 SX4        -0.3308
     19 C5          7.5850   36.4380   74.7160 C.ar      1 SX4        -0.0437
     20 C4          7.6120   37.7910   75.1020 C.ar      1 SX4         0.0047
     21 BR1         8.7110   39.0790   74.2100 Br        1 SX4        -0.0605
     22 C3          6.8070   38.2200   76.1650 C.ar      1 SX4        -0.0597
     23 C2          5.9860   37.3090   76.8440 C.ar      1 SX4        -0.0356
     24 H1         12.4498   35.8513   79.2425 H         1 SX4         0.0605
     25 H2         13.8921   33.8902   79.6398 H         1 SX4         0.0559
     26 H3         13.1694   31.6382   78.8844 H         1 SX4         0.0601
     27 H4         10.9656   31.3738   77.7799 H         1 SX4         0.0557
     28 H5          8.3748   33.9286   77.7162 H         1 SX4         0.0450
     29 H6          8.8189   32.2475   77.2652 H         1 SX4         0.0450
     30 H7          9.3528   34.7910   75.6180 H         1 SX4         0.0580
     31 H8         10.9972   32.5713   75.4930 H         1 SX4         0.0290
     32 H9         10.5056   33.4711   74.0180 H         1 SX4         0.0290
     33 H10         9.7703   30.7333   74.8300 H         1 SX4         0.0285
     34 H11         9.4090   31.5780   73.2865 H         1 SX4         0.0285
     35 H12         7.7185   31.3232   75.7657 H         1 SX4         0.0521
     36 H13         7.2134   31.6107   74.0661 H         1 SX4         0.0521
     37 H14         4.5197   35.4747   77.9543 H         1 SX4         0.1755
     38 H15         5.0119   34.1088   76.9177 H         1 SX4         0.1755
     39 H16         8.2045   36.1022   73.8923 H         1 SX4         0.0663
     40 H17         6.8190   39.2619   76.4641 H         1 SX4         0.0644
     41 H18         5.3704   37.6551   77.6664 H         1 SX4         0.0535
@<TRIPOS>BOND
     1    1    2 1  
     2    2    3 ar 
     3    2    7 ar 
     4    3    4 ar 
     5    4    5 ar 
     6    5    6 ar 
     7    6    7 ar 
     8    7    8 1  
     9    8    9 1  
    10    9   10 1  
    11    9   13 1  
    12   10   11 1  
    13   11   12 1  
    14   12   13 1  
    15   13   14 am 
    16   14   15 2  
    17   14   16 1  
    18   16   17 ar 
    19   16   19 ar 
    20   17   18 1  
    21   17   23 ar 
    22   19   20 ar 
    23   20   21 1  
    24   20   22 ar 
    25   22   23 ar 
    26    3   24 1  
    27    4   25 1  
    28    5   26 1  
    29    6   27 1  
    30    8   28 1  
    31    8   29 1  
    32    9   30 1  
    33   10   31 1  
    34   10   32 1  
    35   11   33 1  
    36   11   34 1  
    37   12   35 1  
    38   12   36 1  
    39   18   37 1  
    40   18   38 1  
    41   19   39 1  
    42   22   40 1  
    43   23   41 1  
@<TRIPOS>SUBSTRUCTURE
     1 SX4         1

