### 
### Created by X-TOOL on Mon Sep 10 21:12:58 2018
### 

@<TRIPOS>MOLECULE
3cj5_ligand
   60    62     1     0     0
SMALL
GAST_HUCK


@<TRIPOS>ATOM
      1 O3          4.0490   36.2850   79.7630 O.2       1 SX6        -0.3967
      2 C18         3.4170   35.2210   79.8290 C.2       1 SX6         0.1809
      3 N3          2.1550   35.1860   80.4080 N.am      1 SX6        -0.2687
      4 C22         1.4380   36.3480   80.9850 C.3       1 SX6         0.0573
      5 C21         0.5810   35.9860   82.2120 C.3       1 SX6         0.0681
      6 O4         -0.3200   34.9030   81.9100 O.3       1 SX6        -0.3758
      7 C20         0.3980   33.7270   81.4840 C.3       1 SX6         0.0681
      8 C19         1.2380   34.0280   80.2320 C.3       1 SX6         0.0573
      9 C17         3.9530   33.8970   79.2940 C.3       1 SX6         0.0548
     10 C16         5.4380   33.8940   78.9370 C.3       1 SX6         0.0607
     11 C15         5.7350   34.8110   77.7640 C.2       1 SX6         0.2091
     12 O2          5.0850   34.8090   76.7120 O.2       1 SX6        -0.3830
     13 N2          6.7970   35.6420   78.0490 N.am      1 SX6        -0.2270
     14 C14         7.2940   36.6130   77.1510 C.ar      1 SX6         0.0907
     15 C13         6.4080   37.4510   76.4550 C.ar      1 SX6        -0.0322
     16 C12         6.8910   38.4100   75.5600 C.ar      1 SX6        -0.0616
     17 C11         8.2690   38.5200   75.3750 C.ar      1 SX6         0.0024
     18 BR1         8.9710   39.7720   74.1750 Br        1 SX6        -0.0623
     19 C10         9.1700   37.7090   76.0390 C.ar      1 SX6        -0.0457
     20 C9          8.6940   36.7490   76.9290 C.ar      1 SX6         0.0727
     21 C8          9.7280   35.9310   77.6180 C.2       1 SX6         0.1984
     22 O1         10.4970   36.5350   78.3570 O.2       1 SX6        -0.3931
     23 N1          9.8500   34.5630   77.4540 N.am      1 SX6        -0.2745
     24 C6         10.8590   33.7750   78.1700 C.3       1 SX6         0.0356
     25 C4         11.7790   32.9980   77.2330 C.3       1 SX6        -0.0232
     26 C5         12.7690   32.1440   78.0290 C.3       1 SX6        -0.0606
     27 C3         10.9420   32.1540   76.2720 C.3       1 SX6        -0.0442
     28 C7          9.0940   33.8780   76.3820 C.3       1 SX6         0.0356
     29 C2          9.9550   33.0030   75.4640 C.3       1 SX6        -0.0232
     30 C1          9.0960   32.1430   74.5410 C.3       1 SX6        -0.0606
     31 H1          0.7798   36.7713   80.2120 H         1 SX6         0.0545
     32 H2          2.1802   37.1014   81.2874 H         1 SX6         0.0545
     33 H3         -0.0040   36.8669   82.5150 H         1 SX6         0.0580
     34 H4          1.2430   35.6839   83.0369 H         1 SX6         0.0580
     35 H5         -0.3220   32.9283   81.2525 H         1 SX6         0.0580
     36 H6          1.0639   33.3968   82.2949 H         1 SX6         0.0580
     37 H7          1.8394   33.1387   79.9920 H         1 SX6         0.0545
     38 H8          0.5558   34.2456   79.3970 H         1 SX6         0.0545
     39 H9          3.3846   33.6409   78.3878 H         1 SX6         0.0528
     40 H10         3.7859   33.1270   80.0616 H         1 SX6         0.0528
     41 H11         5.7394   32.8694   78.6737 H         1 SX6         0.0533
     42 H12         6.0152   34.2332   79.8098 H         1 SX6         0.0533
     43 H13         7.2404   35.5527   78.9409 H         1 SX6         0.2300
     44 H14         5.3400   37.3534   76.6131 H         1 SX6         0.0523
     45 H15         6.2078   39.0557   75.0202 H         1 SX6         0.0637
     46 H16        10.2350   37.8188   75.8691 H         1 SX6         0.0657
     47 H17        10.3439   33.0603   78.8287 H         1 SX6         0.0524
     48 H18        11.4716   34.4575   78.7773 H         1 SX6         0.0524
     49 H19        12.3575   33.7204   76.6385 H         1 SX6         0.0318
     50 H20        13.4205   31.5941   77.3339 H         1 SX6         0.0233
     51 H21        12.2155   31.4293   78.6558 H         1 SX6         0.0233
     52 H22        13.3825   32.7948   78.6693 H         1 SX6         0.0233
     53 H23        10.3765   31.4112   76.8537 H         1 SX6         0.0272
     54 H24        11.6175   31.6367   75.5748 H         1 SX6         0.0272
     55 H25         8.6007   34.6435   75.7650 H         1 SX6         0.0524
     56 H26         8.3321   33.2388   76.8520 H         1 SX6         0.0524
     57 H27        10.5463   33.6771   74.8269 H         1 SX6         0.0318
     58 H28         9.7469   31.5309   73.8994 H         1 SX6         0.0233
     59 H29         8.4686   32.7927   73.9132 H         1 SX6         0.0233
     60 H30         8.4536   31.4855   75.1451 H         1 SX6         0.0233
@<TRIPOS>BOND
     1    1    2 2  
     2    2    3 am 
     3    2    9 1  
     4    3    4 1  
     5    3    8 1  
     6    4    5 1  
     7    5    6 1  
     8    6    7 1  
     9    7    8 1  
    10    9   10 1  
    11   10   11 1  
    12   11   12 2  
    13   11   13 am 
    14   13   14 1  
    15   14   15 ar 
    16   14   20 ar 
    17   15   16 ar 
    18   16   17 ar 
    19   17   18 1  
    20   17   19 ar 
    21   19   20 ar 
    22   20   21 1  
    23   21   22 2  
    24   21   23 am 
    25   23   24 1  
    26   23   28 1  
    27   24   25 1  
    28   25   26 1  
    29   25   27 1  
    30   27   29 1  
    31   28   29 1  
    32   29   30 1  
    33    4   31 1  
    34    4   32 1  
    35    5   33 1  
    36    5   34 1  
    37    7   35 1  
    38    7   36 1  
    39    8   37 1  
    40    8   38 1  
    41    9   39 1  
    42    9   40 1  
    43   10   41 1  
    44   10   42 1  
    45   13   43 1  
    46   15   44 1  
    47   16   45 1  
    48   19   46 1  
    49   24   47 1  
    50   24   48 1  
    51   25   49 1  
    52   26   50 1  
    53   26   51 1  
    54   26   52 1  
    55   27   53 1  
    56   27   54 1  
    57   28   55 1  
    58   28   56 1  
    59   29   57 1  
    60   30   58 1  
    61   30   59 1  
    62   30   60 1  
@<TRIPOS>SUBSTRUCTURE
     1 SX6         1

