### 
### Created by X-TOOL on Mon Sep 10 21:12:58 2018
### 

@<TRIPOS>MOLECULE
3cjf_ligand
   52    55     1     0     0
SMALL
GAST_HUCK


@<TRIPOS>ATOM
      1 N1         15.3790   18.8480   17.9850 N.pl3     1 SAV        -0.2548
      2 N3         17.9870   15.1760   16.3690 N.pl3     1 SAV        -0.2560
      3 C4         16.3980   19.3970   18.7970 C.ar      1 SAV         0.0377
      4 C5         15.5220   17.6990   17.1860 C.ar      1 SAV         0.1926
      5 C6         14.5950   16.2570   15.7250 C.ar      1 SAV         0.0009
      6 C7         15.7470   15.5170   15.6700 C.ar      1 SAV        -0.0020
      7 C8         16.8080   15.9380   16.4310 C.ar      1 SAV         0.1337
      8 C10        19.7310   16.5750   17.3190 C.ar      1 SAV        -0.0368
      9 C13        22.2400   15.5990   19.9220 C.2       1 SAV         0.1323
     10 C15        20.5610   14.5650   18.8780 C.ar      1 SAV        -0.0476
     11 C17        16.4030   20.7610   19.0040 C.ar      1 SAV        -0.0287
     12 C20        18.3630   20.6010   20.3790 C.ar      1 SAV         0.1351
     13 C21        18.7170   21.7510   22.2890 C.3       1 SAV         0.0517
     14 C1         18.6690   17.6660   21.7500 C.3       1 SAV         0.0562
     15 O1         19.3400   18.4480   20.7550 O.3       1 SAV        -0.3306
     16 C2         18.3530   19.2350   20.1760 C.ar      1 SAV         0.1026
     17 C3         17.3840   18.6370   19.3980 C.ar      1 SAV        -0.0287
     18 N2         14.4490   17.3490   16.4680 N.ar      1 SAV        -0.2695
     19 C9         19.0810   15.3590   17.2550 C.ar      1 SAV         0.0637
     20 C11        20.7980   16.8180   18.1540 C.ar      1 SAV        -0.0520
     21 C12        21.2180   15.7770   18.9510 C.ar      1 SAV         0.0370
     22 C14        23.2350   16.5840   20.3940 C.3       1 SAV         0.0328
     23 N4         22.2240   14.3570   20.4270 N.pl3     1 SAV        -0.2585
     24 N5         21.2020   13.7550   19.7780 N.2       1 SAV        -0.3990
     25 C16        19.4950   14.3120   18.0490 C.ar      1 SAV        -0.0397
     26 N6         16.6880   17.0350   17.1810 N.ar      1 SAV        -0.2352
     27 C18        17.3710   21.3620   19.7860 C.ar      1 SAV         0.1026
     28 O2         17.3500   22.7350   19.9620 O.3       1 SAV        -0.3306
     29 C19        16.0040   23.1410   20.1480 C.3       1 SAV         0.0562
     30 O3         19.3740   21.1590   21.1630 O.3       1 SAV        -0.3368
     31 H1         14.4656   19.3239   17.9780 H         1 SAV         0.2147
     32 H2         18.0612   14.4480   15.6442 H         1 SAV         0.2161
     33 H3         13.7519   15.9320   15.1262 H         1 SAV         0.0848
     34 H4         15.8173   14.6318   15.0483 H         1 SAV         0.0582
     35 H5         19.3839   17.3787   16.6798 H         1 SAV         0.0537
     36 H6         15.6341   21.3720   18.5452 H         1 SAV         0.0346
     37 H7         19.4660   22.2113   22.9502 H         1 SAV         0.0564
     38 H8         18.1669   20.9754   22.8421 H         1 SAV         0.0564
     39 H9         18.0134   22.5211   21.9399 H         1 SAV         0.0564
     40 H10        19.3959   17.0124   22.2544 H         1 SAV         0.0572
     41 H11        17.8932   17.0506   21.2711 H         1 SAV         0.0572
     42 H12        18.2026   18.3344   22.4887 H         1 SAV         0.0572
     43 H13        17.3956   17.5623   19.2566 H         1 SAV         0.0346
     44 H14        21.2857   17.7857   18.1827 H         1 SAV         0.0602
     45 H15        23.8811   16.1178   21.1524 H         1 SAV         0.0589
     46 H16        22.7155   17.4473   20.8355 H         1 SAV         0.0589
     47 H17        23.8492   16.9202   19.5456 H         1 SAV         0.0589
     48 H18        22.8458   13.9549   21.1430 H         1 SAV         0.2719
     49 H19        19.0076   13.3441   18.0213 H         1 SAV         0.0533
     50 H20        15.9661   24.2312   20.2899 H         1 SAV         0.0572
     51 H21        15.5896   22.6411   21.0359 H         1 SAV         0.0572
     52 H22        15.4123   22.8657   19.2625 H         1 SAV         0.0572
@<TRIPOS>BOND
     1    1    3 1  
     2    4    1 1  
     3    2    7 1  
     4   19    2 1  
     5    3   11 ar 
     6    3   17 ar 
     7    4   18 ar 
     8   26    4 ar 
     9    6    5 ar 
    10    5   18 ar 
    11    7    6 ar 
    12    7   26 ar 
    13   19    8 ar 
    14    8   20 ar 
    15   21    9 2  
    16    9   22 1  
    17    9   23 1  
    18   10   21 ar 
    19   10   24 2  
    20   25   10 ar 
    21   11   27 ar 
    22   16   12 ar 
    23   27   12 ar 
    24   12   30 1  
    25   30   13 1  
    26   15   14 1  
    27   16   15 1  
    28   17   16 ar 
    29   19   25 ar 
    30   20   21 ar 
    31   23   24 1  
    32   27   28 1  
    33   28   29 1  
    34    1   31 1  
    35    2   32 1  
    36    5   33 1  
    37    6   34 1  
    38    8   35 1  
    39   11   36 1  
    40   13   37 1  
    41   13   38 1  
    42   13   39 1  
    43   14   40 1  
    44   14   41 1  
    45   14   42 1  
    46   17   43 1  
    47   20   44 1  
    48   22   45 1  
    49   22   46 1  
    50   22   47 1  
    51   23   48 1  
    52   25   49 1  
    53   29   50 1  
    54   29   51 1  
    55   29   52 1  
@<TRIPOS>SUBSTRUCTURE
     1 SAV         1

