### 
### Created by X-TOOL on Mon Sep 10 21:12:57 2018
### 

@<TRIPOS>MOLECULE
3cjo_ligand
   62    65     1     0     0
SMALL
GAST_HUCK


@<TRIPOS>ATOM
      1 C28        12.6510   21.8440  109.7570 C.3       1 K30        -0.0430
      2 C22        17.9100   18.4110  110.2190 C.3       1 K30         0.0233
      3 C18        18.1600   13.0720  113.8660 C.ar      1 K30        -0.0474
      4 C17        18.7830   14.1930  113.3090 C.ar      1 K30        -0.0476
      5 C19        17.3260   12.3420  113.0510 C.ar      1 K30        -0.0476
      6 C16        18.5390   14.4640  111.9160 C.ar      1 K30        -0.0609
      7 C20        17.0570   12.6660  111.6550 C.ar      1 K30        -0.0609
      8 C7         22.5730   15.3840  105.3700 C.ar      1 K30        -0.0127
      9 C6         22.5850   14.2540  106.1840 C.ar      1 K30        -0.0089
     10 C9         20.5240   16.1590  106.4350 C.ar      1 K30         0.0037
     11 C27        15.2570   19.3220  111.2690 C.3       1 K30         0.0134
     12 C26        13.9770   20.1730  111.1400 C.3       1 K30        -0.0298
     13 C2         18.9250   13.8490  108.9320 C.2       1 K30        -0.0892
     14 C24        13.9780   20.0640  108.6330 C.3       1 K30         0.0019
     15 C          18.4480   15.9770  108.1590 C.3       1 K30         0.0828
     16 C14        16.1590   13.8360  108.8560 C.3       1 K30         0.0152
     17 C15        17.6920   13.7260  111.0500 C.ar      1 K30        -0.0789
     18 C8         21.5310   16.3250  105.5060 C.ar      1 K30         0.1465
     19 C5         21.5310   14.0200  107.0960 C.ar      1 K30         0.1668
     20 C4         20.4900   14.9560  107.2490 C.ar      1 K30         0.0706
     21 C12        15.4460   18.5370  109.9370 C.3       1 K30         0.0858
     22 C3         19.3600   14.8260  108.1140 C.2       1 K30         0.0248
     23 C23        15.3770   19.4550  108.7070 C.3       1 K30         0.1631
     24 C10        16.6340   16.4090  110.0230 C.2       1 K30         0.2493
     25 C1         17.5120   14.1540  109.4980 C.3       1 K30         0.0348
     26 N25        13.9120   20.9790  109.8360 N.4       1 K30         0.2352
     27 N          17.5520   15.6400  109.2820 N.am      1 K30        -0.2994
     28 N11        16.6500   17.7640  109.9710 N.am      1 K30        -0.2572
     29 O21        15.9930   12.4730  108.6590 O.3       1 K30        -0.4112
     30 O          15.6870   15.8390  110.6690 O.2       1 K30        -0.4017
     31 F13        21.5750   17.4130  104.7590 F         1 K30        -0.1820
     32 F          21.6310   12.8900  107.7890 F         1 K30        -0.1669
     33 F29        16.2400   20.4850  108.9080 F         1 K30        -0.2375
     34 H1         12.6063   22.5078  110.6330 H         1 K30         0.0778
     35 H2         11.7622   21.1961  109.7422 H         1 K30         0.0778
     36 H3         12.6786   22.4496  108.8391 H         1 K30         0.0778
     37 H4         17.7828   19.5012  110.1467 H         1 K30         0.0483
     38 H5         18.6465   18.0775  109.4732 H         1 K30         0.0483
     39 H6         18.2645   18.1493  111.2269 H         1 K30         0.0483
     40 H7         18.3275   12.7893  114.8990 H         1 K30         0.0740
     41 H8         19.4250   14.8334  113.9030 H         1 K30         0.0658
     42 H9         16.8381   11.4710  113.4733 H         1 K30         0.0658
     43 H10        19.0534   15.3162  111.4867 H         1 K30         0.0728
     44 H11        16.3517   12.0675  111.0899 H         1 K30         0.0728
     45 H12        23.3576   15.5390  104.6383 H         1 K30         0.0739
     46 H13        23.4069   13.5504  106.1177 H         1 K30         0.0643
     47 H14        19.7631   16.9214  106.5566 H         1 K30         0.0741
     48 H15        15.1542   18.6169  112.1070 H         1 K30         0.0340
     49 H16        16.1243   19.9755  111.4439 H         1 K30         0.0340
     50 H17        13.9376   20.8746  111.9862 H         1 K30         0.0815
     51 H18        13.1063   19.5019  111.1792 H         1 K30         0.0815
     52 H19        19.4960   12.9523  109.1683 H         1 K30         0.0393
     53 H20        13.2073   19.2815  108.6944 H         1 K30         0.0844
     54 H21        13.8486   20.6338  107.7011 H         1 K30         0.0844
     55 H22        17.8855   16.0740  107.2187 H         1 K30         0.0843
     56 H23        18.9966   16.9098  108.3560 H         1 K30         0.0843
     57 H24        16.0966   14.3470  107.8839 H         1 K30         0.0372
     58 H25        15.3572   14.2014  109.5144 H         1 K30         0.0372
     59 H26        14.6079   17.8293  109.8549 H         1 K30         0.0588
     60 H27        15.6199   18.9017  107.7879 H         1 K30         0.0729
     61 H28        14.7125   21.5911  109.8118 H         1 K30         0.2031
     62 H29        15.1457   12.3127  108.2604 H         1 K30         0.2072
@<TRIPOS>BOND
     1   26    1 1  
     2   28    2 1  
     3    4    3 ar 
     4    5    3 ar 
     5    6    4 ar 
     6    7    5 ar 
     7   17    6 ar 
     8   17    7 ar 
     9    9    8 ar 
    10   18    8 ar 
    11   19    9 ar 
    12   10   18 ar 
    13   20   10 ar 
    14   11   12 1  
    15   21   11 1  
    16   12   26 1  
    17   22   13 2  
    18   13   25 1  
    19   23   14 1  
    20   14   26 1  
    21   15   22 1  
    22   27   15 1  
    23   25   16 1  
    24   16   29 1  
    25   25   17 1  
    26   18   31 1  
    27   20   19 ar 
    28   19   32 1  
    29   22   20 1  
    30   21   23 1  
    31   28   21 1  
    32   23   33 1  
    33   24   27 am 
    34   24   28 am 
    35   24   30 2  
    36   25   27 1  
    37    1   34 1  
    38    1   35 1  
    39    1   36 1  
    40    2   37 1  
    41    2   38 1  
    42    2   39 1  
    43    3   40 1  
    44    4   41 1  
    45    5   42 1  
    46    6   43 1  
    47    7   44 1  
    48    8   45 1  
    49    9   46 1  
    50   10   47 1  
    51   11   48 1  
    52   11   49 1  
    53   12   50 1  
    54   12   51 1  
    55   13   52 1  
    56   14   53 1  
    57   14   54 1  
    58   15   55 1  
    59   15   56 1  
    60   16   57 1  
    61   16   58 1  
    62   21   59 1  
    63   23   60 1  
    64   26   61 1  
    65   29   62 1  
@<TRIPOS>SUBSTRUCTURE
     1 K30         1

