### 
### Created by X-TOOL on Mon Sep 10 21:12:57 2018
### 

@<TRIPOS>MOLECULE
3ckb_ligand
   66    68     1     0     0
SMALL
GAST_HUCK


@<TRIPOS>ATOM
      1 C1A        14.0510  -20.4220   -3.0880 C.3       1 MLR         0.1854
      2 C2A        13.6190  -20.1010   -4.5380 C.3       1 MLR         0.1339
      3 C3A        14.9150  -19.8690   -5.3310 C.3       1 MLR         0.1144
      4 C4A        15.6680  -18.6750   -4.7060 C.3       1 MLR         0.1184
      5 C5A        15.9730  -19.0330   -3.2200 C.3       1 MLR         0.1134
      6 C6A        16.6810  -17.8440   -2.5610 C.3       1 MLR         0.0730
      7 O1X        12.9260  -20.7760   -2.2820 O.3       1 MLR        -0.3649
      8 O2A        12.9360  -21.2220   -5.1020 O.3       1 MLR        -0.3841
      9 O3A        14.5970  -19.5470   -6.6870 O.3       1 MLR        -0.3864
     10 O4A        16.9130  -18.4880   -5.4290 O.3       1 MLR        -0.3401
     11 O5A        14.7320  -19.2760   -2.5040 O.3       1 MLR        -0.3407
     12 O6A        17.0500  -18.1980   -1.2160 O.3       1 MLR        -0.3924
     13 C1B        16.9690  -17.2440   -6.1700 C.3       1 MLR         0.1884
     14 C2B        17.7510  -17.5110   -7.4810 C.3       1 MLR         0.1341
     15 C3B        19.1350  -18.0690   -7.0840 C.3       1 MLR         0.1144
     16 C4B        19.8630  -17.0170   -6.2350 C.3       1 MLR         0.1184
     17 C5B        18.9950  -16.7230   -4.9700 C.3       1 MLR         0.1134
     18 C6B        19.6790  -15.6560   -4.0910 C.3       1 MLR         0.0730
     19 O2B        17.0610  -18.4950   -8.2700 O.3       1 MLR        -0.3841
     20 O3B        19.9070  -18.3440   -8.2580 O.3       1 MLR        -0.3864
     21 O4B        21.1450  -17.5440   -5.8400 O.3       1 MLR        -0.3401
     22 O5B        17.6730  -16.2360   -5.3680 O.3       1 MLR        -0.3405
     23 O6B        19.7890  -14.4200   -4.7950 O.3       1 MLR        -0.3924
     24 C1C        22.2240  -16.6980   -6.3050 C.3       1 MLR         0.1884
     25 C2C        23.3050  -17.5570   -7.0240 C.3       1 MLR         0.1341
     26 C3C        23.8170  -18.6120   -6.0190 C.3       1 MLR         0.1141
     27 C4C        24.4200  -17.8730   -4.8080 C.3       1 MLR         0.1119
     28 C5C        23.3150  -16.9950   -4.1710 C.3       1 MLR         0.1130
     29 C6C        23.9150  -16.2290   -2.9920 C.3       1 MLR         0.0730
     30 O2C        22.7310  -18.2150   -8.1600 O.3       1 MLR        -0.3841
     31 O3C        24.8210  -19.4290   -6.6340 O.3       1 MLR        -0.3864
     32 O4C        24.8990  -18.8370   -3.8500 O.3       1 MLR        -0.3865
     33 O5C        22.8190  -16.0250   -5.1520 O.3       1 MLR        -0.3405
     34 O6C        22.8760  -15.9080   -2.0650 O.3       1 MLR        -0.3924
     35 H1         14.7471  -21.2734   -3.1115 H         1 MLR         0.0935
     36 H2         12.9752  -19.2095   -4.5644 H         1 MLR         0.0671
     37 H3         15.5421  -20.7721   -5.2971 H         1 MLR         0.0648
     38 H4         15.0572  -17.7618   -4.7609 H         1 MLR         0.0651
     39 H5         16.6125  -19.9269   -3.1757 H         1 MLR         0.0647
     40 H6         16.0033  -16.9778   -2.5404 H         1 MLR         0.0584
     41 H7         17.5841  -17.5895   -3.1351 H         1 MLR         0.0584
     42 H8         12.3256  -20.0411   -2.2380 H         1 MLR         0.2126
     43 H9         12.1319  -21.3765   -4.6204 H         1 MLR         0.2101
     44 H10        15.3991  -19.3815   -7.1685 H         1 MLR         0.2100
     45 H11        16.2689  -18.4180   -0.7220 H         1 MLR         0.2095
     46 H12        15.9525  -16.8929   -6.4010 H         1 MLR         0.0938
     47 H13        17.8618  -16.5795   -8.0554 H         1 MLR         0.0671
     48 H14        19.0079  -18.9941   -6.5026 H         1 MLR         0.0648
     49 H15        20.0032  -16.0933   -6.8156 H         1 MLR         0.0651
     50 H16        18.8803  -17.6509   -4.3905 H         1 MLR         0.0647
     51 H17        20.6848  -16.0055   -3.8152 H         1 MLR         0.0584
     52 H18        19.0820  -15.5012   -3.1802 H         1 MLR         0.0584
     53 H19        17.5674  -18.6849   -9.0511 H         1 MLR         0.2101
     54 H20        20.7609  -18.6741   -8.0040 H         1 MLR         0.2100
     55 H21        18.9216  -14.1138   -5.0324 H         1 MLR         0.2095
     56 H22        21.8281  -15.9489   -7.0065 H         1 MLR         0.0938
     57 H23        24.1363  -16.9153   -7.3514 H         1 MLR         0.0671
     58 H24        22.9810  -19.2463   -5.6892 H         1 MLR         0.0648
     59 H25        25.2548  -17.2368   -5.1371 H         1 MLR         0.0647
     60 H26        22.4874  -17.6317   -3.8252 H         1 MLR         0.0647
     61 H27        24.3838  -15.3025   -3.3550 H         1 MLR         0.0584
     62 H28        24.6724  -16.8527   -2.4947 H         1 MLR         0.0584
     63 H29        22.0062  -18.7597   -7.8763 H         1 MLR         0.2101
     64 H30        25.1408  -20.0640   -6.0038 H         1 MLR         0.2100
     65 H31        25.2567  -18.3822   -3.0965 H         1 MLR         0.2100
     66 H32        23.2446  -15.4317   -1.3304 H         1 MLR         0.2095
@<TRIPOS>BOND
     1    1    2 1  
     2    1    7 1  
     3    1   11 1  
     4    2    3 1  
     5    2    8 1  
     6    3    4 1  
     7    3    9 1  
     8    4    5 1  
     9    4   10 1  
    10    5    6 1  
    11    5   11 1  
    12    6   12 1  
    13   10   13 1  
    14   13   14 1  
    15   13   22 1  
    16   14   15 1  
    17   14   19 1  
    18   15   16 1  
    19   15   20 1  
    20   16   17 1  
    21   16   21 1  
    22   17   18 1  
    23   17   22 1  
    24   18   23 1  
    25   21   24 1  
    26   24   25 1  
    27   24   33 1  
    28   25   26 1  
    29   25   30 1  
    30   26   27 1  
    31   26   31 1  
    32   27   28 1  
    33   27   32 1  
    34   28   29 1  
    35   28   33 1  
    36   29   34 1  
    37    1   35 1  
    38    2   36 1  
    39    3   37 1  
    40    4   38 1  
    41    5   39 1  
    42    6   40 1  
    43    6   41 1  
    44    7   42 1  
    45    8   43 1  
    46    9   44 1  
    47   12   45 1  
    48   13   46 1  
    49   14   47 1  
    50   15   48 1  
    51   16   49 1  
    52   17   50 1  
    53   18   51 1  
    54   18   52 1  
    55   19   53 1  
    56   20   54 1  
    57   23   55 1  
    58   24   56 1  
    59   25   57 1  
    60   26   58 1  
    61   27   59 1  
    62   28   60 1  
    63   29   61 1  
    64   29   62 1  
    65   30   63 1  
    66   31   64 1  
    67   32   65 1  
    68   34   66 1  
@<TRIPOS>SUBSTRUCTURE
     1 MLR         1

