### 
### Created by X-TOOL on Mon Sep 10 21:12:59 2018
### 

@<TRIPOS>MOLECULE
3ckp_ligand
   80    83     1     0     0
SMALL
GAST_HUCK


@<TRIPOS>ATOM
      1 C          30.0980    7.4040   10.4860 C.2       1 012         0.2039
      2 O          31.2330    7.8780   10.5790 O.2       1 012        -0.3945
      3 N          29.7600    6.1170   10.1350 N.am      1 012        -0.2773
      4 CA         30.7170    5.0530    9.8010 C.3       1 012         0.0823
      5 CB         30.7750    4.0590   10.9900 C.3       1 012         0.0066
      6 CG         31.1350    4.7580   12.2880 C.ar      1 012        -0.0408
      7 CD1        30.1780    4.8860   13.3290 C.ar      1 012        -0.0603
      8 CD2        32.4210    5.3110   12.4870 C.ar      1 012        -0.0603
      9 CE1        30.5090    5.5510   14.5360 C.ar      1 012        -0.0686
     10 CE2        32.7480    5.9770   13.6930 C.ar      1 012        -0.0686
     11 CZ         31.7900    6.0980   14.7190 C.ar      1 012        -0.0687
     12 C1         30.2980    4.3650    8.4910 C.3       1 012         0.1193
     13 OG         31.2340    3.3520    8.1920 O.3       1 012        -0.3841
     14 C2         30.2440    5.3620    7.3470 C.3       1 012        -0.0033
     15 N2         30.3100    4.7080    6.0210 N.4       1 012         0.2408
     16 C20        30.7520    5.5760    4.8970 C.3       1 012        -0.0028
     17 C21        32.1790    6.0310    5.0800 C.ar      1 012        -0.0106
     18 C22        32.4880    7.3870    5.3740 C.ar      1 012        -0.0686
     19 C23        33.8310    7.7880    5.5590 C.ar      1 012        -0.0800
     20 C24        34.8710    6.8380    5.4520 C.ar      1 012        -0.0513
     21 C25        34.5820    5.4650    5.1540 C.ar      1 012         0.0328
     22 C26        33.2270    5.0890    4.9730 C.ar      1 012        -0.0386
     23 N27        35.6070    4.5110    5.0460 N.pl3     1 012        -0.3163
     24 C28        36.9770    4.8310    5.4710 C.3       1 012         0.0150
     25 C29        35.3430    3.1690    4.5060 C.3       1 012         0.0150
     26 C30        28.8850    8.2450   10.8020 C.3       1 012         0.1512
     27 N31        27.6720    7.6940   10.2230 N.am      1 012        -0.2496
     28 C32        26.7350    8.1760   11.1400 C.2       1 012         0.2643
     29 O33        25.5470    8.0700   10.9060 O.2       1 012        -0.4004
     30 N34        27.2330    8.7890   12.3170 N.am      1 012        -0.2438
     31 C35        28.6070    8.3310   12.2940 C.3       1 012         0.0764
     32 C36        26.4440    8.5530   13.5670 C.3       1 012         0.0656
     33 C41        26.5700    7.2330   14.2980 C.ar      1 012        -0.0299
     34 C42        26.0010    6.0550   13.7610 C.ar      1 012        -0.0304
     35 C43        26.0970    4.8190   14.4290 C.ar      1 012         0.0841
     36 C44        26.7840    4.7610   15.6760 C.ar      1 012        -0.0401
     37 C45        27.3580    5.9310   16.2310 C.ar      1 012        -0.0771
     38 C46        27.2510    7.1620   15.5460 C.ar      1 012        -0.0695
     39 O47        25.4910    3.7040   13.8250 O.3       1 012        -0.3230
     40 C48        26.3930    2.7880   13.2400 C.3       1 012         0.0592
     41 H1         28.7871    5.8879   10.1049 H         1 012         0.1857
     42 H2         31.7146    5.4943    9.6593 H         1 012         0.0606
     43 H3         31.5332    3.2912   10.7763 H         1 012         0.0449
     44 H4         29.7908    3.5809   11.1035 H         1 012         0.0449
     45 H5         29.1849    4.4712   13.1994 H         1 012         0.0557
     46 H6         33.1670    5.2239   11.7054 H         1 012         0.0557
     47 H7         29.7689    5.6381   15.3232 H         1 012         0.0599
     48 H8         33.7390    6.3953   13.8274 H         1 012         0.0599
     49 H9         32.0393    6.6089   15.6420 H         1 012         0.0559
     50 H10        29.3023    3.9161    8.6216 H         1 012         0.0672
     51 H11        31.2495    2.7180    8.8993 H         1 012         0.2101
     52 H12        31.0940    6.0538    7.4417 H         1 012         0.0840
     53 H13        29.3024    5.9265    7.4153 H         1 012         0.0840
     54 H14        29.3899    4.3601    5.8007 H         1 012         0.2029
     55 H15        30.9542    3.9356    6.0880 H         1 012         0.2029
     56 H16        30.0983    6.4594    4.8487 H         1 012         0.0978
     57 H17        30.6746    5.0107    3.9566 H         1 012         0.0978
     58 H18        31.6906    8.1166    5.4567 H         1 012         0.0449
     59 H19        34.0624    8.8231    5.7827 H         1 012         0.0566
     60 H20        35.8990    7.1501    5.5967 H         1 012         0.0459
     61 H21        32.9895    4.0557    4.7475 H         1 012         0.0452
     62 H22        37.6253    3.9578    5.3064 H         1 012         0.0477
     63 H23        36.9779    5.0921    6.5396 H         1 012         0.0477
     64 H24        37.3532    5.6826    4.8851 H         1 012         0.0477
     65 H25        34.2801    3.0853    4.2352 H         1 012         0.0477
     66 H26        35.5882    2.4130    5.2665 H         1 012         0.0477
     67 H27        35.9631    3.0048    3.6124 H         1 012         0.0477
     68 H28        29.0571    9.2555   10.4029 H         1 012         0.0817
     69 H29        27.5447    7.1326    9.4053 H         1 012         0.1878
     70 H30        29.2771    9.0521   12.7848 H         1 012         0.0570
     71 H31        28.7090    7.3481   12.7771 H         1 012         0.0570
     72 H32        25.3831    8.6698   13.3009 H         1 012         0.0681
     73 H33        26.7323    9.3403   14.2791 H         1 012         0.0681
     74 H34        25.4785    6.1046   12.8125 H         1 012         0.0479
     75 H35        26.8678    3.8171   16.2024 H         1 012         0.0486
     76 H36        27.8789    5.8819   17.1804 H         1 012         0.0572
     77 H37        27.6896    8.0567   15.9728 H         1 012         0.0465
     78 H38        25.8311    1.9536   12.7949 H         1 012         0.0577
     79 H39        27.0744    2.4007   14.0118 H         1 012         0.0577
     80 H40        26.9759    3.2962   12.4577 H         1 012         0.0577
@<TRIPOS>BOND
     1    1    2 2  
     2    1    3 am 
     3    1   26 1  
     4    3    4 1  
     5    4    5 1  
     6    4   12 1  
     7    5    6 1  
     8    6    7 ar 
     9    6    8 ar 
    10    7    9 ar 
    11    8   10 ar 
    12    9   11 ar 
    13   10   11 ar 
    14   12   13 1  
    15   12   14 1  
    16   14   15 1  
    17   15   16 1  
    18   16   17 1  
    19   17   18 ar 
    20   17   22 ar 
    21   18   19 ar 
    22   19   20 ar 
    23   20   21 ar 
    24   21   22 ar 
    25   21   23 1  
    26   23   24 1  
    27   23   25 1  
    28   26   27 1  
    29   26   31 1  
    30   27   28 am 
    31   28   29 2  
    32   28   30 am 
    33   30   31 1  
    34   30   32 1  
    35   32   33 1  
    36   33   34 ar 
    37   33   38 ar 
    38   34   35 ar 
    39   35   36 ar 
    40   35   39 1  
    41   36   37 ar 
    42   37   38 ar 
    43   39   40 1  
    44    3   41 1  
    45    4   42 1  
    46    5   43 1  
    47    5   44 1  
    48    7   45 1  
    49    8   46 1  
    50    9   47 1  
    51   10   48 1  
    52   11   49 1  
    53   12   50 1  
    54   13   51 1  
    55   14   52 1  
    56   14   53 1  
    57   15   54 1  
    58   15   55 1  
    59   16   56 1  
    60   16   57 1  
    61   18   58 1  
    62   19   59 1  
    63   20   60 1  
    64   22   61 1  
    65   24   62 1  
    66   24   63 1  
    67   24   64 1  
    68   25   65 1  
    69   25   66 1  
    70   25   67 1  
    71   26   68 1  
    72   27   69 1  
    73   31   70 1  
    74   31   71 1  
    75   32   72 1  
    76   32   73 1  
    77   34   74 1  
    78   36   75 1  
    79   37   76 1  
    80   38   77 1  
    81   40   78 1  
    82   40   79 1  
    83   40   80 1  
@<TRIPOS>SUBSTRUCTURE
     1 012         1

