### 
### Created by X-TOOL on Mon Sep 10 21:12:59 2018
### 

@<TRIPOS>MOLECULE
3ckr_ligand
   89    93     1     0     0
SMALL
GAST_HUCK


@<TRIPOS>ATOM
      1 C          30.0750    7.2670   10.4160 C.2       1 009         0.2286
      2 O          31.2130    7.7240   10.2530 O.2       1 009        -0.3418
      3 N          29.7550    5.9380   10.2410 N.am      1 009        -0.2762
      4 CA         30.7420    4.8820    9.8460 C.3       1 009         0.0824
      5 CB         30.7450    3.8170   10.9810 C.3       1 009         0.0067
      6 CG         31.1010    4.4780   12.2840 C.ar      1 009        -0.0407
      7 CD1        30.2390    4.3980   13.3920 C.ar      1 009        -0.0603
      8 CD2        32.3120    5.2140   12.4050 C.ar      1 009        -0.0603
      9 CE1        30.5720    5.0370   14.5990 C.ar      1 009        -0.0686
     10 CE2        32.6460    5.8570   13.6140 C.ar      1 009        -0.0686
     11 CZ         31.7690    5.7660   14.7150 C.ar      1 009        -0.0687
     12 C1         30.3740    4.2860    8.4780 C.3       1 009         0.1194
     13 OG         31.3370    3.2860    8.1800 O.3       1 009        -0.3840
     14 C2         30.4340    5.3440    7.3850 C.3       1 009        -0.0033
     15 N2         30.7250    4.7130    6.0840 N.4       1 009         0.2408
     16 C20        30.8860    5.6510    4.9620 C.3       1 009        -0.0028
     17 C21        32.3180    6.1020    4.9600 C.ar      1 009        -0.0106
     18 C22        32.6610    7.4690    5.0770 C.ar      1 009        -0.0686
     19 C23        34.0240    7.8610    5.0930 C.ar      1 009        -0.0800
     20 C24        35.0530    6.8790    4.9940 C.ar      1 009        -0.0513
     21 C25        34.7220    5.4910    4.8770 C.ar      1 009         0.0328
     22 C26        33.3500    5.1250    4.8620 C.ar      1 009        -0.0386
     23 N27        35.7150    4.5180    4.7820 N.pl3     1 009        -0.3163
     24 C28        36.5760    4.2390    5.9260 C.3       1 009         0.0150
     25 C29        35.9040    3.7610    3.5430 C.3       1 009         0.0150
     26 C30        28.8570    8.1750   10.8900 C.3       1 009         0.1627
     27 N31        27.6470    7.7960   10.1460 N.am      1 009        -0.2584
     28 C32        26.6030    7.8620   11.0010 C.2       1 009         0.2611
     29 O33        25.4340    7.6190   10.7000 O.2       1 009        -0.4006
     30 N34        26.9820    8.2750   12.3200 N.am      1 009        -0.2467
     31 C35        28.4130    7.9020   12.3390 C.3       1 009         0.0712
     32 C36        26.0920    7.8200   13.4500 C.3       1 009         0.0677
     33 C41        26.4380    6.5430   14.1810 C.ar      1 009        -0.0210
     34 C42        26.1090    5.2790   13.6300 C.ar      1 009        -0.0584
     35 C43        27.1020    6.5990   15.4380 C.ar      1 009        -0.0584
     36 C44        27.4350    5.4120   16.1280 C.ar      1 009        -0.0685
     37 C45        26.4390    4.0930   14.3140 C.ar      1 009        -0.0685
     38 C46        27.1070    4.1590   15.5660 C.ar      1 009        -0.0687
     39 C51        29.2240    9.7020   10.6070 C.3       1 009         0.0158
     40 C52        27.6330   12.3850   12.9470 C.ar      1 009        -0.0686
     41 C53        26.5010   12.7820   12.1860 C.ar      1 009        -0.0687
     42 C54        26.2580   12.1950   10.9180 C.ar      1 009        -0.0686
     43 C55        27.1350   11.2050   10.3980 C.ar      1 009        -0.0604
     44 C56        28.2750   10.7870   11.1460 C.ar      1 009        -0.0415
     45 C57        28.5140   11.3950   12.4310 C.ar      1 009        -0.0604
     46 H1         28.8052    5.6612   10.3867 H         1 009         0.1864
     47 H2         31.7447    5.3279    9.7703 H         1 009         0.0608
     48 H3         31.4856    3.0370   10.7507 H         1 009         0.0449
     49 H4         29.7465    3.3625   11.0607 H         1 009         0.0449
     50 H5         29.3125    3.8405   13.3150 H         1 009         0.0557
     51 H6         32.9854    5.2812   11.5582 H         1 009         0.0557
     52 H7         29.9007    4.9673   15.4472 H         1 009         0.0599
     53 H8         33.5702    6.4174   13.6971 H         1 009         0.0599
     54 H9         32.0173    6.2571   15.6489 H         1 009         0.0559
     55 H10        29.3650    3.8499    8.5182 H         1 009         0.0672
     56 H11        31.3147    2.6159    8.8530 H         1 009         0.2101
     57 H12        31.2266    6.0686    7.6232 H         1 009         0.0840
     58 H13        29.4664    5.8642    7.3287 H         1 009         0.0840
     59 H14        29.9660    4.0877    5.8627 H         1 009         0.2029
     60 H15        31.5790    4.1856    6.1760 H         1 009         0.2029
     61 H16        30.2192    6.5156    5.0953 H         1 009         0.0978
     62 H17        30.6485    5.1476    4.0133 H         1 009         0.0978
     63 H18        31.8813    8.2181    5.1545 H         1 009         0.0449
     64 H19        34.2840    8.9097    5.1807 H         1 009         0.0566
     65 H20        36.0927    7.1853    5.0074 H         1 009         0.0459
     66 H21        33.0819    4.0784    4.7740 H         1 009         0.0452
     67 H22        37.2921    3.4470    5.6614 H         1 009         0.0477
     68 H23        35.9609    3.9081    6.7758 H         1 009         0.0477
     69 H24        37.1243    5.1513    6.2034 H         1 009         0.0477
     70 H25        35.1748    4.0990    2.7920 H         1 009         0.0477
     71 H26        35.7556    2.6893    3.7418 H         1 009         0.0477
     72 H27        36.9235    3.9260    3.1644 H         1 009         0.0477
     73 H28        27.6044    7.5362    9.1813 H         1 009         0.1835
     74 H29        28.9753    8.5254   13.0497 H         1 009         0.0535
     75 H30        28.5423    6.8412   12.5997 H         1 009         0.0535
     76 H31        25.0820    7.6907   13.0340 H         1 009         0.0683
     77 H32        26.0802    8.6271   14.1973 H         1 009         0.0683
     78 H33        25.5995    5.2249   12.6748 H         1 009         0.0557
     79 H34        27.3546    7.5606   15.8700 H         1 009         0.0557
     80 H35        27.9406    5.4631   17.0855 H         1 009         0.0599
     81 H36        26.1835    3.1306   13.8855 H         1 009         0.0599
     82 H37        27.3652    3.2462   16.0905 H         1 009         0.0559
     83 H38        29.2781    9.8282    9.5156 H         1 009         0.0439
     84 H39        30.2150    9.8868   11.0471 H         1 009         0.0439
     85 H40        27.8241   12.8339   13.9150 H         1 009         0.0599
     86 H41        25.8231   13.5334   12.5744 H         1 009         0.0559
     87 H42        25.3949   12.5045   10.3398 H         1 009         0.0599
     88 H43        26.9363   10.7651    9.4274 H         1 009         0.0557
     89 H44        29.3777   11.0932   13.0124 H         1 009         0.0557
@<TRIPOS>BOND
     1    1    2 2  
     2    1    3 am 
     3   26    1 1  
     4    3    4 1  
     5    4    5 1  
     6    4   12 1  
     7    5    6 1  
     8    6    7 ar 
     9    6    8 ar 
    10    7    9 ar 
    11    8   10 ar 
    12    9   11 ar 
    13   10   11 ar 
    14   12   13 1  
    15   12   14 1  
    16   14   15 1  
    17   15   16 1  
    18   16   17 1  
    19   17   18 ar 
    20   17   22 ar 
    21   18   19 ar 
    22   19   20 ar 
    23   21   20 ar 
    24   22   21 ar 
    25   21   23 1  
    26   23   24 1  
    27   23   25 1  
    28   26   27 1  
    29   26   31 1  
    30   39   26 1  
    31   27   28 am 
    32   28   29 2  
    33   30   28 am 
    34   31   30 1  
    35   30   32 1  
    36   32   33 1  
    37   33   34 ar 
    38   33   35 ar 
    39   34   37 ar 
    40   35   36 ar 
    41   36   38 ar 
    42   37   38 ar 
    43   44   39 1  
    44   41   40 ar 
    45   40   45 ar 
    46   42   41 ar 
    47   43   42 ar 
    48   43   44 ar 
    49   44   45 ar 
    50    3   46 1  
    51    4   47 1  
    52    5   48 1  
    53    5   49 1  
    54    7   50 1  
    55    8   51 1  
    56    9   52 1  
    57   10   53 1  
    58   11   54 1  
    59   12   55 1  
    60   13   56 1  
    61   14   57 1  
    62   14   58 1  
    63   15   59 1  
    64   15   60 1  
    65   16   61 1  
    66   16   62 1  
    67   18   63 1  
    68   19   64 1  
    69   20   65 1  
    70   22   66 1  
    71   24   67 1  
    72   24   68 1  
    73   24   69 1  
    74   25   70 1  
    75   25   71 1  
    76   25   72 1  
    77   27   73 1  
    78   31   74 1  
    79   31   75 1  
    80   32   76 1  
    81   32   77 1  
    82   34   78 1  
    83   35   79 1  
    84   36   80 1  
    85   37   81 1  
    86   38   82 1  
    87   39   83 1  
    88   39   84 1  
    89   40   85 1  
    90   41   86 1  
    91   42   87 1  
    92   43   88 1  
    93   45   89 1  
@<TRIPOS>SUBSTRUCTURE
     1 009         1

