### 
### Created by X-TOOL on Mon Sep 10 21:13:01 2018
### 

@<TRIPOS>MOLECULE
3ckt_ligand
   79    81     1     0     0
SMALL
GAST_HUCK


@<TRIPOS>ATOM
      1 N1          9.7120    8.5970  -18.1680 N.am      1 YDP        -0.3001
      2 C5          8.9070    6.7760  -16.0830 C.ar      1 YDP        -0.0401
      3 C6          9.7430    6.3410  -17.1200 C.ar      1 YDP         0.0498
      4 C8         10.1380    7.3110  -18.2170 C.2       1 YDP         0.2025
      5 C10         8.4390   -1.2680  -11.1950 C.3       1 YDP        -0.0406
      6 C20         8.5480    5.8930  -15.0690 C.ar      1 YDP        -0.0295
      7 C24         6.5330    2.1150  -15.0780 C.3       1 YDP         0.1067
      8 C27         9.0020    4.5720  -15.0760 C.ar      1 YDP         0.1127
      9 C18         9.8160    4.1260  -16.1180 C.ar      1 YDP        -0.0295
     10 C2         10.1630    5.0130  -17.1540 C.ar      1 YDP        -0.0401
     11 S9          8.5100    3.5040  -13.7700 S.o2      1 YDP         0.0739
     12 O40         9.7690    3.1490  -13.0950 O.2       1 YDP        -0.1494
     13 N32         7.8910    2.0860  -14.5140 N.am      1 YDP        -0.2195
     14 C33         8.7550    0.8850  -14.4840 C.3       1 YDP         0.0367
     15 C34         8.8590    0.3180  -13.0720 C.2       1 YDP        -0.0908
     16 C35         8.3200   -0.8350  -12.6390 C.2       1 YDP        -0.0856
     17 C11         7.5380   -1.7970  -13.5040 C.3       1 YDP        -0.0406
     18 C25         6.3410    1.4800  -16.4570 C.3       1 YDP        -0.0111
     19 N22         5.5940    0.2230  -16.3390 N.4       1 YDP         0.2298
     20 O11         7.4860    4.1060  -12.9360 O.2       1 YDP        -0.1494
     21 O2         10.8730    6.8860  -19.0880 O.2       1 YDP        -0.3849
     22 N2          0.3770   -3.0810   -9.7660 N.am      1 YDP        -0.3001
     23 C3          2.3960   -0.9890  -10.3450 C.ar      1 YDP        -0.0401
     24 O3         -0.0470   -3.0300  -11.9750 O.2       1 YDP        -0.3849
     25 C7          1.1860   -0.5350  -12.3880 C.ar      1 YDP        -0.0401
     26 C4          1.3830   -1.3260  -11.2620 C.ar      1 YDP         0.0498
     27 C9          0.5100   -2.5460  -11.0080 C.2       1 YDP         0.2025
     28 S10         4.1990    2.1930  -12.0280 S.o2      1 YDP         0.0739
     29 C12         3.3330    4.2670  -17.2450 C.3       1 YDP        -0.0406
     30 C13         4.0050    6.4600  -16.1560 C.3       1 YDP        -0.0406
     31 O12         3.4850    3.3960  -11.6360 O.2       1 YDP        -0.1494
     32 C19         3.2720    0.0610  -10.6260 C.ar      1 YDP        -0.0295
     33 C21         2.0530    0.5330  -12.6680 C.ar      1 YDP        -0.0295
     34 C23         5.5330    1.3520  -14.1620 C.3       1 YDP         0.1067
     35 C26         5.0500    0.1200  -14.9660 C.3       1 YDP        -0.0111
     36 C28         3.0780    0.8340  -11.7780 C.ar      1 YDP         0.1127
     37 N36         4.3850    2.1570  -13.6990 N.am      1 YDP        -0.2195
     38 C37         3.4630    2.8930  -14.5730 C.3       1 YDP         0.0367
     39 C38         3.7610    4.3720  -14.7770 C.2       1 YDP        -0.0908
     40 C39         3.7100    4.9930  -15.9710 C.2       1 YDP        -0.0856
     41 O41         5.4360    1.7980  -11.3760 O.2       1 YDP        -0.1494
     42 H1          9.9717    9.2376  -18.8906 H         1 YDP         0.1808
     43 H2          9.1381    8.9050  -17.4092 H         1 YDP         0.1808
     44 H3          8.5413    7.7964  -16.0706 H         1 YDP         0.0670
     45 H4          7.9306   -2.2339  -11.0588 H         1 YDP         0.0375
     46 H5          7.9714   -0.5129  -10.5460 H         1 YDP         0.0375
     47 H6          9.5014   -1.3723  -10.9298 H         1 YDP         0.0375
     48 H7          7.9080    6.2347  -14.2636 H         1 YDP         0.0649
     49 H8          6.2360    3.1722  -15.1427 H         1 YDP         0.0590
     50 H9         10.1782    3.1044  -16.1293 H         1 YDP         0.0649
     51 H10        10.7622    4.6600  -17.9855 H         1 YDP         0.0670
     52 H11         9.7607    1.1571  -14.8367 H         1 YDP         0.0553
     53 H12         8.3283    0.1189  -15.1481 H         1 YDP         0.0553
     54 H13         9.4229    0.9021  -12.3462 H         1 YDP         0.0258
     55 H14         7.4966   -1.4133  -14.5341 H         1 YDP         0.0375
     56 H15         6.5163   -1.8979  -13.1090 H         1 YDP         0.0375
     57 H16         8.0320   -2.7798  -13.4984 H         1 YDP         0.0375
     58 H17         7.3257    1.2764  -16.9031 H         1 YDP         0.0833
     59 H18         5.7828    2.1746  -17.1019 H         1 YDP         0.0833
     60 H19         6.2090   -0.5550  -16.5192 H         1 YDP         0.2015
     61 H20         4.8373    0.2145  -17.0049 H         1 YDP         0.2015
     62 H21         0.8464   -2.6625   -8.9884 H         1 YDP         0.1808
     63 H22        -0.1902   -3.8932   -9.6295 H         1 YDP         0.1808
     64 H23         2.4961   -1.5451   -9.4199 H         1 YDP         0.0670
     65 H24         0.3571   -0.7443  -13.0545 H         1 YDP         0.0670
     66 H25         3.3585    4.9713  -18.0896 H         1 YDP         0.0375
     67 H26         2.3193    3.8519  -17.1443 H         1 YDP         0.0375
     68 H27         4.0473    3.4505  -17.4268 H         1 YDP         0.0375
     69 H28         4.2684    6.9062  -15.1857 H         1 YDP         0.0375
     70 H29         3.1159    6.9644  -16.5623 H         1 YDP         0.0375
     71 H30         4.8459    6.5796  -16.8549 H         1 YDP         0.0375
     72 H31         4.0971    0.2768   -9.9569 H         1 YDP         0.0649
     73 H32         1.9244    1.1185  -13.5711 H         1 YDP         0.0649
     74 H33         6.0763    1.0081  -13.2695 H         1 YDP         0.0590
     75 H34         5.4139   -0.8021  -14.4892 H         1 YDP         0.0833
     76 H35         3.9507    0.1055  -15.0009 H         1 YDP         0.0833
     77 H36         2.4547    2.8111  -14.1410 H         1 YDP         0.0553
     78 H37         3.4793    2.4088  -15.5606 H         1 YDP         0.0553
     79 H38         4.0320    4.9640  -13.9041 H         1 YDP         0.0258
@<TRIPOS>BOND
     1    4    1 am 
     2    2    3 ar 
     3    6    2 ar 
     4    3    4 1  
     5   10    3 ar 
     6    4   21 2  
     7   16    5 1  
     8    8    6 ar 
     9    7   13 1  
    10    7   18 1  
    11   34    7 1  
    12    8    9 ar 
    13   11    8 1  
    14    9   10 ar 
    15   11   12 2  
    16   13   11 am 
    17   11   20 2  
    18   13   14 1  
    19   14   15 1  
    20   15   16 2  
    21   16   17 1  
    22   19   18 1  
    23   35   19 1  
    24   27   22 am 
    25   23   26 ar 
    26   32   23 ar 
    27   27   24 2  
    28   25   26 ar 
    29   33   25 ar 
    30   26   27 1  
    31   28   31 2  
    32   28   36 1  
    33   37   28 am 
    34   28   41 2  
    35   40   29 1  
    36   40   30 1  
    37   36   32 ar 
    38   36   33 ar 
    39   34   35 1  
    40   37   34 1  
    41   38   37 1  
    42   39   38 1  
    43   39   40 2  
    44    1   42 1  
    45    1   43 1  
    46    2   44 1  
    47    5   45 1  
    48    5   46 1  
    49    5   47 1  
    50    6   48 1  
    51    7   49 1  
    52    9   50 1  
    53   10   51 1  
    54   14   52 1  
    55   14   53 1  
    56   15   54 1  
    57   17   55 1  
    58   17   56 1  
    59   17   57 1  
    60   18   58 1  
    61   18   59 1  
    62   19   60 1  
    63   19   61 1  
    64   22   62 1  
    65   22   63 1  
    66   23   64 1  
    67   25   65 1  
    68   29   66 1  
    69   29   67 1  
    70   29   68 1  
    71   30   69 1  
    72   30   70 1  
    73   30   71 1  
    74   32   72 1  
    75   33   73 1  
    76   34   74 1  
    77   35   75 1  
    78   35   76 1  
    79   38   77 1  
    80   38   78 1  
    81   39   79 1  
@<TRIPOS>SUBSTRUCTURE
     1 YDP         1

