### 
### Created by X-TOOL on Mon Sep 10 21:12:58 2018
### 

@<TRIPOS>MOLECULE
3ckz_ligand
   43    43     1     0     0
SMALL
GAST_HUCK


@<TRIPOS>ATOM
      1 C1        -30.2410  -53.1300    6.6480 C.2       1 ZMR         0.0810
      2 O1A       -31.3330  -52.5290    6.4940 O.co2     1 ZMR        -0.5623
      3 O1B       -29.1810  -52.6830    6.1790 O.co2     1 ZMR        -0.5623
      4 C2        -30.2510  -54.3840    7.4020 C.2       1 ZMR         0.1099
      5 C3        -29.1290  -55.0600    7.7510 C.2       1 ZMR        -0.0168
      6 C4        -29.1700  -56.1270    8.8400 C.3       1 ZMR         0.1182
      7 C5        -30.5260  -56.8340    8.7520 C.3       1 ZMR         0.1162
      8 N5        -30.6670  -57.8540    9.7820 N.am      1 ZMR        -0.2758
      9 C10       -30.6130  -59.1750    9.5620 C.2       1 ZMR         0.1735
     10 O10       -30.5210  -59.6830    8.4570 O.2       1 ZMR        -0.3974
     11 C11       -30.6470  -60.0450   10.7880 C.3       1 ZMR         0.0257
     12 C6        -31.6650  -55.8090    8.8240 C.3       1 ZMR         0.1332
     13 O6        -31.5720  -54.8710    7.7500 O.3       1 ZMR        -0.3188
     14 C7        -33.0480  -56.4220    8.6780 C.3       1 ZMR         0.1155
     15 O7        -33.1590  -56.9510    7.3560 O.3       1 ZMR        -0.3861
     16 C8        -34.1360  -55.3580    8.8770 C.3       1 ZMR         0.1068
     17 O8        -33.9750  -54.7610   10.1730 O.3       1 ZMR        -0.3869
     18 C9        -35.5350  -55.9600    8.7550 C.3       1 ZMR         0.0727
     19 O9        -35.8070  -56.7910    9.8930 O.3       1 ZMR        -0.3924
     20 NE        -28.1980  -57.1930    8.6160 N.pl3     1 ZMR        -0.2592
     21 CZ        -27.5560  -57.8760    9.4720 C.cat     1 ZMR         0.2902
     22 NH1       -27.6800  -57.6790   10.7820 N.pl3     1 ZMR        -0.2847
     23 NH2       -26.7290  -58.8360    9.0330 N.pl3     1 ZMR        -0.2847
     24 H1        -28.1885  -54.8389    7.2485 H         1 ZMR         0.0492
     25 H2        -29.0172  -55.6632    9.8257 H         1 ZMR         0.0872
     26 H3        -30.5827  -57.3358    7.7748 H         1 ZMR         0.0645
     27 H4        -30.8149  -57.5463   10.7219 H         1 ZMR         0.1858
     28 H5        -30.5975  -61.1024   10.4887 H         1 ZMR         0.0467
     29 H6        -31.5807  -59.8637   11.3405 H         1 ZMR         0.0467
     30 H7        -29.7876  -59.8055   11.4315 H         1 ZMR         0.0467
     31 H8        -31.5966  -55.2854    9.7889 H         1 ZMR         0.0697
     32 H9        -33.1782  -57.2248    9.4186 H         1 ZMR         0.0650
     33 H10       -34.0183  -57.3401    7.2429 H         1 ZMR         0.2100
     34 H11       -34.0185  -54.5825    8.1058 H         1 ZMR         0.0643
     35 H12       -34.6461  -54.1011   10.3020 H         1 ZMR         0.2100
     36 H13       -35.5936  -56.5653    7.8384 H         1 ZMR         0.0584
     37 H14       -36.2782  -55.1504    8.7079 H         1 ZMR         0.0584
     38 H15       -35.7572  -56.2682   10.6846 H         1 ZMR         0.2095
     39 H16       -28.0074  -57.4219    7.6300 H         1 ZMR         0.2667
     40 H17       -27.1402  -58.2558   11.4429 H         1 ZMR         0.2615
     41 H18       -28.3158  -56.9497   11.1352 H         1 ZMR         0.2615
     42 H19       -26.6220  -59.0009    8.0219 H         1 ZMR         0.2615
     43 H20       -26.2008  -59.4085    9.7069 H         1 ZMR         0.2615
@<TRIPOS>BOND
     1    1    2 ar 
     2    1    3 ar 
     3    1    4 1  
     4    4    5 2  
     5    4   13 1  
     6    5    6 1  
     7    6    7 1  
     8    6   20 1  
     9    7    8 1  
    10    7   12 1  
    11    8    9 am 
    12    9   10 2  
    13    9   11 1  
    14   12   13 1  
    15   12   14 1  
    16   14   15 1  
    17   14   16 1  
    18   16   17 1  
    19   16   18 1  
    20   18   19 1  
    21   20   21 ar 
    22   21   22 ar 
    23   21   23 ar 
    24    5   24 1  
    25    6   25 1  
    26    7   26 1  
    27    8   27 1  
    28   11   28 1  
    29   11   29 1  
    30   11   30 1  
    31   12   31 1  
    32   14   32 1  
    33   15   33 1  
    34   16   34 1  
    35   17   35 1  
    36   18   36 1  
    37   18   37 1  
    38   19   38 1  
    39   20   39 1  
    40   22   40 1  
    41   22   41 1  
    42   23   42 1  
    43   23   43 1  
@<TRIPOS>SUBSTRUCTURE
     1 ZMR         1

