### 
### Created by X-TOOL on Mon Sep 10 21:12:58 2018
### 

@<TRIPOS>MOLECULE
3cl0_ligand
   44    44     1     0     0
SMALL
GAST_HUCK


@<TRIPOS>ATOM
      1 C1        -30.3740  -53.1430    6.1220 C.2       1 G39         0.0478
      2 O1A       -31.4390  -52.5330    5.8500 O.co2     1 G39        -0.5666
      3 O1B       -29.2570  -52.6250    5.8790 O.co2     1 G39        -0.5666
      4 C2        -30.4370  -54.4860    6.7250 C.2       1 G39        -0.0181
      5 C3        -29.1590  -55.1880    7.1320 C.3       1 G39         0.0201
      6 C4        -29.3800  -56.1620    8.2940 C.3       1 G39         0.0100
      7 C5        -30.6270  -57.0330    8.0970 C.3       1 G39         0.1202
      8 N5        -30.8030  -57.9550    9.2060 N.am      1 G39        -0.2740
      9 C10       -30.6830  -59.2830    9.0870 C.2       1 G39         0.1735
     10 O10       -30.6290  -59.8630    8.0100 O.2       1 G39        -0.3974
     11 C11       -30.6110  -60.0400   10.3800 C.3       1 G39         0.0257
     12 C6        -31.8830  -56.1780    7.9370 C.3       1 G39         0.1112
     13 C7        -31.6320  -55.0930    6.9010 C.2       1 G39        -0.0470
     14 O7        -33.0070  -56.9890    7.5310 O.3       1 G39        -0.3596
     15 C8        -34.1580  -56.9050    8.3980 C.3       1 G39         0.0613
     16 C9        -34.8790  -55.5530    8.2830 C.3       1 G39        -0.0292
     17 C81       -35.1530  -58.0200    8.0790 C.3       1 G39        -0.0292
     18 C82       -34.6540  -59.3950    8.4670 C.3       1 G39        -0.0629
     19 C91       -35.4250  -55.2790    6.8910 C.3       1 G39        -0.0629
     20 N4        -28.1950  -56.9940    8.4300 N.4       1 G39         0.2238
     21 H1        -28.4214  -54.4318    7.4388 H         1 G39         0.0441
     22 H2        -28.7720  -55.7486    6.2683 H         1 G39         0.0441
     23 H3        -29.5130  -55.5789    9.2172 H         1 G39         0.0895
     24 H4        -30.4895  -57.6203    7.1771 H         1 G39         0.0664
     25 H5        -31.0254  -57.5779   10.1051 H         1 G39         0.1859
     26 H6        -30.5141  -61.1155   10.1703 H         1 G39         0.0467
     27 H7        -31.5275  -59.8609   10.9613 H         1 G39         0.0467
     28 H8        -29.7386  -59.6988   10.9566 H         1 G39         0.0467
     29 H9        -32.1168  -55.7056    8.9025 H         1 G39         0.0776
     30 H10       -32.4618  -54.7879    6.2651 H         1 G39         0.0592
     31 H11       -33.8121  -57.0264    9.4351 H         1 G39         0.0598
     32 H12       -34.1678  -54.7549    8.5423 H         1 G39         0.0288
     33 H13       -35.7174  -55.5427    8.9950 H         1 G39         0.0288
     34 H14       -35.3509  -58.0127    6.9970 H         1 G39         0.0288
     35 H15       -36.0875  -57.8209    8.6240 H         1 G39         0.0288
     36 H16       -35.4150  -60.1469    8.2111 H         1 G39         0.0231
     37 H17       -34.4605  -59.4229    9.5495 H         1 G39         0.0231
     38 H18       -33.7239  -59.6147    7.9224 H         1 G39         0.0231
     39 H19       -35.9261  -54.2998    6.8799 H         1 G39         0.0231
     40 H20       -36.1468  -56.0633    6.6193 H         1 G39         0.0231
     41 H21       -34.5973  -55.2755    6.1666 H         1 G39         0.0231
     42 H22       -27.3855  -56.4073    8.5585 H         1 G39         0.1999
     43 H23       -28.0778  -57.5505    7.5978 H         1 G39         0.1999
     44 H24       -28.3002  -57.6008    9.2280 H         1 G39         0.1999
@<TRIPOS>BOND
     1    1    2 ar 
     2    1    3 ar 
     3    1    4 1  
     4    4    5 1  
     5    4   13 2  
     6    5    6 1  
     7    6    7 1  
     8    6   20 1  
     9    7    8 1  
    10    7   12 1  
    11    8    9 am 
    12    9   10 2  
    13    9   11 1  
    14   12   13 1  
    15   12   14 1  
    16   14   15 1  
    17   15   16 1  
    18   15   17 1  
    19   16   19 1  
    20   17   18 1  
    21    5   21 1  
    22    5   22 1  
    23    6   23 1  
    24    7   24 1  
    25    8   25 1  
    26   11   26 1  
    27   11   27 1  
    28   11   28 1  
    29   12   29 1  
    30   13   30 1  
    31   15   31 1  
    32   16   32 1  
    33   16   33 1  
    34   17   34 1  
    35   17   35 1  
    36   18   36 1  
    37   18   37 1  
    38   18   38 1  
    39   19   39 1  
    40   19   40 1  
    41   19   41 1  
    42   20   42 1  
    43   20   43 1  
    44   20   44 1  
@<TRIPOS>SUBSTRUCTURE
     1 G39         1

