### 
### Created by X-TOOL on Mon Sep 10 21:12:59 2018
### 

@<TRIPOS>MOLECULE
3cl2_ligand
   44    44     1     0     0
SMALL
GAST_HUCK


@<TRIPOS>ATOM
      1 C1       -127.9340  -36.5950   30.9200 C.2       1 G39         0.0478
      2 O1A      -128.1440  -36.3380   32.0640 O.co2     1 G39        -0.5666
      3 O1B      -128.3390  -35.8730   30.0600 O.co2     1 G39        -0.5666
      4 C2       -126.9690  -37.7510   30.6080 C.2       1 G39        -0.0181
      5 C3       -126.7790  -38.2760   29.1590 C.3       1 G39         0.0201
      6 C4       -125.3480  -38.7740   28.9930 C.3       1 G39         0.0100
      7 C5       -125.1040  -39.8570   30.0320 C.3       1 G39         0.1202
      8 N5       -123.7790  -40.4090   29.7800 N.am      1 G39        -0.2740
      9 C10      -123.6830  -41.8020   29.3430 C.2       1 G39         0.1735
     10 O10      -124.6500  -42.4800   29.2560 O.2       1 G39        -0.3974
     11 C11      -122.2970  -42.4190   29.1380 C.3       1 G39         0.0257
     12 C6       -125.1210  -39.2780   31.4450 C.3       1 G39         0.1112
     13 C7       -126.3390  -38.3470   31.6500 C.2       1 G39        -0.0470
     14 O7       -125.2100  -40.3050   32.4160 O.3       1 G39        -0.3596
     15 C8       -124.0580  -40.5420   33.1840 C.3       1 G39         0.0613
     16 C9       -123.6930  -39.3150   34.0410 C.3       1 G39        -0.0292
     17 C81      -124.2280  -41.8420   34.0110 C.3       1 G39        -0.0292
     18 C82      -124.1550  -43.0580   33.0630 C.3       1 G39        -0.0629
     19 C91      -124.7630  -39.1010   35.1260 C.3       1 G39        -0.0629
     20 N4       -125.1470  -39.3370   27.6390 N.4       1 G39         0.2238
     21 H1       -126.9711  -37.4623   28.4442 H         1 G39         0.0441
     22 H2       -127.4806  -39.1022   28.9715 H         1 G39         0.0441
     23 H3       -124.6465  -37.9413   29.1492 H         1 G39         0.0895
     24 H4       -125.8707  -40.6407   29.9431 H         1 G39         0.0664
     25 H5       -122.9581  -39.8511   29.9024 H         1 G39         0.1859
     26 H6       -122.4054  -43.4639   28.8117 H         1 G39         0.0467
     27 H7       -121.7376  -42.3866   30.0845 H         1 G39         0.0467
     28 H8       -121.7522  -41.8499   28.3704 H         1 G39         0.0467
     29 H9       -124.1941  -38.7067   31.6018 H         1 G39         0.0776
     30 H10      -126.7010  -38.1650   32.6608 H         1 G39         0.0592
     31 H11      -123.2224  -40.7067   32.4879 H         1 G39         0.0598
     32 H12      -123.6405  -38.4234   33.3989 H         1 G39         0.0288
     33 H13      -122.7162  -39.4807   34.5189 H         1 G39         0.0288
     34 H14      -125.2032  -41.8299   34.5198 H         1 G39         0.0288
     35 H15      -123.4248  -41.9100   34.7594 H         1 G39         0.0288
     36 H16      -124.2751  -43.9840   33.6445 H         1 G39         0.0231
     37 H17      -123.1797  -43.0684   32.5543 H         1 G39         0.0231
     38 H18      -124.9582  -42.9883   32.3147 H         1 G39         0.0231
     39 H19      -124.4976  -38.2241   35.7347 H         1 G39         0.0231
     40 H20      -124.8160  -39.9916   35.7695 H         1 G39         0.0231
     41 H21      -125.7403  -38.9343   34.6494 H         1 G39         0.0231
     42 H22      -125.3086  -38.6197   26.9495 H         1 G39         0.1999
     43 H23      -125.7932  -40.0964   27.4915 H         1 G39         0.1999
     44 H24      -124.2024  -39.6782   27.5538 H         1 G39         0.1999
@<TRIPOS>BOND
     1    1    2 ar 
     2    1    3 ar 
     3    1    4 1  
     4    4    5 1  
     5    4   13 2  
     6    5    6 1  
     7    6    7 1  
     8    6   20 1  
     9    7    8 1  
    10    7   12 1  
    11    8    9 am 
    12    9   10 2  
    13    9   11 1  
    14   12   13 1  
    15   12   14 1  
    16   14   15 1  
    17   15   16 1  
    18   15   17 1  
    19   16   19 1  
    20   17   18 1  
    21    5   21 1  
    22    5   22 1  
    23    6   23 1  
    24    7   24 1  
    25    8   25 1  
    26   11   26 1  
    27   11   27 1  
    28   11   28 1  
    29   12   29 1  
    30   13   30 1  
    31   15   31 1  
    32   16   32 1  
    33   16   33 1  
    34   17   34 1  
    35   17   35 1  
    36   18   36 1  
    37   18   37 1  
    38   18   38 1  
    39   19   39 1  
    40   19   40 1  
    41   19   41 1  
    42   20   42 1  
    43   20   43 1  
    44   20   44 1  
@<TRIPOS>SUBSTRUCTURE
     1 G39         1

