### 
### Created by X-TOOL on Mon Sep 10 21:12:58 2018
### 

@<TRIPOS>MOLECULE
3cm2_ligand
   75    78     1     0     0
SMALL
GAST_HUCK


@<TRIPOS>ATOM
      1 CAA       -24.2010   14.0540   44.2410 C.3       1 X23        -0.0580
      2 CB        -23.7470   12.6380   44.5240 C.3       1 X23         0.0050
      3 CA        -22.2810   12.5830   44.9380 C.3       1 X23         0.0647
      4 N         -21.4230   12.7670   43.7650 N.4       1 X23         0.2379
      5 C         -22.1040   11.1920   45.5070 C.2       1 X23         0.2267
      6 O         -21.7090   10.2460   44.8350 O.2       1 X23        -0.3907
      7 NAX       -22.4190   11.0890   46.7740 N.am      1 X23        -0.2605
      8 CBH       -22.3620    9.7860   47.4400 C.3       1 X23         0.1389
      9 CBA       -23.6130    9.7410   48.3260 C.2       1 X23         0.2071
     10 OAF       -24.2960   10.7580   48.4650 O.2       1 X23        -0.3942
     11 NBJ       -23.9990    8.6400   48.9350 N.am      1 X23        -0.2468
     12 CBE       -21.0270    9.4040   48.1480 C.3       1 X23         0.0394
     13 CAR       -20.0590   10.5940   48.2300 C.3       1 X23        -0.0282
     14 NAB       -18.9930   10.3520   49.2080 N.4       1 X23         0.2189
     15 CAS       -21.2620    8.7590   49.5290 C.3       1 X23        -0.0390
     16 CAT       -21.9250    7.3590   49.4840 C.3       1 X23        -0.0288
     17 CBF       -23.3400    7.3190   48.8650 C.3       1 X23         0.0481
     18 CAU       -24.2570    6.3920   49.6600 C.3       1 X23        -0.0253
     19 CAV       -25.6100    7.1250   49.6460 C.3       1 X23        -0.0101
     20 CBI       -25.2220    8.6050   49.7410 C.3       1 X23         0.1342
     21 CAZ       -25.0500    8.9550   51.2260 C.2       1 X23         0.2057
     22 OAE       -23.9640    9.1120   51.7730 O.2       1 X23        -0.3942
     23 NAW       -26.2410    9.0540   51.7710 N.am      1 X23        -0.2600
     24 CBG       -26.7390    9.2580   53.1390 C.3       1 X23         0.1087
     25 CBC       -26.1520    8.3140   54.2670 C.ar      1 X23        -0.0067
     26 CAO       -26.6410    7.0080   54.3670 C.ar      1 X23        -0.0561
     27 CAK       -26.1670    6.1640   55.3760 C.ar      1 X23        -0.0681
     28 CAH       -25.2230    6.6400   56.2850 C.ar      1 X23        -0.0685
     29 CAL       -24.7570    7.9560   56.1930 C.ar      1 X23        -0.0681
     30 CAP       -25.2260    8.8020   55.1870 C.ar      1 X23        -0.0561
     31 CBB       -27.5140   10.5250   53.3980 C.ar      1 X23        -0.0067
     32 CAM       -27.4130   11.6040   52.5320 C.ar      1 X23        -0.0561
     33 CAI       -28.2250   12.7150   52.7400 C.ar      1 X23        -0.0681
     34 CAG       -29.1510   12.7100   53.7770 C.ar      1 X23        -0.0685
     35 CAJ       -29.2810   11.6040   54.6170 C.ar      1 X23        -0.0681
     36 CAN       -28.4740   10.4950   54.4060 C.ar      1 X23        -0.0561
     37 H1        -25.2609   14.0473   43.9468 H         1 X23         0.0233
     38 H2        -23.5967   14.4766   43.4248 H         1 X23         0.0233
     39 H3        -24.0755   14.6670   45.1457 H         1 X23         0.0233
     40 H4        -23.8829   12.0327   43.6156 H         1 X23         0.0343
     41 H5        -24.3617   12.2231   45.3364 H         1 X23         0.0343
     42 H6        -22.0533   13.3501   45.6928 H         1 X23         0.1098
     43 H7        -20.4559   12.7294   44.0469 H         1 X23         0.2015
     44 H8        -21.6159   13.6627   43.3448 H         1 X23         0.2015
     45 H9        -21.6067   12.0355   43.0962 H         1 X23         0.2015
     46 H10       -22.6986   11.9006   47.2870 H         1 X23         0.1885
     47 H11       -22.4918    9.0241   46.6573 H         1 X23         0.0805
     48 H12       -20.5421    8.6419   47.5203 H         1 X23         0.0400
     49 H13       -20.6204   11.4919   48.5278 H         1 X23         0.0818
     50 H14       -19.6065   10.7558   47.2405 H         1 X23         0.0818
     51 H15       -18.3768   11.1492   49.2375 H         1 X23         0.1994
     52 H16       -18.4702    9.5331   48.9395 H         1 X23         0.1994
     53 H17       -19.3993   10.2075   50.1191 H         1 X23         0.1994
     54 H18       -21.9114    9.4272   50.1135 H         1 X23         0.0273
     55 H19       -20.2886    8.6614   50.0320 H         1 X23         0.0273
     56 H20       -21.9943    6.9823   50.5152 H         1 X23         0.0288
     57 H21       -21.2768    6.6947   48.8937 H         1 X23         0.0288
     58 H22       -23.2661    6.9833   47.8201 H         1 X23         0.0560
     59 H23       -23.8900    6.2640   50.6890 H         1 X23         0.0290
     60 H24       -24.3380    5.4083   49.1745 H         1 X23         0.0290
     61 H25       -26.2275    6.8254   50.5056 H         1 X23         0.0313
     62 H26       -26.1566    6.9219   48.7133 H         1 X23         0.0313
     63 H27       -25.9884    9.2609   49.3023 H         1 X23         0.0802
     64 H28       -26.9789    8.9716   51.1011 H         1 X23         0.1907
     65 H29       -27.6452    8.6490   53.0054 H         1 X23         0.0880
     66 H30       -27.3853    6.6509   53.6645 H         1 X23         0.0561
     67 H31       -26.5312    5.1458   55.4511 H         1 X23         0.0600
     68 H32       -24.8487    5.9880   57.0659 H         1 X23         0.0561
     69 H33       -24.0275    8.3206   56.9072 H         1 X23         0.0600
     70 H34       -24.8746    9.8254   55.1221 H         1 X23         0.0561
     71 H35       -26.7120   11.5821   51.7055 H         1 X23         0.0561
     72 H36       -28.1357   13.5818   52.0953 H         1 X23         0.0600
     73 H37       -29.7809   13.5779   53.9350 H         1 X23         0.0561
     74 H38       -30.0037   11.6107   55.4249 H         1 X23         0.0600
     75 H39       -28.5903    9.6108   55.0222 H         1 X23         0.0561
@<TRIPOS>BOND
     1    1    2 1  
     2    2    3 1  
     3    3    4 1  
     4    3    5 1  
     5    5    6 2  
     6    5    7 am 
     7    7    8 1  
     8    8    9 1  
     9    8   12 1  
    10    9   10 2  
    11    9   11 am 
    12   11   17 1  
    13   11   20 1  
    14   12   13 1  
    15   12   15 1  
    16   13   14 1  
    17   15   16 1  
    18   16   17 1  
    19   17   18 1  
    20   18   19 1  
    21   19   20 1  
    22   20   21 1  
    23   21   22 2  
    24   21   23 am 
    25   23   24 1  
    26   24   25 1  
    27   24   31 1  
    28   25   26 ar 
    29   25   30 ar 
    30   26   27 ar 
    31   27   28 ar 
    32   28   29 ar 
    33   29   30 ar 
    34   31   32 ar 
    35   31   36 ar 
    36   32   33 ar 
    37   33   34 ar 
    38   34   35 ar 
    39   35   36 ar 
    40    1   37 1  
    41    1   38 1  
    42    1   39 1  
    43    2   40 1  
    44    2   41 1  
    45    3   42 1  
    46    4   43 1  
    47    4   44 1  
    48    4   45 1  
    49    7   46 1  
    50    8   47 1  
    51   12   48 1  
    52   13   49 1  
    53   13   50 1  
    54   14   51 1  
    55   14   52 1  
    56   14   53 1  
    57   15   54 1  
    58   15   55 1  
    59   16   56 1  
    60   16   57 1  
    61   17   58 1  
    62   18   59 1  
    63   18   60 1  
    64   19   61 1  
    65   19   62 1  
    66   20   63 1  
    67   23   64 1  
    68   24   65 1  
    69   26   66 1  
    70   27   67 1  
    71   28   68 1  
    72   29   69 1  
    73   30   70 1  
    74   32   71 1  
    75   33   72 1  
    76   34   73 1  
    77   35   74 1  
    78   36   75 1  
@<TRIPOS>SUBSTRUCTURE
     1 X23         1

