### 
### Created by X-TOOL on Mon Sep 10 21:12:59 2018
### 

@<TRIPOS>MOLECULE
3cm7_ligand
   73    76     1     0     0
SMALL
GAST_HUCK


@<TRIPOS>ATOM
      1 CAA       -38.5570  -10.9400  -42.7580 C.3       1 X22        -0.0580
      2 CB        -37.6110  -10.1650  -43.6750 C.3       1 X22         0.0050
      3 CA        -37.5580   -8.6380  -43.4180 C.3       1 X22         0.0647
      4 N         -37.0540   -8.3180  -42.0730 N.4       1 X22         0.2379
      5 C         -38.9310   -8.0150  -43.5830 C.2       1 X22         0.2267
      6 O         -39.7940   -8.1710  -42.7210 O.2       1 X22        -0.3907
      7 NAX       -39.1110   -7.3020  -44.6850 N.am      1 X22        -0.2607
      8 CBI       -40.4310   -6.6850  -44.8840 C.3       1 X22         0.1362
      9 CBA       -41.3230   -7.5810  -45.7910 C.2       1 X22         0.2070
     10 OAE       -40.8130   -8.4850  -46.4650 O.2       1 X22        -0.3942
     11 NBJ       -42.6550   -7.4220  -45.7840 N.am      1 X22        -0.2468
     12 CBE       -40.3640   -5.1580  -45.1540 C.3       1 X22         0.0226
     13 CAR       -39.6920   -4.7760  -46.4840 C.3       1 X22         0.0512
     14 OAF       -38.2780   -4.6410  -46.2640 O.3       1 X22        -0.3945
     15 CAS       -41.7230   -4.4350  -44.9270 C.3       1 X22        -0.0418
     16 CAT       -42.9740   -5.0480  -45.5900 C.3       1 X22        -0.0289
     17 CBF       -43.3780   -6.4040  -45.0050 C.3       1 X22         0.0481
     18 CAU       -44.8650   -6.6350  -45.2630 C.3       1 X22        -0.0253
     19 CAV       -44.9590   -8.0540  -45.8180 C.3       1 X22        -0.0101
     20 CBG       -43.6120   -8.2710  -46.5380 C.3       1 X22         0.1342
     21 CAZ       -43.7330   -7.9620  -48.0260 C.2       1 X22         0.2057
     22 OAD       -44.6220   -7.2330  -48.4540 O.2       1 X22        -0.3942
     23 NAW       -42.8390   -8.5630  -48.7930 N.am      1 X22        -0.2600
     24 CBH       -42.8660   -8.3670  -50.2510 C.3       1 X22         0.1087
     25 CBC       -41.7410   -7.4200  -50.7280 C.ar      1 X22        -0.0067
     26 CAO       -41.2400   -7.5010  -52.0360 C.ar      1 X22        -0.0561
     27 CAK       -40.2350   -6.6320  -52.4660 C.ar      1 X22        -0.0681
     28 CAH       -39.7320   -5.6660  -51.5910 C.ar      1 X22        -0.0685
     29 CAL       -40.2320   -5.5710  -50.2870 C.ar      1 X22        -0.0681
     30 CAP       -41.2370   -6.4430  -49.8570 C.ar      1 X22        -0.0561
     31 CBB       -42.8290   -9.7410  -50.9180 C.ar      1 X22        -0.0067
     32 CAM       -43.9260  -10.1550  -51.6650 C.ar      1 X22        -0.0561
     33 CAI       -43.9070  -11.4110  -52.2750 C.ar      1 X22        -0.0681
     34 CAG       -42.7980  -12.2510  -52.1330 C.ar      1 X22        -0.0685
     35 CAJ       -41.7020  -11.8310  -51.3780 C.ar      1 X22        -0.0681
     36 CAN       -41.7240  -10.5770  -50.7690 C.ar      1 X22        -0.0561
     37 H1        -38.5248  -12.0086  -43.0168 H         1 X22         0.0233
     38 H2        -39.5823  -10.5626  -42.8856 H         1 X22         0.0233
     39 H3        -38.2446  -10.8066  -41.7118 H         1 X22         0.0233
     40 H4        -37.9347  -10.3255  -44.7140 H         1 X22         0.0343
     41 H5        -36.5970  -10.5694  -43.5402 H         1 X22         0.0343
     42 H6        -36.8778   -8.1924  -44.1588 H         1 X22         0.1098
     43 H7        -37.0366   -7.3177  -41.9499 H         1 X22         0.2015
     44 H8        -36.1215   -8.6858  -41.9673 H         1 X22         0.2015
     45 H9        -37.6587   -8.7312  -41.3804 H         1 X22         0.2015
     46 H10       -38.3778   -7.1878  -45.3554 H         1 X22         0.1885
     47 H11       -40.9199   -6.7433  -43.9004 H         1 X22         0.0803
     48 H12       -39.6950   -4.7627  -44.3755 H         1 X22         0.0370
     49 H13       -40.1030   -3.8220  -46.8457 H         1 X22         0.0562
     50 H14       -39.8769   -5.5618  -47.2312 H         1 X22         0.0562
     51 H15       -37.8528   -4.4049  -47.0800 H         1 X22         0.2094
     52 H16       -41.6179   -3.4083  -45.3075 H         1 X22         0.0272
     53 H17       -41.9047   -4.4074  -43.8425 H         1 X22         0.0272
     54 H18       -42.7694   -5.1796  -46.6628 H         1 X22         0.0288
     55 H19       -43.8137   -4.3495  -45.4598 H         1 X22         0.0288
     56 H20       -43.1433   -6.4644  -43.9320 H         1 X22         0.0560
     57 H21       -45.2470   -5.9084  -45.9952 H         1 X22         0.0290
     58 H22       -45.4369   -6.5481  -44.3274 H         1 X22         0.0290
     59 H23       -45.7973   -8.1413  -46.5249 H         1 X22         0.0313
     60 H24       -45.0879   -8.7830  -45.0044 H         1 X22         0.0313
     61 H25       -43.3045   -9.3228  -46.4423 H         1 X22         0.0802
     62 H26       -42.1434   -9.1517  -48.3813 H         1 X22         0.1907
     63 H27       -43.8221   -7.8910  -50.5144 H         1 X22         0.0880
     64 H28       -41.6363   -8.2442  -52.7184 H         1 X22         0.0561
     65 H29       -39.8465   -6.7067  -53.4752 H         1 X22         0.0600
     66 H30       -38.9531   -4.9888  -51.9225 H         1 X22         0.0561
     67 H31       -39.8398   -4.8208  -49.6099 H         1 X22         0.0600
     68 H32       -41.6272   -6.3638  -48.8488 H         1 X22         0.0561
     69 H33       -44.7891   -9.5081  -51.7730 H         1 X22         0.0561
     70 H34       -44.7576  -11.7371  -52.8625 H         1 X22         0.0600
     71 H35       -42.7897  -13.2254  -52.6079 H         1 X22         0.0561
     72 H36       -40.8382  -12.4763  -51.2657 H         1 X22         0.0600
     73 H37       -40.8770  -10.2505  -50.1764 H         1 X22         0.0561
@<TRIPOS>BOND
     1    1    2 1  
     2    2    3 1  
     3    3    4 1  
     4    3    5 1  
     5    5    6 2  
     6    5    7 am 
     7    7    8 1  
     8    8    9 1  
     9    8   12 1  
    10    9   10 2  
    11    9   11 am 
    12   11   17 1  
    13   11   20 1  
    14   12   13 1  
    15   12   15 1  
    16   13   14 1  
    17   15   16 1  
    18   16   17 1  
    19   17   18 1  
    20   18   19 1  
    21   19   20 1  
    22   20   21 1  
    23   21   22 2  
    24   21   23 am 
    25   23   24 1  
    26   24   25 1  
    27   24   31 1  
    28   25   26 ar 
    29   25   30 ar 
    30   26   27 ar 
    31   27   28 ar 
    32   28   29 ar 
    33   29   30 ar 
    34   31   32 ar 
    35   31   36 ar 
    36   32   33 ar 
    37   33   34 ar 
    38   34   35 ar 
    39   35   36 ar 
    40    1   37 1  
    41    1   38 1  
    42    1   39 1  
    43    2   40 1  
    44    2   41 1  
    45    3   42 1  
    46    4   43 1  
    47    4   44 1  
    48    4   45 1  
    49    7   46 1  
    50    8   47 1  
    51   12   48 1  
    52   13   49 1  
    53   13   50 1  
    54   14   51 1  
    55   15   52 1  
    56   15   53 1  
    57   16   54 1  
    58   16   55 1  
    59   17   56 1  
    60   18   57 1  
    61   18   58 1  
    62   19   59 1  
    63   19   60 1  
    64   20   61 1  
    65   23   62 1  
    66   24   63 1  
    67   26   64 1  
    68   27   65 1  
    69   28   66 1  
    70   29   67 1  
    71   30   68 1  
    72   32   69 1  
    73   33   70 1  
    74   34   71 1  
    75   35   72 1  
    76   36   73 1  
@<TRIPOS>SUBSTRUCTURE
     1 X22         1

