### 
### Created by X-TOOL on Mon Sep 10 21:12:57 2018
### 

@<TRIPOS>MOLECULE
3cn0_ligand
   33    34     1     0     0
SMALL
GAST_HUCK


@<TRIPOS>ATOM
      1 CAA        -0.7130    2.5160  -10.2740 C.3       1 LJ1        -0.0339
      2 CAM        -0.5260    1.1360   -9.6290 C.ar      1 LJ1        -0.0196
      3 CAK        -0.7400    0.9530   -8.2740 C.ar      1 LJ1        -0.0662
      4 CAQ        -0.1410    0.0340  -10.4080 C.ar      1 LJ1         0.0946
      5 OAC         0.0580    0.2320  -11.7220 O.3       1 LJ1        -0.3377
      6 CAN         0.0510   -1.2410   -9.8380 C.ar      1 LJ1        -0.0196
      7 CAB         0.4680   -2.4400  -10.6820 C.3       1 LJ1        -0.0339
      8 CAL        -0.1850   -1.4190   -8.4920 C.ar      1 LJ1        -0.0662
      9 CAP        -0.5840   -0.3210   -7.7400 C.ar      1 LJ1        -0.0471
     10 CAE        -0.7620   -0.4330   -6.3900 C.2       1 LJ1        -0.0646
     11 CAD         0.4420   -0.2900   -5.7200 C.2       1 LJ1        -0.0599
     12 CAO         0.4310   -0.3180   -4.3510 C.ar      1 LJ1        -0.0298
     13 CAI        -0.4530    0.5660   -3.7060 C.ar      1 LJ1        -0.0568
     14 CAG        -0.4620    0.5450   -2.3330 C.ar      1 LJ1        -0.0628
     15 CAF         0.3930   -0.2760   -1.6030 C.ar      1 LJ1        -0.0631
     16 CAH         1.2860   -1.1430   -2.2510 C.ar      1 LJ1        -0.0628
     17 CAJ         1.2830   -1.1400   -3.6380 C.ar      1 LJ1        -0.0568
     18 H1         -1.0134    3.2426   -9.5047 H         1 LJ1         0.0367
     19 H2         -1.4933    2.4568  -11.0470 H         1 LJ1         0.0367
     20 H3          0.2337    2.8378  -10.7325 H         1 LJ1         0.0367
     21 H4         -1.0236    1.7865   -7.6416 H         1 LJ1         0.0487
     22 H5          0.3126   -0.5875  -12.1296 H         1 LJ1         0.2453
     23 H6          0.5593   -3.3274  -10.0384 H         1 LJ1         0.0367
     24 H7          1.4366   -2.2327  -11.1602 H         1 LJ1         0.0367
     25 H8         -0.2911   -2.6252  -11.4563 H         1 LJ1         0.0367
     26 H9         -0.0623   -2.3924   -8.0310 H         1 LJ1         0.0487
     27 H10        -1.7212   -0.6107   -5.9059 H         1 LJ1         0.0610
     28 H11         1.3737   -0.1586   -6.2682 H         1 LJ1         0.0570
     29 H12        -1.0974    1.2331   -4.2670 H         1 LJ1         0.0610
     30 H13        -1.1555    1.1868   -1.8018 H         1 LJ1         0.0614
     31 H14         0.3686   -0.2451   -0.5197 H         1 LJ1         0.0606
     32 H15         1.9515   -1.7892   -1.6901 H         1 LJ1         0.0614
     33 H16         1.9616   -1.7947   -4.1727 H         1 LJ1         0.0610
@<TRIPOS>BOND
     1    1    2 1  
     2    2    3 ar 
     3    2    4 ar 
     4    3    9 ar 
     5    4    5 1  
     6    4    6 ar 
     7    6    7 1  
     8    6    8 ar 
     9    8    9 ar 
    10    9   10 1  
    11   10   11 2  
    12   11   12 1  
    13   12   13 ar 
    14   12   17 ar 
    15   13   14 ar 
    16   14   15 ar 
    17   15   16 ar 
    18   16   17 ar 
    19    1   18 1  
    20    1   19 1  
    21    1   20 1  
    22    3   21 1  
    23    5   22 1  
    24    7   23 1  
    25    7   24 1  
    26    7   25 1  
    27    8   26 1  
    28   10   27 1  
    29   11   28 1  
    30   13   29 1  
    31   14   30 1  
    32   15   31 1  
    33   16   32 1  
    34   17   33 1  
@<TRIPOS>SUBSTRUCTURE
     1 LJ1         1

