### 
### Created by X-TOOL on Mon Sep 10 21:13:01 2018
### 

@<TRIPOS>MOLECULE
3co9_ligand
   56    59     1     0     0
SMALL
GAST_HUCK


@<TRIPOS>ATOM
      1 C4         31.5070   46.1490   49.3590 C.2       1 3MS        -0.0483
      2 C5         32.1790   45.1600   58.3310 C.ar      1 3MS        -0.0263
      3 C6         32.5910   44.2980   48.6480 C.2       1 3MS         0.0632
      4 C7         33.3850   44.5320   56.2850 C.ar      1 3MS        -0.0091
      5 C8         32.7350   44.0560   58.9890 C.ar      1 3MS         0.0561
      6 C10        32.1910   45.6160   50.4330 C.2       1 3MS         0.1444
      7 C13        32.9510   45.3700   54.1260 C.2       1 3MS         0.1193
      8 C15        37.8190   44.1400   49.2730 C.3       1 3MS        -0.0626
      9 C17        30.5320   45.1650   61.6150 C.3       1 3MS         0.0786
     10 C20        36.6720   43.8530   50.2510 C.3       1 3MS        -0.0448
     11 O30        32.8040   46.2900   61.0340 O.2       1 3MS        -0.1503
     12 S33        32.3000   45.0150   61.5210 S.o2      1 3MS         0.0561
     13 O29        32.7500   44.4650   62.7890 O.2       1 3MS        -0.1503
     14 N25        32.4240   43.7740   60.3520 N.am      1 3MS        -0.1961
     15 C3         33.6070   43.1910   58.3110 C.ar      1 3MS        -0.0533
     16 C9         32.5140   45.3780   56.9900 C.ar      1 3MS         0.1015
     17 S32        31.8750   46.7790   56.1520 S.o2      1 3MS         0.0885
     18 O27        30.4710   46.9510   56.4700 O.2       1 3MS        -0.1448
     19 O28        32.8590   47.8040   56.4120 O.2       1 3MS        -0.1448
     20 N23        31.9800   46.3070   54.5390 N.am      1 3MS        -0.1673
     21 N21        33.7440   44.7300   54.9460 N.2       1 3MS        -0.3528
     22 C2         33.9340   43.4290   56.9670 C.ar      1 3MS        -0.0743
     23 C12        32.9890   45.1780   52.6660 C.2       1 3MS         0.1195
     24 C11        32.3320   45.9880   51.7900 C.2       1 3MS         0.1579
     25 O31        31.7980   47.2230   52.0720 O.3       1 3MS        -0.3076
     26 C14        33.7690   44.0090   52.1530 C.2       1 3MS         0.2134
     27 O26        34.3780   43.3240   52.9660 O.2       1 3MS        -0.4052
     28 N24        33.6550   43.6980   50.7990 N.am      1 3MS        -0.1493
     29 N22        32.8480   44.5000   49.9800 N.pl3     1 3MS        -0.1481
     30 C1         31.7620   45.3200   48.2420 C.2       1 3MS        -0.0577
     31 C19        34.3380   42.5190   50.2860 C.3       1 3MS         0.0649
     32 C18        35.6610   42.8730   49.5860 C.3       1 3MS        -0.0275
     33 C16        37.2660   43.3580   51.5780 C.3       1 3MS        -0.0626
     34 H1         30.8855   47.0432   49.3698 H         1 3MS         0.0474
     35 H2         31.5037   45.8312   58.8492 H         1 3MS         0.0485
     36 H3         32.9698   43.4853   48.0300 H         1 3MS         0.1011
     37 H4         38.5348   44.8322   49.7404 H         1 3MS         0.0232
     38 H5         37.4145   44.5945   48.3566 H         1 3MS         0.0232
     39 H6         38.3301   43.1991   49.0209 H         1 3MS         0.0232
     40 H7         30.1485   45.5796   60.6710 H         1 3MS         0.0487
     41 H8         30.2645   45.8352   62.4452 H         1 3MS         0.0487
     42 H9         30.0885   44.1732   61.7868 H         1 3MS         0.0487
     43 H10        36.1379   44.7928   50.4546 H         1 3MS         0.0296
     44 H11        32.2746   42.8254   60.6311 H         1 3MS         0.2135
     45 H12        34.0295   42.3362   58.8267 H         1 3MS         0.0465
     46 H13        31.3483   46.6943   53.8675 H         1 3MS         0.2300
     47 H14        34.6131   42.7599   56.4510 H         1 3MS         0.0494
     48 H15        31.1436   47.1353   52.7550 H         1 3MS         0.2639
     49 H16        31.3709   45.4646   47.2360 H         1 3MS         0.0365
     50 H17        33.6793   42.0140   49.5641 H         1 3MS         0.0551
     51 H18        34.5516   41.8402   51.1248 H         1 3MS         0.0551
     52 H19        36.1975   41.9256   49.4296 H         1 3MS         0.0288
     53 H20        35.3947   43.3088   48.6117 H         1 3MS         0.0288
     54 H21        37.9646   44.1115   51.9707 H         1 3MS         0.0232
     55 H22        37.8029   42.4128   51.4095 H         1 3MS         0.0232
     56 H23        36.4560   43.1952   52.3042 H         1 3MS         0.0232
@<TRIPOS>BOND
     1    6    1 2  
     2    1   30 1  
     3    2    5 ar 
     4   16    2 ar 
     5   29    3 1  
     6    3   30 2  
     7    4   16 ar 
     8   21    4 1  
     9    4   22 ar 
    10    5   14 1  
    11   15    5 ar 
    12    6   24 1  
    13   29    6 1  
    14    7   20 1  
    15    7   21 2  
    16   23    7 1  
    17   10    8 1  
    18   12    9 1  
    19   32   10 1  
    20   10   33 1  
    21   12   11 2  
    22   12   13 2  
    23   14   12 am 
    24   22   15 ar 
    25   17   16 1  
    26   17   18 2  
    27   17   19 2  
    28   20   17 am 
    29   23   24 2  
    30   26   23 1  
    31   24   25 1  
    32   26   27 2  
    33   28   26 am 
    34   28   29 1  
    35   31   28 1  
    36   31   32 1  
    37    1   34 1  
    38    2   35 1  
    39    3   36 1  
    40    8   37 1  
    41    8   38 1  
    42    8   39 1  
    43    9   40 1  
    44    9   41 1  
    45    9   42 1  
    46   10   43 1  
    47   14   44 1  
    48   15   45 1  
    49   20   46 1  
    50   22   47 1  
    51   25   48 1  
    52   30   49 1  
    53   31   50 1  
    54   31   51 1  
    55   32   52 1  
    56   32   53 1  
    57   33   54 1  
    58   33   55 1  
    59   33   56 1  
@<TRIPOS>SUBSTRUCTURE
     1 3MS         1

