### 
### Created by X-TOOL on Mon Sep 10 21:13:02 2018
### 

@<TRIPOS>MOLECULE
3coh_ligand
   50    54     1     0     0
SMALL
GAST_HUCK


@<TRIPOS>ATOM
      1 C4         -0.5950   63.5780   42.2620 C.ar      1 83H         0.0810
      2 C5         -1.1180   62.7280   43.3710 C.ar      1 83H        -0.0003
      3 C6         -1.6480   61.4640   43.1590 C.ar      1 83H        -0.0347
      4 C7         -1.3200   63.0690   46.0400 C.3       1 83H        -0.0226
      5 C8         -0.3130   64.6990   44.1170 C.2       1 83H         0.1138
      6 C9         -0.9680   63.4840   44.6300 C.2       1 83H        -0.0037
      7 C10        -0.0030   65.8920   44.9570 C.2       1 83H         0.1250
      8 C11        -0.3000   66.0730   46.3990 C.2       1 83H         0.0005
      9 C12        -0.7870   65.0960   47.4410 C.3       1 83H        -0.0228
     10 C15         0.0740   67.4960   46.6070 C.2       1 83H         0.0278
     11 O24        -2.3200   58.8290   39.3150 O.2       1 83H        -0.3490
     12 C23        -1.9510   59.8350   40.0160 C.2       1 83H         0.1708
     13 N16        -2.1380   59.8050   41.3340 N.am      1 83H        -0.2294
     14 C27        -2.7380   58.6740   42.0440 C.3       1 83H         0.0531
     15 C28        -4.0330   59.1220   42.6910 C.3       1 83H        -0.0391
     16 C17        -1.3430   61.0830   39.4450 C.3       1 83H        -0.0042
     17 C26        -0.0430   60.8050   38.7050 C.3       1 83H        -0.1036
     18 C25        -2.3640   61.8170   38.5830 C.3       1 83H        -0.1036
     19 C2         -1.1720   61.8110   40.7340 C.ar      1 83H        -0.0615
     20 C3         -0.6390   63.0940   40.9560 C.ar      1 83H        -0.0335
     21 C1         -1.6930   60.9710   41.8630 C.ar      1 83H         0.0629
     22 N7         -0.1650   64.7350   42.7810 N.pl3     1 83H        -0.2637
     23 C47        -1.8900   64.2270   46.8540 C.3       1 83H        -0.0388
     24 C48         0.0560   68.2780   47.9010 C.3       1 83H        -0.0251
     25 N14         0.4400   67.9670   45.4040 N.2       1 83H        -0.2162
     26 N13         0.3790   67.0320   44.3690 N.pl3     1 83H        -0.2186
     27 H1         -2.0194   60.8735   43.9887 H         1 83H         0.0439
     28 H2         -0.4117   62.6988   46.5380 H         1 83H         0.0390
     29 H3         -2.0684   62.2640   45.9964 H         1 83H         0.0390
     30 H4         -1.1796   65.6500   48.3064 H         1 83H         0.0394
     31 H5          0.0491   64.4577   47.7628 H         1 83H         0.0394
     32 H6         -2.0442   58.3162   42.8190 H         1 83H         0.0589
     33 H7         -2.9443   57.8607   41.3327 H         1 83H         0.0589
     34 H8         -4.4877   58.2752   43.2259 H         1 83H         0.0254
     35 H9         -4.7257   59.4802   41.9153 H         1 83H         0.0254
     36 H10        -3.8256   59.9357   43.4015 H         1 83H         0.0254
     37 H11        -0.2609   60.2677   37.7702 H         1 83H         0.0045
     38 H12         0.6143   60.1897   39.3369 H         1 83H         0.0045
     39 H13         0.4575   61.7566   38.4727 H         1 83H         0.0045
     40 H14        -3.2799   61.9904   39.1671 H         1 83H         0.0045
     41 H15        -2.6029   61.2079   37.6988 H         1 83H         0.0045
     42 H16        -1.9460   62.7823   38.2613 H         1 83H         0.0045
     43 H17        -0.2711   63.6922   40.1302 H         1 83H         0.0719
     44 H18         0.2177   65.5257   42.2432 H         1 83H         0.2224
     45 H19        -2.4990   63.8205   47.6749 H         1 83H         0.0303
     46 H20        -2.5220   64.8459   46.2001 H         1 83H         0.0303
     47 H21         0.3913   69.3084   47.7114 H         1 83H         0.0372
     48 H22         0.7304   67.8008   48.6273 H         1 83H         0.0372
     49 H23        -0.9667   68.2938   48.3057 H         1 83H         0.0372
     50 H24         0.5833   67.1859   43.3712 H         1 83H         0.2471
@<TRIPOS>BOND
     1    2    1 ar 
     2    1   20 ar 
     3    1   22 1  
     4    3    2 ar 
     5    2    6 1  
     6   21    3 ar 
     7    6    4 1  
     8    4   23 1  
     9    6    5 2  
    10    5    7 1  
    11    5   22 1  
    12    7    8 2  
    13    7   26 1  
    14    8    9 1  
    15    8   10 1  
    16   23    9 1  
    17   10   24 1  
    18   10   25 2  
    19   12   11 2  
    20   13   12 am 
    21   12   16 1  
    22   13   14 1  
    23   13   21 1  
    24   14   15 1  
    25   16   17 1  
    26   16   18 1  
    27   16   19 1  
    28   19   20 ar 
    29   19   21 ar 
    30   25   26 1  
    31    3   27 1  
    32    4   28 1  
    33    4   29 1  
    34    9   30 1  
    35    9   31 1  
    36   14   32 1  
    37   14   33 1  
    38   15   34 1  
    39   15   35 1  
    40   15   36 1  
    41   17   37 1  
    42   17   38 1  
    43   17   39 1  
    44   18   40 1  
    45   18   41 1  
    46   18   42 1  
    47   20   43 1  
    48   22   44 1  
    49   23   45 1  
    50   23   46 1  
    51   24   47 1  
    52   24   48 1  
    53   24   49 1  
    54   26   50 1  
@<TRIPOS>SUBSTRUCTURE
     1 83H         1

