### 
### Created by X-TOOL on Mon Sep 10 21:12:57 2018
### 

@<TRIPOS>MOLECULE
3cow_ligand
   55    57     1     0     0
SMALL
GAST_HUCK


@<TRIPOS>ATOM
      1 C4         13.8990    9.7710   -2.5810 C.ar      1 52H         0.1613
      2 C5         14.9440   10.2780   -3.3700 C.ar      1 52H         0.1045
      3 C6         14.8260   10.1480   -4.7550 C.ar      1 52H         0.1298
      4 C8         15.4340   10.6060   -1.2940 C.2       1 52H         0.1123
      5 N1         13.6950    9.5980   -5.2450 N.ar      1 52H        -0.2698
      6 N3         12.8020    9.2040   -3.1430 N.ar      1 52H        -0.2714
      7 CAA        14.7240    8.7300    9.1040 C.3       1 52H        -0.0556
      8 CBB        14.5420    9.1160    7.6300 C.3       1 52H         0.0056
      9 CAB        13.7970   10.4470    7.6040 C.3       1 52H        -0.0556
     10 CAC        13.7600    8.0120    6.9820 C.3       1 52H        -0.0556
     11 CAX        15.9190    9.1990    6.9080 C.3       1 52H         0.1500
     12 OAH        16.6720    7.9460    7.0220 O.3       1 52H        -0.3708
     13 CAT        15.9110    9.5690    5.3990 C.2       1 52H         0.2270
     14 OAE        15.9820    8.6990    4.5240 O.2       1 52H        -0.3925
     15 NAQ        15.9210   10.8670    5.1770 N.am      1 52H        -0.1319
     16 SBE        16.0610   11.5310    3.6950 S.o2      1 52H         0.1858
     17 OAF        17.3990   11.2600    3.1300 O.2       1 52H        -0.1218
     18 OAG        15.7200   12.9560    3.7950 O.2       1 52H        -0.1218
     19 O5'        15.1560   10.9450    2.7170 O.3       1 52H        -0.2161
     20 C5'        13.7240   11.1290    2.9860 C.3       1 52H         0.1073
     21 C4'        12.8590   10.2310    2.0620 C.3       1 52H         0.1161
     22 O4'        13.0500   10.7160    0.7080 O.3       1 52H        -0.3367
     23 C3'        13.3570    8.7880    2.0830 C.3       1 52H         0.1146
     24 O3'        12.2350    7.9230    2.0590 O.3       1 52H        -0.3864
     25 C2'        14.1670    8.6820    0.7820 C.3       1 52H         0.1385
     26 O2'        14.2240    7.3520    0.2010 O.3       1 52H        -0.3836
     27 C1'        13.3770    9.6020   -0.1460 C.3       1 52H         0.2010
     28 N9         14.2200    9.9950   -1.3100 N.pl3     1 52H        -0.1919
     29 N7         15.8830   10.7930   -2.5550 N.2       1 52H        -0.2958
     30 C2         12.7290    9.1120   -4.4720 C.ar      1 52H         0.0533
     31 N6         15.7960   10.6090   -5.5710 N.pl3     1 52H        -0.3152
     32 H1         15.9690   10.9027   -0.3931 H         1 52H         0.1349
     33 H2         13.7403    8.6774    9.5934 H         1 52H         0.0237
     34 H3         15.3439    9.4866    9.6073 H         1 52H         0.0237
     35 H4         15.2182    7.7494    9.1679 H         1 52H         0.0237
     36 H5         13.6449   10.7617    6.5610 H         1 52H         0.0237
     37 H6         14.3879   11.2084    8.1343 H         1 52H         0.0237
     38 H7         12.8210   10.3307    8.0979 H         1 52H         0.0237
     39 H8         14.3387    7.0776    7.0269 H         1 52H         0.0237
     40 H9         13.5621    8.2706    5.9313 H         1 52H         0.0237
     41 H10        12.8058    7.8782    7.5127 H         1 52H         0.0237
     42 H11        16.4853    9.9857    7.4281 H         1 52H         0.0843
     43 H12        16.1716    7.2403    6.6296 H         1 52H         0.2133
     44 H13        15.8380   11.4803    5.9625 H         1 52H         0.2166
     45 H14        13.4589   12.1824    2.8128 H         1 52H         0.0611
     46 H15        13.5194   10.8670    4.0346 H         1 52H         0.0611
     47 H16        11.8010   10.2784    2.3594 H         1 52H         0.0648
     48 H17        13.9819    8.5803    2.9641 H         1 52H         0.0648
     49 H18        11.6918    8.0896    2.8203 H         1 52H         0.2100
     50 H19        15.1927    9.0475    0.9381 H         1 52H         0.0676
     51 H20        14.6243    6.7537    0.8209 H         1 52H         0.2101
     52 H21        12.4624    9.1109   -0.5098 H         1 52H         0.0996
     53 H22        11.8695    8.6340   -4.9280 H         1 52H         0.0996
     54 H23        15.7010   10.5090   -6.5917 H         1 52H         0.1820
     55 H24        16.6318   11.0610   -5.1734 H         1 52H         0.1820
@<TRIPOS>BOND
     1    1    2 ar 
     2    1    6 ar 
     3   28    1 1  
     4    2    3 ar 
     5   29    2 1  
     6    3    5 ar 
     7    3   31 1  
     8   28    4 1  
     9    4   29 2  
    10   30    5 ar 
    11    6   30 ar 
    12    8    7 1  
    13    8    9 1  
    14    8   10 1  
    15   11    8 1  
    16   11   12 1  
    17   13   11 1  
    18   13   14 2  
    19   15   13 am 
    20   16   15 am 
    21   16   17 2  
    22   16   18 2  
    23   19   16 1  
    24   20   19 1  
    25   21   20 1  
    26   22   21 1  
    27   23   21 1  
    28   27   22 1  
    29   23   24 1  
    30   25   23 1  
    31   25   26 1  
    32   27   25 1  
    33   27   28 1  
    34    4   32 1  
    35    7   33 1  
    36    7   34 1  
    37    7   35 1  
    38    9   36 1  
    39    9   37 1  
    40    9   38 1  
    41   10   39 1  
    42   10   40 1  
    43   10   41 1  
    44   11   42 1  
    45   12   43 1  
    46   15   44 1  
    47   20   45 1  
    48   20   46 1  
    49   21   47 1  
    50   23   48 1  
    51   24   49 1  
    52   25   50 1  
    53   26   51 1  
    54   27   52 1  
    55   30   53 1  
    56   31   54 1  
    57   31   55 1  
@<TRIPOS>SUBSTRUCTURE
     1 52H         1

