### 
### Created by X-TOOL on Mon Sep 10 21:12:57 2018
### 

@<TRIPOS>MOLECULE
3coy_ligand
   57    59     1     0     0
SMALL
GAST_HUCK


@<TRIPOS>ATOM
      1 C1         15.9780    9.7850    5.1690 C.2       1 53H         0.2465
      2 C2         12.9040    9.1740   -4.7500 C.ar      1 53H         0.0533
      3 C3         15.9780    9.3600    6.6230 C.3       1 53H         0.0714
      4 C4         14.0430    9.9190   -2.8510 C.ar      1 53H         0.1613
      5 C5         15.0840   10.4280   -3.6300 C.ar      1 53H         0.1045
      6 C6         14.9950   10.2820   -5.0020 C.ar      1 53H         0.1298
      7 C7         14.6110    9.3010    7.3270 C.3       1 53H         0.0226
      8 N1         13.8950    9.6540   -5.5200 N.ar      1 53H        -0.2698
      9 N2         16.0410   11.1200    4.9100 N.am      1 53H        -0.1294
     10 O1         15.9810    8.9220    4.2910 O.2       1 53H        -0.3891
     11 C8         15.5520   10.8080   -1.5320 C.2       1 53H         0.1123
     12 O2         14.3440    7.4730    0.0010 O.3       1 53H        -0.3836
     13 N3         12.9630    9.2950   -3.4200 N.ar      1 53H        -0.2714
     14 C9         13.6750    8.3350    6.6490 C.3       1 53H        -0.0527
     15 C10        14.8150    8.7990    8.7460 C.3       1 53H        -0.0527
     16 C11        13.9180   10.6620    7.4310 C.3       1 53H        -0.0527
     17 N4         16.7390    8.0470    6.8430 N.4       1 53H         0.2383
     18 S1         16.1190   11.7770    3.5160 S.o2      1 53H         0.1859
     19 O1A        17.3970   11.5100    2.9350 O.2       1 53H        -0.1218
     20 O2A        15.8100   13.1830    3.5890 O.2       1 53H        -0.1218
     21 O5         15.0660   11.1550    2.4350 O.3       1 53H        -0.2161
     22 C25        13.6620   11.3080    2.6870 C.3       1 53H         0.1073
     23 C24        12.9450   10.3860    1.7260 C.3       1 53H         0.1161
     24 C23        13.5110    8.9740    1.7970 C.3       1 53H         0.1146
     25 O3         12.4460    8.0410    1.8130 O.3       1 53H        -0.3864
     26 C22        14.2850    8.8210    0.4980 C.3       1 53H         0.1385
     27 C21        13.5160    9.7630   -0.4270 C.3       1 53H         0.2010
     28 O4         13.1860   10.8710    0.3920 O.3       1 53H        -0.3367
     29 N9         14.3640   10.1590   -1.5780 N.pl3     1 53H        -0.1919
     30 N7         16.0070   10.9830   -2.8040 N.2       1 53H        -0.2958
     31 N6         15.9960   10.7380   -5.8040 N.pl3     1 53H        -0.3152
     32 H1         12.0522    8.6861   -5.2097 H         1 53H         0.0996
     33 H2         16.5466   10.1406    7.1496 H         1 53H         0.1104
     34 H3         16.0363   11.7341    5.6992 H         1 53H         0.2167
     35 H4         16.0602   11.1361   -0.6265 H         1 53H         0.1349
     36 H5         14.7673    6.9175    0.6450 H         1 53H         0.2101
     37 H6         12.7124    8.3225    7.1812 H         1 53H         0.0238
     38 H7         14.1149    7.3269    6.6633 H         1 53H         0.0238
     39 H8         13.5141    8.6501    5.6075 H         1 53H         0.0238
     40 H9         15.4955    9.4779    9.2808 H         1 53H         0.0238
     41 H10        15.2509    7.7895    8.7187 H         1 53H         0.0238
     42 H11        13.8463    8.7662    9.2662 H         1 53H         0.0238
     43 H12        13.7493   11.0656    6.4217 H         1 53H         0.0238
     44 H13        14.5542   11.3548    8.0013 H         1 53H         0.0238
     45 H14        12.9525   10.5436    7.9446 H         1 53H         0.0238
     46 H15        17.6325    8.0947    6.3787 H         1 53H         0.2015
     47 H16        16.2041    7.2811    6.4644 H         1 53H         0.2015
     48 H17        16.8808    7.9022    7.8304 H         1 53H         0.2015
     49 H18        13.3567   12.3501    2.5116 H         1 53H         0.0611
     50 H19        13.4304   11.0278    3.7252 H         1 53H         0.0611
     51 H20        11.8679   10.3738    1.9489 H         1 53H         0.0648
     52 H21        14.1588    8.8394    2.6758 H         1 53H         0.0648
     53 H22        11.8969    8.2019    2.5714 H         1 53H         0.2100
     54 H23        15.3176    9.1759    0.6310 H         1 53H         0.0676
     55 H24        12.6020    9.2788   -0.8013 H         1 53H         0.0996
     56 H25        15.9277   10.6282   -6.8259 H         1 53H         0.1820
     57 H26        16.8217   11.1928   -5.3890 H         1 53H         0.1820
@<TRIPOS>BOND
     1    1    3 1  
     2    9    1 am 
     3    1   10 2  
     4    2    8 ar 
     5   13    2 ar 
     6    3    7 1  
     7    3   17 1  
     8    4    5 ar 
     9    4   13 ar 
    10   29    4 1  
    11    5    6 ar 
    12   30    5 1  
    13    6    8 ar 
    14    6   31 1  
    15    7   14 1  
    16    7   15 1  
    17    7   16 1  
    18   18    9 am 
    19   29   11 1  
    20   11   30 2  
    21   26   12 1  
    22   18   19 2  
    23   18   20 2  
    24   21   18 1  
    25   22   21 1  
    26   23   22 1  
    27   23   24 1  
    28   28   23 1  
    29   24   25 1  
    30   26   24 1  
    31   27   26 1  
    32   27   28 1  
    33   27   29 1  
    34    2   32 1  
    35    3   33 1  
    36    9   34 1  
    37   11   35 1  
    38   12   36 1  
    39   14   37 1  
    40   14   38 1  
    41   14   39 1  
    42   15   40 1  
    43   15   41 1  
    44   15   42 1  
    45   16   43 1  
    46   16   44 1  
    47   16   45 1  
    48   17   46 1  
    49   17   47 1  
    50   17   48 1  
    51   22   49 1  
    52   22   50 1  
    53   23   51 1  
    54   24   52 1  
    55   25   53 1  
    56   26   54 1  
    57   27   55 1  
    58   31   56 1  
    59   31   57 1  
@<TRIPOS>SUBSTRUCTURE
     1 53H         1

