### 
### Created by X-TOOL on Mon Sep 10 21:12:58 2018
### 

@<TRIPOS>MOLECULE
3cp9_ligand
   53    57     1     0     0
SMALL
GAST_HUCK


@<TRIPOS>ATOM
      1 N1         12.3550   27.5790   32.7550 N.ar      1 C19        -0.2462
      2 C2         13.2260   28.5910   33.0590 C.ar      1 C19         0.0282
      3 C3         13.6290   29.5030   32.0330 C.ar      1 C19         0.0129
      4 C4         13.1290   29.3300   30.6840 C.ar      1 C19         0.0367
      5 N5         12.2480   28.2840   30.4470 N.ar      1 C19        -0.2699
      6 C6         11.9150   27.4660   31.4700 C.ar      1 C19         0.1828
      7 C8         14.5370   30.5560   32.3280 C.ar      1 C19        -0.0505
      8 C9         14.9360   31.4590   31.2950 C.ar      1 C19        -0.0274
      9 C10        14.4310   31.2940   29.9710 C.ar      1 C19        -0.0560
     10 C11        13.5300   30.2420   29.6740 C.ar      1 C19        -0.0440
     11 N15        11.0730   26.4780   31.1930 N.pl3     1 C19        -0.3043
     12 C16        15.8810   32.5530   31.6070 C.2       1 C19         0.0484
     13 C17        15.3390   33.9320   31.9330 C.2       1 C19         0.2467
     14 N18        16.2550   34.9470   32.2460 N.am      1 C19        -0.1427
     15 C19        17.7360   34.6680   32.2460 C.2       1 C19         0.0982
     16 C20        18.1970   33.4230   31.9420 C.2       1 C19        -0.0199
     17 C21        17.2500   32.3210   31.6190 C.2       1 C19        -0.0381
     18 C22        17.9500   30.9990   31.3580 C.3       1 C19        -0.0279
     19 O26        14.1150   34.1020   31.9160 O.2       1 C19        -0.3926
     20 C27        15.7960   36.2170   32.5800 C.ar      1 C19         0.1340
     21 C28        16.1750   37.3900   31.8430 C.ar      1 C19        -0.0065
     22 C29        15.6850   38.6820   32.2290 C.ar      1 C19        -0.0562
     23 C30        14.8110   38.7730   33.3570 C.ar      1 C19        -0.0511
     24 C31        14.4510   37.6180   34.0630 C.ar      1 C19         0.0575
     25 C32        14.9210   36.3490   33.7090 C.ar      1 C19         0.0204
     26 C36        14.1530   39.9990   33.9670 C.3       1 C19        -0.0523
     27 C37        13.5170   39.3940   35.2440 C.3       1 C19        -0.0048
     28 N38        13.6280   37.9400   35.0730 N.pl3     1 C19        -0.3182
     29 C41        13.0660   40.5320   33.0250 C.3       1 C19        -0.1011
     30 C45        15.1780   41.0810   34.3190 C.3       1 C19        -0.1011
     31 H1         13.6067   28.7001   34.0681 H         1 C19         0.0976
     32 H2         14.9254   30.6736   33.3332 H         1 C19         0.0569
     33 H3         14.7385   31.9775   29.1878 H         1 C19         0.0645
     34 H4         13.1439   30.1330   28.6670 H         1 C19         0.0614
     35 H5         10.7846   25.8240   31.9346 H         1 C19         0.1827
     36 H6         10.7080   26.3653   30.2364 H         1 C19         0.1827
     37 H7         18.4389   35.4634   32.4895 H         1 C19         0.1287
     38 H8         19.2691   33.2319   31.9352 H         1 C19         0.0448
     39 H9         17.2013   30.2273   31.1259 H         1 C19         0.0426
     40 H10        18.5177   30.7019   32.2521 H         1 C19         0.0426
     41 H11        18.6380   31.1101   30.5069 H         1 C19         0.0426
     42 H12        16.8361   37.2985   30.9888 H         1 C19         0.0603
     43 H13        15.9712   39.5701   31.6773 H         1 C19         0.0754
     44 H14        14.6276   35.4761   34.2808 H         1 C19         0.0521
     45 H15        12.4620   39.6935   35.3294 H         1 C19         0.0377
     46 H16        14.0646   39.7205   36.1404 H         1 C19         0.0377
     47 H17        13.1340   37.2506   35.6574 H         1 C19         0.1882
     48 H18        13.5361   40.9568   32.1258 H         1 C19         0.0077
     49 H19        12.4859   41.3126   33.5389 H         1 C19         0.0077
     50 H20        12.3965   39.7089   32.7347 H         1 C19         0.0077
     51 H21        15.9380   40.6604   34.9939 H         1 C19         0.0077
     52 H22        14.6695   41.9198   34.8169 H         1 C19         0.0077
     53 H23        15.6628   41.4400   33.3992 H         1 C19         0.0077
@<TRIPOS>BOND
     1    1    2 ar 
     2    1    6 ar 
     3    2    3 ar 
     4    3    4 ar 
     5    3    7 ar 
     6    4    5 ar 
     7    4   10 ar 
     8    5    6 ar 
     9    6   11 1  
    10    7    8 ar 
    11    8    9 ar 
    12    8   12 1  
    13    9   10 ar 
    14   12   13 1  
    15   12   17 2  
    16   13   14 am 
    17   13   19 2  
    18   14   15 1  
    19   14   20 1  
    20   15   16 2  
    21   16   17 1  
    22   17   18 1  
    23   20   21 ar 
    24   20   25 ar 
    25   21   22 ar 
    26   22   23 ar 
    27   23   24 ar 
    28   23   26 1  
    29   24   25 ar 
    30   24   28 1  
    31   26   27 1  
    32   26   29 1  
    33   26   30 1  
    34   27   28 1  
    35    2   31 1  
    36    7   32 1  
    37    9   33 1  
    38   10   34 1  
    39   11   35 1  
    40   11   36 1  
    41   15   37 1  
    42   16   38 1  
    43   18   39 1  
    44   18   40 1  
    45   18   41 1  
    46   21   42 1  
    47   22   43 1  
    48   25   44 1  
    49   27   45 1  
    50   27   46 1  
    51   28   47 1  
    52   29   48 1  
    53   29   49 1  
    54   29   50 1  
    55   30   51 1  
    56   30   52 1  
    57   30   53 1  
@<TRIPOS>SUBSTRUCTURE
     1 C19         1

