### 
### Created by X-TOOL on Mon Sep 10 21:12:58 2018
### 

@<TRIPOS>MOLECULE
3cpb_ligand
   53    55     1     0     0
SMALL
GAST_HUCK


@<TRIPOS>ATOM
      1 C23        15.3430   41.1850   33.3450 C.3       1 C92        -0.0501
      2 C24        14.1250   41.7170   34.0900 C.3       1 C92        -0.0528
      3 C25        13.4890   40.4450   34.6370 C.3       1 C92        -0.0528
      4 C26        13.5520   39.5050   33.4370 C.3       1 C92        -0.0501
      5 C12        14.8210   39.9180   32.6670 C.3       1 C92        -0.0392
      6 C13        15.8800   38.8240   32.7780 C.3       1 C92        -0.0300
      7 C11        16.2110   38.3040   31.3820 C.3       1 C92         0.0305
      8 N10        16.7000   36.9160   31.4470 N.am      1 C92        -0.2870
      9 C8         15.8810   35.8790   31.6190 C.2       1 C92         0.2011
     10 O9         14.6640   35.9970   31.7310 O.2       1 C92        -0.3877
     11 C4         16.5210   34.4790   31.6580 C.ar      1 C92         0.0484
     12 C3         15.7170   33.3890   31.3290 C.ar      1 C92        -0.0278
     13 C5         17.8580   34.2630   31.9990 C.ar      1 C92        -0.0443
     14 C6         18.3700   32.9630   32.0060 C.ar      1 C92        -0.0489
     15 C7         17.5560   31.8750   31.6800 C.ar      1 C92        -0.0205
     16 C14        18.1530   30.4630   31.7000 C.3       1 C92        -0.0253
     17 C2         16.2160   32.0940   31.3490 C.ar      1 C92         0.0627
     18 C1         15.2590   30.9740   30.9490 C.2       1 C92         0.2272
     19 O15        14.9920   30.8290   29.7590 O.2       1 C92        -0.3777
     20 N16        14.7630   30.2180   31.9330 N.am      1 C92        -0.2349
     21 C17        13.9060   29.2000   31.7200 C.ar      1 C92         0.0799
     22 C22        13.4990   28.8210   30.4370 C.ar      1 C92        -0.0317
     23 C21        12.6090   27.7660   30.2850 C.ar      1 C92        -0.0283
     24 C20        12.1450   27.1090   31.4220 C.ar      1 C92         0.0936
     25 N27        11.2970   26.0930   31.2940 N.pl3     1 C92        -0.3300
     26 N19        12.5470   27.4910   32.6470 N.ar      1 C92        -0.3013
     27 C18        13.3940   28.4980   32.8140 C.ar      1 C92         0.0160
     28 H1         16.1593   40.9493   34.0436 H         1 C92         0.0268
     29 H2         15.6968   41.9125   32.5997 H         1 C92         0.0268
     30 H3         13.4401   42.2418   33.4078 H         1 C92         0.0265
     31 H4         14.4220   42.3944   34.9042 H         1 C92         0.0265
     32 H5         12.4493   40.6224   34.9493 H         1 C92         0.0265
     33 H6         14.0638   40.0459   35.4857 H         1 C92         0.0265
     34 H7         12.6603   39.6265   32.8045 H         1 C92         0.0268
     35 H8         13.6259   38.4591   33.7696 H         1 C92         0.0268
     36 H9         14.5861   40.1095   31.6096 H         1 C92         0.0301
     37 H10        15.4944   37.9997   33.3959 H         1 C92         0.0287
     38 H11        16.7881   39.2364   33.2420 H         1 C92         0.0287
     39 H12        16.9886   38.9404   30.9344 H         1 C92         0.0519
     40 H13        15.3050   38.3390   30.7592 H         1 C92         0.0519
     41 H14        17.6815   36.7459   31.3589 H         1 C92         0.1843
     42 H15        14.6823   33.5559   31.0522 H         1 C92         0.0705
     43 H16        18.4959   35.1005   32.2572 H         1 C92         0.0686
     44 H17        19.4089   32.7968   32.2669 H         1 C92         0.0581
     45 H18        19.2142   30.5176   31.9843 H         1 C92         0.0414
     46 H19        18.0639   30.0130   30.7002 H         1 C92         0.0414
     47 H20        17.6093   29.8453   32.4299 H         1 C92         0.0414
     48 H21        15.0412   30.4173   32.8726 H         1 C92         0.2231
     49 H22        13.8756   29.3471   29.5672 H         1 C92         0.0596
     50 H23        12.2810   27.4591   29.2984 H         1 C92         0.0577
     51 H24        10.9502   25.6030   32.1310 H         1 C92         0.1721
     52 H25        10.9868   25.7959   30.3578 H         1 C92         0.1721
     53 H26        13.6941   28.7811   33.8164 H         1 C92         0.0660
@<TRIPOS>BOND
     1    1    2 1  
     2    1    5 1  
     3    2    3 1  
     4    3    4 1  
     5    4    5 1  
     6    5    6 1  
     7    6    7 1  
     8    7    8 1  
     9    8    9 am 
    10    9   10 2  
    11    9   11 1  
    12   11   12 ar 
    13   11   13 ar 
    14   12   17 ar 
    15   13   14 ar 
    16   14   15 ar 
    17   15   16 1  
    18   15   17 ar 
    19   17   18 1  
    20   18   19 2  
    21   18   20 am 
    22   20   21 1  
    23   21   22 ar 
    24   21   27 ar 
    25   22   23 ar 
    26   23   24 ar 
    27   24   25 1  
    28   24   26 ar 
    29   26   27 ar 
    30    1   28 1  
    31    1   29 1  
    32    2   30 1  
    33    2   31 1  
    34    3   32 1  
    35    3   33 1  
    36    4   34 1  
    37    4   35 1  
    38    5   36 1  
    39    6   37 1  
    40    6   38 1  
    41    7   39 1  
    42    7   40 1  
    43    8   41 1  
    44   12   42 1  
    45   13   43 1  
    46   14   44 1  
    47   16   45 1  
    48   16   46 1  
    49   16   47 1  
    50   20   48 1  
    51   22   49 1  
    52   23   50 1  
    53   25   51 1  
    54   25   52 1  
    55   27   53 1  
@<TRIPOS>SUBSTRUCTURE
     1 C92         1

