### 
### Created by X-TOOL on Mon Sep 10 21:12:58 2018
### 

@<TRIPOS>MOLECULE
3cpc_ligand
   44    47     1     0     0
SMALL
GAST_HUCK


@<TRIPOS>ATOM
      1 C8         14.3860   30.6050   32.3980 C.ar      1 C52        -0.0530
      2 C3         13.4710   29.5970   32.0970 C.ar      1 C52         0.0112
      3 C4         13.1090   28.6440   33.0490 C.ar      1 C52         0.0274
      4 N2         12.2350   27.6940   32.7370 N.ar      1 C52        -0.2469
      5 C1         11.6840   27.6400   31.5090 C.ar      1 C52         0.1822
      6 N3         10.8050   26.6800   31.2330 N.pl3     1 C52        -0.3046
      7 N1         12.0060   28.5490   30.5640 N.ar      1 C52        -0.2706
      8 C2         12.8940   29.5300   30.8300 C.ar      1 C52         0.0358
      9 C5         13.2340   30.4780   29.8620 C.ar      1 C52        -0.0447
     10 C6         14.1550   31.4860   30.1630 C.ar      1 C52        -0.0574
     11 C7         14.7370   31.5550   31.4340 C.ar      1 C52        -0.0319
     12 C9         15.6750   32.5600   31.7250 C.2       1 C52         0.0396
     13 C10        15.2750   33.9020   31.8270 C.2       1 C52         0.2289
     14 O1         14.0920   34.2010   31.6720 O.2       1 C52        -0.4070
     15 C13        17.0390   32.2370   31.9030 C.2       1 C52        -0.0446
     16 C14        17.5620   30.7990   31.8040 C.3       1 C52        -0.0292
     17 C12        17.9800   33.2280   32.1820 C.2       1 C52        -0.0270
     18 C11        17.5860   34.5580   32.2920 C.2       1 C52         0.0871
     19 N4         16.2320   34.9150   32.1100 N.am      1 C52        -0.1544
     20 C15        15.8620   36.2750   32.2320 C.ar      1 C52         0.1401
     21 C16        14.8410   36.6400   33.1110 C.ar      1 C52         0.0021
     22 C20        16.5240   37.2660   31.4990 C.ar      1 C52         0.0020
     23 C19        16.1600   38.6090   31.6330 C.ar      1 C52        -0.0377
     24 C18        15.1310   38.9610   32.5100 C.ar      1 C52        -0.0404
     25 C17        14.4720   37.9760   33.2530 C.ar      1 C52         0.0403
     26 C21        13.3300   38.3640   34.2010 C.3       1 C52         0.3742
     27 F2         13.7330   39.2520   35.0970 F         1 C52        -0.2205
     28 F3         12.3810   38.8860   33.4320 F         1 C52        -0.2205
     29 F1         12.8450   37.3140   34.8670 F         1 C52        -0.2205
     30 H1         14.8284   30.6525   33.3865 H         1 C52         0.0551
     31 H2         13.5407   28.6788   34.0427 H         1 C52         0.0971
     32 H3         10.5580   25.9856   31.9525 H         1 C52         0.1825
     33 H4         10.3716   26.6313   30.2999 H         1 C52         0.1825
     34 H5         12.7836   30.4321   28.8771 H         1 C52         0.0612
     35 H6         14.4196   32.2177   29.4082 H         1 C52         0.0639
     36 H7         18.6482   30.7912   31.9775 H         1 C52         0.0425
     37 H8         17.3479   30.3991   30.8019 H         1 C52         0.0425
     38 H9         17.0652   30.1751   32.5616 H         1 C52         0.0425
     39 H10        19.0271   32.9598   32.3143 H         1 C52         0.0392
     40 H11        18.3241   35.3258   32.5191 H         1 C52         0.1267
     41 H12        14.3307   35.8774   33.6882 H         1 C52         0.0778
     42 H13        17.3248   36.9904   30.8224 H         1 C52         0.0811
     43 H14        16.6731   39.3728   31.0599 H         1 C52         0.0676
     44 H15        14.8424   40.0006   32.6150 H         1 C52         0.0779
@<TRIPOS>BOND
     1    1    2 ar 
     2    1   11 ar 
     3    2    3 ar 
     4    2    8 ar 
     5    3    4 ar 
     6    4    5 ar 
     7    5    6 1  
     8    5    7 ar 
     9    7    8 ar 
    10    8    9 ar 
    11    9   10 ar 
    12   10   11 ar 
    13   11   12 1  
    14   12   13 1  
    15   12   15 2  
    16   13   14 2  
    17   13   19 am 
    18   15   16 1  
    19   15   17 1  
    20   17   18 2  
    21   18   19 1  
    22   19   20 1  
    23   20   21 ar 
    24   20   22 ar 
    25   21   25 ar 
    26   22   23 ar 
    27   23   24 ar 
    28   24   25 ar 
    29   25   26 1  
    30   26   27 1  
    31   26   28 1  
    32   26   29 1  
    33    1   30 1  
    34    3   31 1  
    35    6   32 1  
    36    6   33 1  
    37    9   34 1  
    38   10   35 1  
    39   16   36 1  
    40   16   37 1  
    41   16   38 1  
    42   17   39 1  
    43   18   40 1  
    44   21   41 1  
    45   22   42 1  
    46   23   43 1  
    47   24   44 1  
@<TRIPOS>SUBSTRUCTURE
     1 C52         1

