### 
### Created by X-TOOL on Mon Sep 10 21:12:58 2018
### 

@<TRIPOS>MOLECULE
3cqu_ligand
   35    38     1     0     0
SMALL
GAST_HUCK


@<TRIPOS>ATOM
      1 N3          4.9390    3.9800   17.4130 N.pl3     1 CQU        -0.2522
      2 C7          6.0130    4.5650   18.1050 C.ar      1 CQU         0.0770
      3 C6          2.3590    2.4730   16.3870 C.2       1 CQU        -0.0539
      4 C13         6.3450    5.9000   18.0010 C.ar      1 CQU        -0.0359
      5 C21         6.5670    0.2390   19.8470 C.2       1 CQU         0.1374
      6 C8          2.6400    6.5180   16.2000 C.ar      1 CQU         0.0514
      7 C16         7.3870    6.4430   18.7080 C.ar      1 CQU        -0.0707
      8 C19         8.1690    5.6720   19.5160 C.ar      1 CQU        -0.0721
      9 C22         6.8740   -0.8950   20.7590 C.3       1 CQU         0.0200
     10 N18         7.0080    1.4850   20.1000 N.2       1 CQU        -0.2936
     11 N20         5.8760    0.2380   18.7270 N.pl3     1 CQU        -0.1928
     12 N17         5.8840    1.4720   18.2900 N.2       1 CQU        -0.2025
     13 C14         6.5580    2.2810   19.0950 C.2       1 CQU         0.0841
     14 C12         6.7990    3.7510   18.9540 C.ar      1 CQU         0.0244
     15 C15         7.8620    4.3360   19.6360 C.ar      1 CQU        -0.0611
     16 C1          3.8220    4.6370   16.8820 C.ar      1 CQU         0.1393
     17 C2          2.6960    3.8720   16.4190 C.ar      1 CQU         0.0473
     18 C5          1.5760    4.5290   15.8360 C.ar      1 CQU         0.1366
     19 N9          0.6620    3.5870   15.5230 N.pl3     1 CQU        -0.2661
     20 C11         1.1290    2.3520   15.8560 C.2       1 CQU         0.0253
     21 N10         1.5900    5.8560   15.7640 N.ar      1 CQU        -0.2761
     22 N4          3.7020    5.9600   16.7740 N.ar      1 CQU        -0.2693
     23 H1          4.9774    2.9590   17.2824 H         1 CQU         0.2195
     24 H2          2.9897    1.6552   16.7324 H         1 CQU         0.0311
     25 H3          5.7662    6.5373   17.3423 H         1 CQU         0.0539
     26 H4          2.6395    7.5957   16.0830 H         1 CQU         0.0978
     27 H5          7.5926    7.5039   18.6230 H         1 CQU         0.0590
     28 H6          9.0100    6.0999   20.0496 H         1 CQU         0.0524
     29 H7          7.4771   -0.5326   21.6045 H         1 CQU         0.0491
     30 H8          7.4368   -1.6647   20.2105 H         1 CQU         0.0491
     31 H9          5.9352   -1.3264   21.1366 H         1 CQU         0.0491
     32 H10         5.4200   -0.5718   18.2830 H         1 CQU         0.2585
     33 H11         8.4702    3.7166   20.2853 H         1 CQU         0.0594
     34 H12        -0.2556    3.7748   15.0945 H         1 CQU         0.2319
     35 H13         0.5920    1.4152   15.7149 H         1 CQU         0.0926
@<TRIPOS>BOND
     1    1    2 1  
     2   16    1 1  
     3    2    4 ar 
     4    2   14 ar 
     5   17    3 1  
     6    3   20 2  
     7    4    7 ar 
     8    5    9 1  
     9   10    5 2  
    10   11    5 1  
    11    6   21 ar 
    12   22    6 ar 
    13    7    8 ar 
    14   15    8 ar 
    15   13   10 1  
    16   12   11 1  
    17   13   12 2  
    18   14   13 1  
    19   14   15 ar 
    20   16   17 ar 
    21   16   22 ar 
    22   17   18 ar 
    23   18   19 1  
    24   18   21 ar 
    25   19   20 1  
    26    1   23 1  
    27    3   24 1  
    28    4   25 1  
    29    6   26 1  
    30    7   27 1  
    31    8   28 1  
    32    9   29 1  
    33    9   30 1  
    34    9   31 1  
    35   11   32 1  
    36   15   33 1  
    37   19   34 1  
    38   20   35 1  
@<TRIPOS>SUBSTRUCTURE
     1 CQU         1

