### 
### Created by X-TOOL on Mon Sep 10 21:12:58 2018
### 

@<TRIPOS>MOLECULE
3cqw_ligand
   30    33     1     0     0
SMALL
GAST_HUCK


@<TRIPOS>ATOM
      1 C7          3.5050    3.6640   15.7790 C.ar      1 CQW         0.1365
      2 C9          4.6600    5.6530   16.1330 C.ar      1 CQW         0.0501
      3 C13         4.6550    2.8970   16.0700 C.ar      1 CQW         0.0574
      4 C21         8.1540    3.3920   19.3700 C.2       1 CQW         0.0524
      5 N5          2.4620    2.7910   15.5040 N.pl3     1 CQW        -0.2649
      6 C18         8.4480    4.4160   18.3160 C.3       1 CQW         0.0174
      7 CL1         5.1890    0.0340   16.0180 Cl        1 CQW        -0.1036
      8 C2          4.2380    1.4870   15.8800 C.2       1 CQW         0.0454
      9 C3          2.9290    1.5050   15.5760 C.2       1 CQW         0.0399
     10 N8          3.5360    4.9980   15.8130 N.ar      1 CQW        -0.2770
     11 C12         5.8100    3.6280   16.4240 C.ar      1 CQW         0.1227
     12 N11         5.7690    4.9660   16.3990 N.ar      1 CQW        -0.2728
     13 N14         7.0580    3.0390   16.7200 N.pl3     1 CQW        -0.2811
     14 C28         7.1640    1.8790   17.6360 C.3       1 CQW         0.0547
     15 C27         7.5980    2.2150   19.0420 C.2       1 CQW         0.0124
     16 N26         7.6210    1.4130   20.1620 N.2       1 CQW        -0.3365
     17 C24         8.1940    2.0980   21.1470 C.2       1 CQW         0.0834
     18 N22         8.5560    3.3120   20.6860 N.pl3     1 CQW        -0.2706
     19 C15         8.2690    3.8790   16.8780 C.3       1 CQW         0.0434
     20 H1          4.6665    6.7362   16.1751 H         1 CQW         0.0976
     21 H2          1.4943    3.0652   15.2819 H         1 CQW         0.2326
     22 H3          9.4882    4.7527   18.4363 H         1 CQW         0.0435
     23 H4          7.7678    5.2688   18.4578 H         1 CQW         0.0435
     24 H5          2.3213    0.6169   15.4093 H         1 CQW         0.0940
     25 H6          7.8952    1.1750   17.2121 H         1 CQW         0.0609
     26 H7          6.1776    1.3951   17.6897 H         1 CQW         0.0609
     27 H8          8.3464    1.7365   22.1629 H         1 CQW         0.1131
     28 H9          9.0438    4.0456   21.2196 H         1 CQW         0.2347
     29 H10         9.1507    3.2754   16.6169 H         1 CQW         0.0550
     30 H11         8.1940    4.7348   16.1910 H         1 CQW         0.0550
@<TRIPOS>BOND
     1    3    1 ar 
     2    1    5 1  
     3    1   10 ar 
     4    2   10 ar 
     5   12    2 ar 
     6    3    8 1  
     7   11    3 ar 
     8    6    4 1  
     9    4   15 2  
    10    4   18 1  
    11    9    5 1  
    12   19    6 1  
    13    8    7 1  
    14    8    9 2  
    15   11   12 ar 
    16   13   11 1  
    17   13   14 1  
    18   13   19 1  
    19   14   15 1  
    20   15   16 1  
    21   16   17 2  
    22   17   18 1  
    23    2   20 1  
    24    5   21 1  
    25    6   22 1  
    26    6   23 1  
    27    9   24 1  
    28   14   25 1  
    29   14   26 1  
    30   17   27 1  
    31   18   28 1  
    32   19   29 1  
    33   19   30 1  
@<TRIPOS>SUBSTRUCTURE
     1 CQW         1

