### 
### Created by X-TOOL on Mon Sep 10 21:12:58 2018
### 

@<TRIPOS>MOLECULE
3cr4_ligand
   51    52     1     0     0
SMALL
GAST_HUCK


@<TRIPOS>ATOM
      1 C1         -0.6780    2.6850   23.7370 C.ar      1 PNT         0.0911
      2 C2         -1.6280    2.8480   22.7270 C.ar      1 PNT        -0.0332
      3 C3         -2.6650    1.9220   22.5850 C.ar      1 PNT        -0.0654
      4 C4         -2.7640    0.8270   23.4510 C.ar      1 PNT         0.0145
      5 C5         -1.8120    0.6740   24.4580 C.ar      1 PNT        -0.0654
      6 C6         -0.7760    1.5950   24.6030 C.ar      1 PNT        -0.0332
      7 C7          1.6440    3.1500   24.2990 C.3       1 PNT         0.0704
      8 C8          2.7330    4.1850   24.0160 C.3       1 PNT        -0.0250
      9 C9         -3.8870   -0.1740   23.3110 C.cat     1 PNT         0.2294
     10 C10         4.0840    3.5120   23.7730 C.3       1 PNT        -0.0482
     11 C1'         3.6500   -0.4240   25.0580 C.ar      1 PNT         0.0911
     12 C2'         4.6000   -1.2790   25.6070 C.ar      1 PNT        -0.0332
     13 C3'         4.2400   -2.5490   26.0450 C.ar      1 PNT        -0.0654
     14 C4'         2.9190   -2.9780   25.9480 C.ar      1 PNT         0.0145
     15 C5'         1.9600   -2.1250   25.3960 C.ar      1 PNT        -0.0654
     16 C6'         2.3250   -0.8530   24.9510 C.ar      1 PNT        -0.0332
     17 C7'         5.0640    1.6080   25.1700 C.3       1 PNT         0.0704
     18 C8'         4.7660    3.1060   25.0790 C.3       1 PNT        -0.0250
     19 C9'         2.5490   -4.3540   26.4330 C.cat     1 PNT         0.2294
     20 O1          0.3480    3.5930   23.8780 O.3       1 PNT        -0.3180
     21 O1'         3.9990    0.8300   24.6110 O.3       1 PNT        -0.3180
     22 N1         -3.8740   -1.2600   23.9530 N.pl3     1 PNT        -0.2733
     23 N2         -4.9100    0.0700   22.4910 N.pl3     1 PNT        -0.2733
     24 N1'         3.4020   -5.2810   26.4160 N.pl3     1 PNT        -0.2733
     25 N2'         1.3230   -4.6090   26.8900 N.pl3     1 PNT        -0.2733
     26 H1         -1.5612    3.6937   22.0522 H         1 PNT         0.0542
     27 H2         -3.3986    2.0529   21.7978 H         1 PNT         0.0588
     28 H3         -1.8782   -0.1699   25.1351 H         1 PNT         0.0588
     29 H4         -0.0436    1.4642   25.3914 H         1 PNT         0.0542
     30 H5          1.6160    2.9532   25.3809 H         1 PNT         0.0614
     31 H6          1.8912    2.2214   23.7636 H         1 PNT         0.0614
     32 H7          2.8189    4.8611   24.8795 H         1 PNT         0.0291
     33 H8          2.4547    4.7641   23.1231 H         1 PNT         0.0291
     34 H9          4.7381    4.2133   23.2342 H         1 PNT         0.0267
     35 H10         3.9271    2.6122   23.1600 H         1 PNT         0.0267
     36 H11         5.6300   -0.9526   25.6942 H         1 PNT         0.0542
     37 H12         4.9917   -3.2081   26.4640 H         1 PNT         0.0588
     38 H13         0.9297   -2.4517   25.3130 H         1 PNT         0.0588
     39 H14         1.5776   -0.1961   24.5210 H         1 PNT         0.0542
     40 H15         5.1927    1.3319   26.2270 H         1 PNT         0.0614
     41 H16         5.9917    1.3932   24.6193 H         1 PNT         0.0614
     42 H17         4.1080    3.3818   25.9162 H         1 PNT         0.0291
     43 H18         5.7151    3.6557   25.1621 H         1 PNT         0.0291
     44 H19        -4.6480   -1.9311   23.8455 H         1 PNT         0.3180
     45 H20        -3.0894   -1.4755   24.5846 H         1 PNT         0.3180
     46 H21        -4.9429    0.9497   21.9562 H         1 PNT         0.3180
     47 H22        -5.6673   -0.6212   22.3925 H         1 PNT         0.3180
     48 H23         3.1467   -6.2219   26.7483 H         1 PNT         0.3180
     49 H24         4.3546   -5.0980   26.0698 H         1 PNT         0.3180
     50 H25         0.6150   -3.8612   26.9100 H         1 PNT         0.3180
     51 H26         1.0837   -5.5538   27.2231 H         1 PNT         0.3180
@<TRIPOS>BOND
     1    1    2 ar 
     2    1    6 ar 
     3   20    1 1  
     4    2    3 ar 
     5    3    4 ar 
     6    5    4 ar 
     7    4    9 1  
     8    6    5 ar 
     9    8    7 1  
    10    7   20 1  
    11   10    8 1  
    12    9   22 ar 
    13    9   23 ar 
    14   18   10 1  
    15   11   12 ar 
    16   11   16 ar 
    17   21   11 1  
    18   12   13 ar 
    19   13   14 ar 
    20   15   14 ar 
    21   14   19 1  
    22   16   15 ar 
    23   17   18 1  
    24   17   21 1  
    25   19   24 ar 
    26   19   25 ar 
    27    2   26 1  
    28    3   27 1  
    29    5   28 1  
    30    6   29 1  
    31    7   30 1  
    32    7   31 1  
    33    8   32 1  
    34    8   33 1  
    35   10   34 1  
    36   10   35 1  
    37   12   36 1  
    38   13   37 1  
    39   15   38 1  
    40   16   39 1  
    41   17   40 1  
    42   17   41 1  
    43   18   42 1  
    44   18   43 1  
    45   22   44 1  
    46   22   45 1  
    47   23   46 1  
    48   23   47 1  
    49   24   48 1  
    50   24   49 1  
    51   25   50 1  
    52   25   51 1  
@<TRIPOS>SUBSTRUCTURE
     1 PNT         1

