### 
### Created by X-TOOL on Fri Sep 26 17:34:40 2014
### 

@<TRIPOS>MOLECULE
3cr5_ligand
   51    52     1     0     0
SMALL
GAST_HUCK


@<TRIPOS>ATOM
      1 C1         -0.9960    2.6430   24.6340 C.ar      1 PNT         0.0911
      2 C2          0.1760    2.0610   25.0990 C.ar      1 PNT        -0.0332
      3 C3          1.1700    2.7980   25.7200 C.ar      1 PNT        -0.0654
      4 C4          0.9830    4.1570   25.8680 C.ar      1 PNT         0.0145
      5 C5         -0.1850    4.7470   25.4200 C.ar      1 PNT        -0.0654
      6 C6         -1.1710    4.0020   24.8010 C.ar      1 PNT        -0.0332
      7 C7         -1.9160    0.5670   23.7800 C.3       1 PNT         0.0704
      8 C8         -0.4840    0.1840   23.4410 C.3       1 PNT        -0.0250
      9 C9          2.0030    5.0230   26.5260 C.cat     1 PNT         0.2294
     10 C10        -0.0820   -0.9680   24.3350 C.3       1 PNT        -0.0482
     11 C1'         2.5740   -0.7960   25.4770 C.ar      1 PNT         0.0911
     12 C2'         2.1530    0.4910   25.1540 C.ar      1 PNT        -0.0332
     13 C3'         2.9650    1.4050   24.5010 C.ar      1 PNT        -0.0654
     14 C4'         4.2500    1.0190   24.1880 C.ar      1 PNT         0.0145
     15 C5'         4.6860   -0.2590   24.5000 C.ar      1 PNT        -0.0654
     16 C6'         3.8600   -1.1680   25.1410 C.ar      1 PNT        -0.0332
     17 C7'         0.5610   -1.3430   26.7270 C.3       1 PNT         0.0704
     18 C8'        -0.3460   -0.5820   25.7790 C.3       1 PNT        -0.0250
     19 C9'         5.2020    1.9300   23.4860 C.cat     1 PNT         0.2294
     20 O1         -1.9970    1.9450   24.0130 O.3       1 PNT        -0.3180
     21 O1'         1.7710   -1.7140   26.1100 O.3       1 PNT        -0.3180
     22 N1          3.2320    4.8420   26.3310 N.pl3     1 PNT        -0.2733
     23 N2          1.6040    6.0190   27.3130 N.pl3     1 PNT        -0.2733
     24 N1'         5.1430    3.1870   23.5860 N.pl3     1 PNT        -0.2733
     25 N2'         6.1400    1.3680   22.7250 N.pl3     1 PNT        -0.2733
     26 H1          0.3173    0.9938   24.9715 H         1 PNT         0.0542
     27 H2          2.0730    2.3191   26.0811 H         1 PNT         0.0588
     28 H3         -0.3297    5.8126   25.5568 H         1 PNT         0.0588
     29 H4         -2.0767    4.4823   24.4486 H         1 PNT         0.0542
     30 H5         -2.2349    0.0250   24.6825 H         1 PNT         0.0614
     31 H6         -2.5739    0.2997   22.9400 H         1 PNT         0.0614
     32 H7          0.1826    1.0415   23.6153 H         1 PNT         0.0291
     33 H8         -0.4195   -0.1223   22.3865 H         1 PNT         0.0291
     34 H9          0.9879   -1.1848   24.2000 H         1 PNT         0.0267
     35 H10        -0.6722   -1.8596   24.0769 H         1 PNT         0.0267
     36 H11         1.1472    0.7912   25.4247 H         1 PNT         0.0542
     37 H12         2.6003    2.3930   24.2445 H         1 PNT         0.0588
     38 H13         5.6954   -0.5538   24.2367 H         1 PNT         0.0588
     39 H14         4.2206   -2.1628   25.3766 H         1 PNT         0.0542
     40 H15         0.0408   -2.2514   27.0648 H         1 PNT         0.0614
     41 H16         0.7850   -0.7047   27.5944 H         1 PNT         0.0614
     42 H17        -1.3936   -0.8098   26.0251 H         1 PNT         0.0291
     43 H18        -0.1670    0.4965   25.9002 H         1 PNT         0.0291
     44 H19         3.9220    5.4504   26.7943 H         1 PNT         0.3180
     45 H20         3.5486    4.0854   25.7080 H         1 PNT         0.3180
     46 H21         0.5992    6.1742   27.4780 H         1 PNT         0.3180
     47 H22         2.2999    6.6348   27.7572 H         1 PNT         0.3180
     48 H23         5.8218    3.7761   23.0829 H         1 PNT         0.3180
     49 H24         4.4161    3.6236   24.1707 H         1 PNT         0.3180
     50 H25         6.1898    0.3425   22.6421 H         1 PNT         0.3180
     51 H26         6.8154    1.9589   22.2195 H         1 PNT         0.3180
@<TRIPOS>BOND
     1    1    2 ar 
     2    1    6 ar 
     3   20    1 1  
     4    2    3 ar 
     5    3    4 ar 
     6    5    4 ar 
     7    4    9 1  
     8    6    5 ar 
     9    8    7 1  
    10    7   20 1  
    11   10    8 1  
    12    9   22 ar 
    13    9   23 ar 
    14   18   10 1  
    15   11   12 ar 
    16   11   16 ar 
    17   21   11 1  
    18   12   13 ar 
    19   13   14 ar 
    20   15   14 ar 
    21   14   19 1  
    22   16   15 ar 
    23   17   18 1  
    24   17   21 1  
    25   19   24 ar 
    26   19   25 ar 
    27    2   26 1  
    28    3   27 1  
    29    5   28 1  
    30    6   29 1  
    31    7   30 1  
    32    7   31 1  
    33    8   32 1  
    34    8   33 1  
    35   10   34 1  
    36   10   35 1  
    37   12   36 1  
    38   13   37 1  
    39   15   38 1  
    40   16   39 1  
    41   17   40 1  
    42   17   41 1  
    43   18   42 1  
    44   18   43 1  
    45   22   44 1  
    46   22   45 1  
    47   23   46 1  
    48   23   47 1  
    49   24   48 1  
    50   24   49 1  
    51   25   50 1  
    52   25   51 1  
@<TRIPOS>SUBSTRUCTURE
     1 PNT         1

