### 
### Created by X-TOOL on Mon Sep 10 21:12:59 2018
### 

@<TRIPOS>MOLECULE
3cs7_ligand
   67    72     1     0     0
SMALL
GAST_HUCK


@<TRIPOS>ATOM
      1 C13         6.4920   44.2950   62.9000 C.2       1 LG0         0.2032
      2 C18         7.1780   39.4260   59.5710 C.ar      1 LG0        -0.0514
      3 C17         8.3690   38.9470   57.4150 C.3       1 LG0        -0.0220
      4 C16         7.8340   39.9650   58.3920 C.ar      1 LG0        -0.0684
      5 C15        13.0020   44.0880   66.6190 C.3       1 LG0         0.0592
      6 C19         4.2110   43.9350   61.9200 C.3       1 LG0         0.0108
      7 C20         4.7900   42.5740   61.5530 C.3       1 LG0         0.0757
      8 C21         9.7640   39.0120   56.8020 C.3       1 LG0        -0.0896
      9 C22         6.6150   40.3540   60.5070 C.ar      1 LG0        -0.0045
     10 C23         7.5080   38.0970   56.5170 C.3       1 LG0        -0.0614
     11 C11         3.4680   45.8870   64.4670 C.3       1 LG0         0.3818
     12 C12         5.1180   44.5310   62.9530 C.2       1 LG0         0.0251
     13 C27         6.6720   39.5550   54.7150 C.3       1 LG0        -0.0328
     14 C1         11.0820   44.9150   65.3080 C.ar      1 LG0         0.0895
     15 C2         10.6740   45.9540   64.3480 C.ar      1 LG0        -0.0313
     16 C3          9.2930   46.0160   63.8930 C.ar      1 LG0        -0.0258
     17 C4          8.3470   45.0200   64.4120 C.ar      1 LG0         0.1204
     18 C5          8.7300   44.0190   65.4220 C.ar      1 LG0        -0.0258
     19 C6         10.1110   43.9590   65.8760 C.ar      1 LG0        -0.0313
     20 N1          7.0350   44.9820   63.9550 N.pl3     1 LG0        -0.1231
     21 N6          6.0170   45.6140   64.6260 N.2       1 LG0        -0.1405
     22 N5          6.2350   42.6430   61.2020 N.am      1 LG0        -0.1908
     23 C7          6.7340   41.7890   60.2370 C.ar      1 LG0         0.1122
     24 C44         7.3940   42.3360   59.0430 C.ar      1 LG0        -0.0045
     25 C14         7.9720   41.3910   58.1000 C.ar      1 LG0        -0.0514
     26 C8          7.0840   43.4520   61.9430 C.2       1 LG0         0.2767
     27 C10         4.8430   45.3660   64.0480 C.2       1 LG0         0.1285
     28 O3          8.3040   43.4460   61.8020 O.2       1 LG0        -0.3684
     29 F1          3.5990   46.9260   65.3180 F         1 LG0        -0.2240
     30 F2          2.8140   46.2820   63.3860 F         1 LG0        -0.2240
     31 F3          2.8480   44.8800   65.0790 F         1 LG0        -0.2240
     32 O1         12.4400   44.9310   65.6230 O.3       1 LG0        -0.3220
     33 C9          9.4960   38.0090   57.8790 C.3       1 LG0        -0.0896
     34 N2          6.3770   38.8800   55.9970 N.4       1 LG0         0.2270
     35 C25         5.1690   38.0440   55.7360 C.3       1 LG0        -0.0328
     36 C29         5.0260   38.0480   54.2250 C.3       1 LG0        -0.0078
     37 C30         5.3410   39.5120   53.9820 C.3       1 LG0        -0.0078
     38 H1          7.1164   38.3566   59.7374 H         1 LG0         0.0800
     39 H2         14.0834   44.2762   66.6911 H         1 LG0         0.0577
     40 H3         12.8302   43.0357   66.3484 H         1 LG0         0.0577
     41 H4         12.5276   44.2994   67.5887 H         1 LG0         0.0577
     42 H5          3.1973   43.8164   62.3302 H         1 LG0         0.0450
     43 H6          4.1736   44.5821   61.0312 H         1 LG0         0.0450
     44 H7          4.2363   42.1766   60.6896 H         1 LG0         0.0645
     45 H8          4.6677   41.8961   62.4106 H         1 LG0         0.0645
     46 H9         10.4123   39.8762   57.0089 H         1 LG0         0.0124
     47 H10         9.9228   38.6739   55.7674 H         1 LG0         0.0124
     48 H11         6.1102   40.0004   61.3987 H         1 LG0         0.0629
     49 H12         7.1225   37.2406   57.0896 H         1 LG0         0.0671
     50 H13         8.1135   37.7320   55.6743 H         1 LG0         0.0671
     51 H14         7.4482   39.0137   54.1542 H         1 LG0         0.0814
     52 H15         6.9965   40.5927   54.8817 H         1 LG0         0.0814
     53 H16        11.4000   46.6706   63.9812 H         1 LG0         0.0542
     54 H17         8.9716   46.7764   63.1904 H         1 LG0         0.0598
     55 H18         7.9912   43.3345   65.8228 H         1 LG0         0.0598
     56 H19        10.4201   43.2285   66.6149 H         1 LG0         0.0542
     57 H20         7.4481   43.4050   58.8713 H         1 LG0         0.0629
     58 H21         8.4880   41.7328   57.2101 H         1 LG0         0.0800
     59 H22         9.4546   36.9376   57.6334 H         1 LG0         0.0124
     60 H23         9.9442   38.1399   58.8750 H         1 LG0         0.0124
     61 H24         6.1497   39.5779   56.6879 H         1 LG0         0.2022
     62 H25         4.2806   38.4845   56.2121 H         1 LG0         0.0814
     63 H26         5.3160   37.0201   56.1102 H         1 LG0         0.0814
     64 H27         4.0083   37.7826   53.9029 H         1 LG0         0.0319
     65 H28         5.7510   37.3801   53.7369 H         1 LG0         0.0319
     66 H29         5.4448   39.7456   52.9121 H         1 LG0         0.0319
     67 H30         4.5933   40.1812   54.4327 H         1 LG0         0.0319
@<TRIPOS>BOND
     1   12    1 2  
     2    1   20 1  
     3    1   26 1  
     4    2    4 ar 
     5    9    2 ar 
     6    4    3 1  
     7    3    8 1  
     8    3   10 1  
     9    3   33 1  
    10    4   25 ar 
    11   32    5 1  
    12    7    6 1  
    13    6   12 1  
    14   22    7 1  
    15   33    8 1  
    16   23    9 ar 
    17   10   34 1  
    18   27   11 1  
    19   11   29 1  
    20   11   30 1  
    21   11   31 1  
    22   12   27 1  
    23   34   13 1  
    24   13   37 1  
    25   15   14 ar 
    26   19   14 ar 
    27   14   32 1  
    28   16   15 ar 
    29   17   16 ar 
    30   17   18 ar 
    31   20   17 1  
    32   18   19 ar 
    33   21   20 1  
    34   27   21 2  
    35   22   23 1  
    36   22   26 am 
    37   23   24 ar 
    38   24   25 ar 
    39   26   28 2  
    40   34   35 1  
    41   35   36 1  
    42   36   37 1  
    43    2   38 1  
    44    5   39 1  
    45    5   40 1  
    46    5   41 1  
    47    6   42 1  
    48    6   43 1  
    49    7   44 1  
    50    7   45 1  
    51    8   46 1  
    52    8   47 1  
    53    9   48 1  
    54   10   49 1  
    55   10   50 1  
    56   13   51 1  
    57   13   52 1  
    58   15   53 1  
    59   16   54 1  
    60   18   55 1  
    61   19   56 1  
    62   24   57 1  
    63   25   58 1  
    64   33   59 1  
    65   33   60 1  
    66   34   61 1  
    67   35   62 1  
    68   35   63 1  
    69   36   64 1  
    70   36   65 1  
    71   37   66 1  
    72   37   67 1  
@<TRIPOS>SUBSTRUCTURE
     1 LG0         1

