### 
### Created by X-TOOL on Mon Sep 10 21:13:00 2018
### 

@<TRIPOS>MOLECULE
3cso_ligand
   65    69     1     0     0
SMALL
GAST_HUCK


@<TRIPOS>ATOM
      1 C1         28.4620    4.6460   31.1020 C.3       1 XNI         0.0186
      2 C2         27.5140    3.8360   31.9930 C.3       1 XNI        -0.0069
      3 C3         26.2150    3.6230   31.2370 C.3       1 XNI         0.0154
      4 C4         25.5850    4.8330   30.5820 C.2       1 XNI         0.0553
      5 C5         26.3610    5.8850   30.1690 C.2       1 XNI         0.0393
      6 C6         27.8070    5.8450   30.4620 C.2       1 XNI         0.0906
      7 C8         23.1850    5.4750   29.9730 C.ar      1 XNI         0.0873
      8 N10        24.7600    6.6570   28.6000 N.am      1 XNI        -0.2080
      9 C11        25.8070    7.1410   29.4940 C.3       1 XNI         0.1088
     10 C12        21.9080    5.2900   30.4690 C.ar      1 XNI        -0.0510
     11 C15        22.4110    7.3710   28.7420 C.ar      1 XNI        -0.0496
     12 C16        25.2720    8.2480   30.4110 C.ar      1 XNI        -0.0212
     13 C17        25.0990    6.2300   27.3060 C.2       1 XNI         0.2032
     14 C19        24.0590    5.6640   26.3630 C.3       1 XNI         0.0315
     15 C21        24.7370   10.5470   30.7730 C.ar      1 XNI         0.0617
     16 C23        24.3750    8.9570   32.5050 C.ar      1 XNI        -0.0387
     17 C24        24.8530    7.9620   31.6930 C.ar      1 XNI        -0.0655
     18 O25        23.8290   11.2510   32.8280 O.3       1 XNI        -0.3092
     19 C27        25.0250   10.9430   34.9160 C.ar      1 XNI        -0.0130
     20 C30        27.5110   10.7650   36.1240 C.ar      1 XNI        -0.0687
     21 C31        27.3510   11.5620   34.9970 C.ar      1 XNI        -0.0685
     22 C32        26.1110   11.6430   34.3950 C.ar      1 XNI        -0.0578
     23 C34        28.1600    2.4810   32.3370 C.3       1 XNI        -0.0556
     24 C35        27.1650    4.6100   33.2770 C.3       1 XNI        -0.0556
     25 CL36       24.6680   12.1750   30.2530 Cl        1 XNI        -0.0805
     26 C20        25.2180    9.5530   29.9500 C.ar      1 XNI        -0.0518
     27 C22        24.3150   10.2550   32.0440 C.ar      1 XNI         0.1010
     28 C26        23.6720   11.0580   34.2330 C.3       1 XNI         0.1030
     29 C29        26.4370   10.0630   36.6510 C.ar      1 XNI        -0.0685
     30 C28        25.1880   10.1510   36.0440 C.ar      1 XNI        -0.0578
     31 O33        28.4970    6.7960   30.2150 O.2       1 XNI        -0.4149
     32 O18        26.2490    6.3450   26.9240 O.2       1 XNI        -0.3860
     33 C9         23.4440    6.5160   29.1120 C.ar      1 XNI         0.0977
     34 C14        21.1280    7.1900   29.2340 C.ar      1 XNI        -0.0874
     35 C13        20.8820    6.1450   30.1060 C.ar      1 XNI        -0.0871
     36 N7         24.2130    4.6310   30.4380 N.pl3     1 XNI        -0.2728
     37 H1         28.8385    3.9879   30.3050 H         1 XNI         0.0475
     38 H2         29.3042    4.9960   31.7170 H         1 XNI         0.0475
     39 H3         25.4824    3.2138   31.9482 H         1 XNI         0.0496
     40 H4         26.4107    2.8840   30.4461 H         1 XNI         0.0496
     41 H5         26.6150    7.5874   28.8958 H         1 XNI         0.0804
     42 H6         21.7086    4.4686   31.1477 H         1 XNI         0.0487
     43 H7         22.6121    8.1893   28.0601 H         1 XNI         0.0464
     44 H8         24.5367    5.3945   25.4095 H         1 XNI         0.0471
     45 H9         23.2790    6.4182   26.1820 H         1 XNI         0.0471
     46 H10        23.6057    4.7680   26.8121 H         1 XNI         0.0471
     47 H11        24.0438    8.7234   33.5104 H         1 XNI         0.0525
     48 H12        24.9020    6.9435   32.0610 H         1 XNI         0.0532
     49 H13        28.4842   10.6912   36.5957 H         1 XNI         0.0559
     50 H14        28.1918   12.1150   34.5942 H         1 XNI         0.0599
     51 H15        25.9816   12.2559   33.5103 H         1 XNI         0.0557
     52 H16        29.0992    2.6509   32.8839 H         1 XNI         0.0238
     53 H17        28.3708    1.9292   31.4091 H         1 XNI         0.0238
     54 H18        27.4716    1.8951   32.9638 H         1 XNI         0.0238
     55 H19        26.7054    5.5733   33.0109 H         1 XNI         0.0238
     56 H20        28.0818    4.7892   33.8578 H         1 XNI         0.0238
     57 H21        26.4583    4.0207   33.8798 H         1 XNI         0.0238
     58 H22        25.5526    9.7907   28.9467 H         1 XNI         0.0535
     59 H23        23.0997   10.1352   34.4086 H         1 XNI         0.0776
     60 H24        23.1261   11.9142   34.6560 H         1 XNI         0.0776
     61 H25        26.5703    9.4475   37.5333 H         1 XNI         0.0599
     62 H26        24.3456    9.6031   36.4505 H         1 XNI         0.0557
     63 H27        20.3276    7.8589   28.9391 H         1 XNI         0.0479
     64 H28        19.8853    5.9956   30.5052 H         1 XNI         0.0459
     65 H29        23.8927    3.6946   30.7234 H         1 XNI         0.2128
@<TRIPOS>BOND
     1    1    2 1  
     2    6    1 1  
     3    3    2 1  
     4    2   23 1  
     5    2   24 1  
     6    4    3 1  
     7    5    4 2  
     8    4   36 1  
     9    5    6 1  
    10    9    5 1  
    11    6   31 2  
    12    7   10 ar 
    13   33    7 ar 
    14    7   36 1  
    15    9    8 1  
    16    8   13 am 
    17    8   33 1  
    18   12    9 1  
    19   10   35 ar 
    20   33   11 ar 
    21   11   34 ar 
    22   17   12 ar 
    23   26   12 ar 
    24   13   14 1  
    25   13   32 2  
    26   15   25 1  
    27   15   26 ar 
    28   27   15 ar 
    29   16   17 ar 
    30   27   16 ar 
    31   18   27 1  
    32   28   18 1  
    33   22   19 ar 
    34   19   28 1  
    35   19   30 ar 
    36   21   20 ar 
    37   20   29 ar 
    38   21   22 ar 
    39   29   30 ar 
    40   34   35 ar 
    41    1   37 1  
    42    1   38 1  
    43    3   39 1  
    44    3   40 1  
    45    9   41 1  
    46   10   42 1  
    47   11   43 1  
    48   14   44 1  
    49   14   45 1  
    50   14   46 1  
    51   16   47 1  
    52   17   48 1  
    53   20   49 1  
    54   21   50 1  
    55   22   51 1  
    56   23   52 1  
    57   23   53 1  
    58   23   54 1  
    59   24   55 1  
    60   24   56 1  
    61   24   57 1  
    62   26   58 1  
    63   28   59 1  
    64   28   60 1  
    65   29   61 1  
    66   30   62 1  
    67   34   63 1  
    68   35   64 1  
    69   36   65 1  
@<TRIPOS>SUBSTRUCTURE
     1 XNI         1

