### 
### Created by X-TOOL on Mon Sep 10 21:12:58 2018
### 

@<TRIPOS>MOLECULE
3cth_ligand
   45    47     1     0     0
SMALL
GAST_HUCK


@<TRIPOS>ATOM
      1 C1          0.1140    1.0530   52.6750 C.ar      1 319        -0.0596
      2 C2         -2.0300    1.6690   53.6840 C.ar      1 319        -0.0596
      3 C3          0.9190    8.0660   54.9990 C.ar      1 319        -0.0519
      4 C4          1.0350    9.2860   55.6690 C.ar      1 319        -0.0419
      5 C5          0.2130   -0.0130   53.5530 C.ar      1 319        -0.0345
      6 C6         -1.9210    0.5980   54.5720 C.ar      1 319        -0.0345
      7 C7         -1.4920   11.5640   56.3840 C.ar      1 319        -0.0157
      8 C8          0.2920    9.2470   52.9840 C.ar      1 319        -0.0145
      9 C9          0.1040   12.9810   57.4910 C.ar      1 319         0.0135
     10 C10        -2.4360   12.0230   57.2860 C.ar      1 319        -0.0140
     11 C11        -1.0100    1.8910   52.7320 C.ar      1 319        -0.0277
     12 C12         0.5520    8.0480   53.6440 C.ar      1 319         0.0557
     13 C13         0.7640   10.4830   55.0040 C.ar      1 319         0.1375
     14 C14        -0.1910   12.0540   56.4900 C.ar      1 319         0.1196
     15 C15        -0.7980   -0.2310   54.4880 C.ar      1 319         0.1252
     16 C16         0.3910   10.4570   53.6600 C.ar      1 319         0.1529
     17 C17        -0.9090   13.4030   58.3630 C.ar      1 319         0.0967
     18 C18        -0.6440    4.3080   52.4610 C.2       1 319         0.2157
     19 C19        -0.1050    6.6130   51.7410 C.2       1 319         0.3149
     20 C20        -1.1030    3.0380   51.7840 C.3       1 319         0.0736
     21 N21        -2.1750   12.9280   58.2640 N.ar      1 319        -0.3009
     22 N22        -0.6020   14.3450   59.3770 N.pl3     1 319        -0.3250
     23 N23         0.4490    6.8030   52.9920 N.am      1 319        -0.2213
     24 N24        -0.6480    5.3560   51.5520 N.am      1 319        -0.1788
     25 O25         0.0100    4.3220   53.4880 O.2       1 319        -0.3839
     26 O26        -0.1580    7.4260   50.8290 O.2       1 319        -0.3823
     27 O27         0.8600   11.6920   55.6570 O.3       1 319        -0.2610
     28 F28        -0.6810   -1.2650   55.3250 F         1 319        -0.1890
     29 F29         0.1170   11.5940   52.9890 F         1 319        -0.1924
     30 H1          0.8981    1.2386   51.9498 H         1 319         0.0551
     31 H2         -2.8913    2.3260   53.7244 H         1 319         0.0551
     32 H3          1.1115    7.1368   55.5231 H         1 319         0.0446
     33 H4          1.3368    9.3034   56.7100 H         1 319         0.0509
     34 H5          1.0712   -0.6740   53.5137 H         1 319         0.0587
     35 H6         -2.6912    0.4125   55.3119 H         1 319         0.0587
     36 H7         -1.7564   10.8445   55.6175 H         1 319         0.0537
     37 H8          0.0109    9.2360   51.9371 H         1 319         0.0464
     38 H9          1.1099   13.3720   57.5933 H         1 319         0.0527
     39 H10        -3.4456   11.6363   57.2069 H         1 319         0.0748
     40 H11        -2.1466    3.1565   51.4571 H         1 319         0.0656
     41 H12        -0.4651    2.8405   50.9099 H         1 319         0.0656
     42 H13        -1.3375   14.6631   60.0241 H         1 319         0.1760
     43 H14         0.3565   14.7113   59.4666 H         1 319         0.1760
     44 H15         0.8026    5.9987   53.4696 H         1 319         0.2229
     45 H16        -1.0884    5.1847   50.6707 H         1 319         0.2262
@<TRIPOS>BOND
     1    1    5 ar 
     2   11    1 ar 
     3    2    6 ar 
     4   11    2 ar 
     5    3    4 ar 
     6   12    3 ar 
     7    4   13 ar 
     8    5   15 ar 
     9    6   15 ar 
    10    7   10 ar 
    11   14    7 ar 
    12   12    8 ar 
    13    8   16 ar 
    14   14    9 ar 
    15    9   17 ar 
    16   10   21 ar 
    17   20   11 1  
    18   23   12 1  
    19   16   13 ar 
    20   13   27 1  
    21   27   14 1  
    22   15   28 1  
    23   16   29 1  
    24   17   21 ar 
    25   17   22 1  
    26   18   20 1  
    27   24   18 am 
    28   18   25 2  
    29   19   23 am 
    30   19   24 am 
    31   19   26 2  
    32    1   30 1  
    33    2   31 1  
    34    3   32 1  
    35    4   33 1  
    36    5   34 1  
    37    6   35 1  
    38    7   36 1  
    39    8   37 1  
    40    9   38 1  
    41   10   39 1  
    42   20   40 1  
    43   20   41 1  
    44   22   42 1  
    45   22   43 1  
    46   23   44 1  
    47   24   45 1  
@<TRIPOS>SUBSTRUCTURE
     1 319         1

