### 
### Created by X-TOOL on Mon Sep 10 21:12:58 2018
### 

@<TRIPOS>MOLECULE
3ctj_ligand
   47    50     1     0     0
SMALL
GAST_HUCK


@<TRIPOS>ATOM
      1 F31        -1.0960   -1.0490   56.2250 F         1 320        -0.1890
      2 C28        -1.1050   -0.1830   55.2190 C.ar      1 320         0.1252
      3 C29        -2.1630    0.8240   55.1270 C.ar      1 320        -0.0345
      4 C30        -2.0800    1.6780   54.0920 C.ar      1 320        -0.0596
      5 C27        -0.1000   -0.2700   54.3280 C.ar      1 320        -0.0345
      6 C26        -0.0670    0.6820   53.2420 C.ar      1 320        -0.0596
      7 C23        -0.9660    1.6060   53.0850 C.ar      1 320        -0.0277
      8 C22        -0.8740    2.5940   51.8870 C.3       1 320         0.0736
      9 C21        -0.6090    3.9750   52.5600 C.2       1 320         0.2157
     10 O25        -0.2000    4.1990   53.7470 O.2       1 320        -0.3839
     11 N20        -0.8940    5.1480   51.8540 N.am      1 320        -0.1788
     12 C19        -0.4000    6.3580   52.1530 C.2       1 320         0.3150
     13 O24        -0.5430    7.1670   51.2690 O.2       1 320        -0.3823
     14 N18         0.2320    6.5520   53.3870 N.am      1 320        -0.2212
     15 C14         0.3570    7.7970   54.0550 C.ar      1 320         0.0559
     16 C15         0.0490    8.9740   53.2600 C.ar      1 320        -0.0143
     17 C16         0.1290   10.1890   53.8570 C.ar      1 320         0.1532
     18 F17        -0.1760   11.3710   53.1470 F         1 320        -0.1923
     19 C13         0.7350    7.8700   55.3610 C.ar      1 320        -0.0518
     20 C12         0.8580    9.1280   55.9880 C.ar      1 320        -0.0416
     21 C11         0.5670   10.2740   55.2860 C.ar      1 320         0.1384
     22 O10         0.6310   11.6750   55.7670 O.3       1 320        -0.2599
     23 C6         -0.4500   12.0340   56.6790 C.ar      1 320         0.1224
     24 C5         -1.7500   11.6440   56.5310 C.ar      1 320        -0.0189
     25 C4         -2.7320   12.0560   57.5340 C.ar      1 320        -0.0184
     26 N3         -2.3260   12.7950   58.5140 N.ar      1 320        -0.3044
     27 C2         -1.0660   13.2130   58.6890 C.ar      1 320         0.1243
     28 C1         -0.1370   12.8550   57.8180 C.ar      1 320         0.0342
     29 N9         -0.4930   14.0150   59.7410 N.pl3     1 320        -0.2714
     30 C8          0.9310   14.1050   59.4250 C.2       1 320         0.0219
     31 C7          1.1620   13.4240   58.2480 C.2       1 320        -0.0584
     32 H1         -2.9673    0.8782   55.8517 H         1 320         0.0587
     33 H2         -2.8402    2.4426   53.9800 H         1 320         0.0551
     34 H3          0.6637   -1.0335   54.4227 H         1 320         0.0587
     35 H4          0.7446    0.6225   52.5259 H         1 320         0.0551
     36 H5         -1.8160    2.6096   51.3193 H         1 320         0.0656
     37 H6         -0.0462    2.3201   51.2164 H         1 320         0.0656
     38 H7         -1.5106    5.0794   51.0697 H         1 320         0.2262
     39 H8          0.6268    5.7488   53.8331 H         1 320         0.2229
     40 H9         -0.2369    8.8832   52.2183 H         1 320         0.0464
     41 H10         0.9411    6.9632   55.9181 H         1 320         0.0447
     42 H11         1.1812    9.1909   57.0208 H         1 320         0.0510
     43 H12        -2.0499   11.0384   55.6834 H         1 320         0.0513
     44 H13        -3.7693   11.7507   57.4578 H         1 320         0.0711
     45 H14        -0.9827   14.4349   60.5440 H         1 320         0.2290
     46 H15         1.6830   14.6225   60.0188 H         1 320         0.0913
     47 H16         2.1164   13.3237   57.7332 H         1 320         0.0297
@<TRIPOS>BOND
     1    1    2 1  
     2    2    3 ar 
     3    2    5 ar 
     4    3    4 ar 
     5    4    7 ar 
     6    5    6 ar 
     7    6    7 ar 
     8    7    8 1  
     9    8    9 1  
    10    9   10 2  
    11    9   11 am 
    12   11   12 am 
    13   12   13 2  
    14   12   14 am 
    15   14   15 1  
    16   15   16 ar 
    17   15   19 ar 
    18   16   17 ar 
    19   17   18 1  
    20   17   21 ar 
    21   19   20 ar 
    22   20   21 ar 
    23   21   22 1  
    24   22   23 1  
    25   23   24 ar 
    26   23   28 ar 
    27   24   25 ar 
    28   25   26 ar 
    29   26   27 ar 
    30   27   28 ar 
    31   27   29 1  
    32   28   31 1  
    33   29   30 1  
    34   30   31 2  
    35    3   32 1  
    36    4   33 1  
    37    5   34 1  
    38    6   35 1  
    39    8   36 1  
    40    8   37 1  
    41   11   38 1  
    42   14   39 1  
    43   16   40 1  
    44   19   41 1  
    45   20   42 1  
    46   24   43 1  
    47   25   44 1  
    48   29   45 1  
    49   30   46 1  
    50   31   47 1  
@<TRIPOS>SUBSTRUCTURE
     1 320         1

