### 
### Created by X-TOOL on Mon Sep 10 21:12:59 2018
### 

@<TRIPOS>MOLECULE
3ctq_ligand
   76    79     1     0     0
SMALL
GAST_HUCK


@<TRIPOS>ATOM
      1 N1         33.6700   36.7730   12.7730 N.am      1 337        -0.2316
      2 C4         30.3730   36.2720   11.0270 C.ar      1 337        -0.0995
      3 C5         32.5490   34.7030   12.1160 C.ar      1 337         0.1796
      4 C6         31.4210   34.0570   11.5040 C.ar      1 337         0.1198
      5 C7         30.3580   34.8300   10.9710 C.ar      1 337        -0.0446
      6 C8         32.1650   42.4930   21.5960 C.ar      1 337        -0.0584
      7 C10        29.2370   37.1760   10.4670 C.3       1 337        -0.0725
      8 C13        29.7990   38.1090    9.3620 C.3       1 337        -0.0962
      9 C15        30.7610   42.5470   21.7800 C.ar      1 337        -0.0685
     10 C17        31.0740   44.2880   23.4760 C.ar      1 337        -0.0685
     11 C20        33.0370   32.8220    9.1590 C.3       1 337         0.0785
     12 C22        37.1670   38.9430   14.0170 C.ar      1 337        -0.0569
     13 C24        38.3930   40.1900   15.8230 C.3       1 337        -0.0276
     14 C26        34.7830   38.4090   14.1740 C.ar      1 337         0.0459
     15 C1         33.0430   43.3440   22.3380 C.ar      1 337        -0.0211
     16 C2         32.5900   36.1270   12.1870 C.ar      1 337         0.1233
     17 C3         31.5120   36.8840   11.6410 C.ar      1 337        -0.0409
     18 C9         33.4400   33.6560   14.0330 C.3       1 337         0.0653
     19 C11        28.6330   38.0300   11.6150 C.3       1 337        -0.0962
     20 C12        28.0580   36.3770    9.8380 C.3       1 337        -0.0962
     21 C14        33.5280   37.8310   13.6580 C.2       1 337         0.2244
     22 C16        30.2150   43.4470   22.7200 C.ar      1 337        -0.0687
     23 C18        32.4810   44.2300   23.2870 C.ar      1 337        -0.0584
     24 C23        37.1200   39.5830   15.2890 C.ar      1 337        -0.0013
     25 C25        36.0110   38.3570   13.4530 C.ar      1 337        -0.0538
     26 O8         33.5760   33.9010   12.6300 O.3       1 337        -0.3010
     27 O15        32.4120   38.2610   13.9730 O.2       1 337        -0.3772
     28 N16        31.3480   32.6900   11.4250 N.am      1 337        -0.1877
     29 S17        32.3250   31.8110   10.4300 S.o2      1 337         0.0563
     30 O18        31.4940   30.8300    9.8180 O.2       1 337        -0.1504
     31 O19        33.3620   31.3130   11.3040 O.2       1 337        -0.1504
     32 C47        34.7540   39.0450   15.4340 C.ar      1 337        -0.0087
     33 C48        35.8940   39.6370   16.0160 C.ar      1 337         0.1311
     34 N49        35.7300   40.2370   17.2790 N.pl3     1 337        -0.1221
     35 C50        35.4500   41.5410   17.5850 C.2       1 337         0.1121
     36 N51        35.8730   39.4210   18.3880 N.2       1 337        -0.0779
     37 N52        35.6600   40.3230   19.3880 N.2       1 337        -0.2063
     38 C53        35.4090   41.5760   18.9520 C.2       1 337         0.1358
     39 C61        35.1400   42.7320   19.7980 C.2       1 337         0.2026
     40 O62        35.1190   43.9010   19.4330 O.2       1 337        -0.3959
     41 N75        34.8850   42.3490   21.0700 N.am      1 337        -0.2779
     42 C76        34.5530   43.2660   22.1620 C.3       1 337         0.0634
     43 H1         34.5927   36.4610   12.5465 H         1 337         0.2229
     44 H2         29.5154   34.3264   10.5112 H         1 337         0.0539
     45 H3         32.5812   41.7939   20.8797 H         1 337         0.0557
     46 H4         28.9900   38.7441    8.9719 H         1 337         0.0099
     47 H5         30.2141   37.5009    8.5448 H         1 337         0.0099
     48 H6         30.5912   38.7436    9.7858 H         1 337         0.0099
     49 H7         30.1102   41.9008   21.2021 H         1 337         0.0599
     50 H8         30.6546   44.9770   24.2002 H         1 337         0.0599
     51 H9         33.6808   32.2036    8.5163 H         1 337         0.0487
     52 H10        33.6371   33.6209    9.6190 H         1 337         0.0487
     53 H11        32.2348   33.2686    8.5532 H         1 337         0.0487
     54 H12        38.1040   38.9049   13.4732 H         1 337         0.0554
     55 H13        39.2066   40.0305   15.1001 H         1 337         0.0391
     56 H14        38.6536   39.7132   16.7794 H         1 337         0.0391
     57 H15        38.2474   41.2691   15.9789 H         1 337         0.0391
     58 H16        31.5568   37.9658   11.6930 H         1 337         0.0561
     59 H17        34.2718   33.0237   14.3771 H         1 337         0.0592
     60 H18        32.4859   33.1432   14.2249 H         1 337         0.0592
     61 H19        33.4578   34.6126   14.5757 H         1 337         0.0592
     62 H20        28.2357   37.3654   12.3963 H         1 337         0.0099
     63 H21        27.8203   38.6559   11.2179 H         1 337         0.0099
     64 H22        29.4152   38.6735   12.0440 H         1 337         0.0099
     65 H23        28.4360   35.7527    9.0150 H         1 337         0.0099
     66 H24        27.3052   37.0789    9.4499 H         1 337         0.0099
     67 H25        27.5999   35.7349   10.6047 H         1 337         0.0099
     68 H26        29.1418   43.4962   22.8647 H         1 337         0.0559
     69 H27        33.1292   44.8699   23.8748 H         1 337         0.0557
     70 H28        36.0580   37.8739   12.4837 H         1 337         0.0603
     71 H29        30.6783   32.2093   11.9911 H         1 337         0.2134
     72 H30        33.8163   39.0798   15.9768 H         1 337         0.0628
     73 H31        35.2943   42.3678   16.8935 H         1 337         0.1132
     74 H32        34.9261   41.3719   21.2790 H         1 337         0.1864
     75 H33        35.0098   42.9022   23.0942 H         1 337         0.0682
     76 H34        34.9444   44.2671   21.9282 H         1 337         0.0682
@<TRIPOS>BOND
     1    1   16 1  
     2   21    1 am 
     3    2    5 ar 
     4    2    7 1  
     5   17    2 ar 
     6    3    4 ar 
     7   16    3 ar 
     8    3   26 1  
     9    4    5 ar 
    10    4   28 1  
    11    6    9 ar 
    12   15    6 ar 
    13    7    8 1  
    14    7   19 1  
    15    7   20 1  
    16    9   22 ar 
    17   10   22 ar 
    18   23   10 ar 
    19   29   11 1  
    20   24   12 ar 
    21   12   25 ar 
    22   24   13 1  
    23   14   21 1  
    24   14   25 ar 
    25   32   14 ar 
    26   15   23 ar 
    27   42   15 1  
    28   16   17 ar 
    29   26   18 1  
    30   21   27 2  
    31   33   24 ar 
    32   28   29 am 
    33   29   30 2  
    34   29   31 2  
    35   33   32 ar 
    36   34   33 1  
    37   35   34 1  
    38   36   34 1  
    39   38   35 2  
    40   37   36 2  
    41   38   37 1  
    42   39   38 1  
    43   39   40 2  
    44   41   39 am 
    45   41   42 1  
    46    1   43 1  
    47    5   44 1  
    48    6   45 1  
    49    8   46 1  
    50    8   47 1  
    51    8   48 1  
    52    9   49 1  
    53   10   50 1  
    54   11   51 1  
    55   11   52 1  
    56   11   53 1  
    57   12   54 1  
    58   13   55 1  
    59   13   56 1  
    60   13   57 1  
    61   17   58 1  
    62   18   59 1  
    63   18   60 1  
    64   18   61 1  
    65   19   62 1  
    66   19   63 1  
    67   19   64 1  
    68   20   65 1  
    69   20   66 1  
    70   20   67 1  
    71   22   68 1  
    72   23   69 1  
    73   25   70 1  
    74   28   71 1  
    75   32   72 1  
    76   35   73 1  
    77   41   74 1  
    78   42   75 1  
    79   42   76 1  
@<TRIPOS>SUBSTRUCTURE
     1 337         1

