### 
### Created by X-TOOL on Mon Sep 10 21:13:01 2018
### 

@<TRIPOS>MOLECULE
3ctt_ligand
   30    31     1     0     0
SMALL
GAST_HUCK


@<TRIPOS>ATOM
      1 O7          1.2030  -15.8810   23.4610 O.3       1 3CU        -0.3833
      2 C7          0.8370  -16.3910   22.1910 C.3       1 3CU         0.1308
      3 C7A         0.9850  -15.2550   21.1710 C.3       1 3CU         0.0380
      4 C1         -0.1130  -15.2920   20.0860 C.3       1 3CU         0.1312
      5 O1         -1.2480  -14.4570   20.3750 O.3       1 3CU        -0.3833
      6 C2          0.7050  -14.7420   18.9140 C.3       1 3CU         0.1308
      7 O2          0.0420  -14.9370   17.6800 O.3       1 3CU        -0.3833
      8 C3          1.8670  -15.7000   18.9980 C.3       1 3CU         0.0324
      9 C8          3.0530  -15.2750   18.1130 C.3       1 3CU         0.0894
     10 O8          3.3870  -13.9110   18.3650 O.3       1 3CU        -0.3894
     11 N4          2.2480  -15.5560   20.4210 N.4       1 3CU         0.2488
     12 C5          2.8580  -16.8060   20.9590 C.3       1 3CU        -0.0017
     13 C6          1.7950  -17.5160   21.7440 C.3       1 3CU         0.1259
     14 OXT         1.0830  -18.3910   20.8650 O.3       1 3CU        -0.3837
     15 H1          2.1029  -15.5779   23.4319 H         1 3CU         0.2102
     16 H2         -0.1982  -16.7619   22.2184 H         1 3CU         0.0679
     17 H3          1.0140  -14.2771   21.6738 H         1 3CU         0.0905
     18 H4         -0.4616  -16.3186   19.9000 H         1 3CU         0.0679
     19 H5         -1.6477  -14.7387   21.1895 H         1 3CU         0.2102
     20 H6          0.9911  -13.6880   19.0450 H         1 3CU         0.0679
     21 H7          0.5749  -14.5856   16.9765 H         1 3CU         0.2102
     22 H8          1.5623  -16.7273   18.7493 H         1 3CU         0.0901
     23 H9          2.7780  -15.3929   17.0545 H         1 3CU         0.0614
     24 H10         3.9220  -15.9103   18.3391 H         1 3CU         0.0614
     25 H11         2.6375  -13.3611   18.1688 H         1 3CU         0.2097
     26 H12         2.9035  -14.7971   20.5232 H         1 3CU         0.2044
     27 H13         3.7079  -16.5597   21.6125 H         1 3CU         0.0841
     28 H14         3.2042  -17.4429   20.1316 H         1 3CU         0.0841
     29 H15         2.2133  -18.0667   22.5994 H         1 3CU         0.0675
     30 H16         0.4066  -18.8462   21.3526 H         1 3CU         0.2101
@<TRIPOS>BOND
     1    1    2 1  
     2    2    3 1  
     3    2   13 1  
     4    3    4 1  
     5    3   11 1  
     6    4    5 1  
     7    4    6 1  
     8    6    7 1  
     9    6    8 1  
    10    8    9 1  
    11    8   11 1  
    12    9   10 1  
    13   11   12 1  
    14   12   13 1  
    15   13   14 1  
    16    1   15 1  
    17    2   16 1  
    18    3   17 1  
    19    4   18 1  
    20    5   19 1  
    21    6   20 1  
    22    7   21 1  
    23    8   22 1  
    24    9   23 1  
    25    9   24 1  
    26   10   25 1  
    27   11   26 1  
    28   12   27 1  
    29   12   28 1  
    30   13   29 1  
    31   14   30 1  
@<TRIPOS>SUBSTRUCTURE
     1 3CU         1

