### 
### Created by X-TOOL on Mon Sep 10 21:13:01 2018
### 

@<TRIPOS>MOLECULE
3cvk_ligand
   64    67     1     0     0
SMALL
GAST_HUCK


@<TRIPOS>ATOM
      1 C4         96.4350    9.1590   57.8710 C.ar      1 N34        -0.0118
      2 C5         96.8680    9.5010   60.6470 C.ar      1 N34         0.0553
      3 C6         97.2100    8.2390   58.6060 C.ar      1 N34         0.1005
      4 C7         96.7980    8.4370   54.2290 C.2       1 N34         0.1328
      5 C8         97.2340    7.5140   53.3350 C.2       1 N34         0.1842
      6 C10        96.0490    9.6280   53.7070 C.2       1 N34         0.2209
      7 C13        98.2050    9.6700   51.1150 C.3       1 N34        -0.0032
      8 C15        92.3240   12.0960   51.5320 C.3       1 N34        -0.0600
      9 C17        93.1420   11.1620   49.3430 C.3       1 N34        -0.0600
     10 C20        95.2380   10.8640   51.7300 C.3       1 N34         0.0713
     11 C21        92.7430   10.8110   50.7930 C.3       1 N34        -0.0357
     12 O31        96.7660    7.1690   62.5740 O.2       1 N34        -0.1504
     13 S34        97.2610    8.4130   63.1350 S.o2      1 N34         0.0559
     14 O30        96.8520    8.8330   64.4600 O.2       1 N34        -0.1504
     15 C18        99.0300    8.2970   63.2280 C.3       1 N34         0.0785
     16 N26        97.0660    9.7200   62.0470 N.am      1 N34        -0.1966
     17 C2         96.1100   10.4380   59.9290 C.ar      1 N34        -0.0541
     18 C3         97.4330    8.3980   59.9870 C.ar      1 N34        -0.0271
     19 S33        97.8950    6.8440   57.7830 S.o2      1 N34         0.0887
     20 O28        99.2780    6.7230   58.1690 O.2       1 N34        -0.1448
     21 O29        96.9620    5.7710   58.0140 O.2       1 N34        -0.1448
     22 N23        97.8400    7.3260   56.1530 N.am      1 N34        -0.1668
     23 C9         96.9140    8.3150   55.7020 C.2       1 N34         0.1186
     24 N22        96.1800    9.0630   56.4880 N.2       1 N34        -0.3567
     25 C1         95.9000   10.2730   58.5560 C.ar      1 N34        -0.0753
     26 O27        95.3520   10.2740   54.5030 O.2       1 N34        -0.4060
     27 N24        96.1000    9.8770   52.3410 N.am      1 N34        -0.2436
     28 N25        96.8780    9.1220   51.4500 N.4       1 N34         0.3915
     29 C11        98.7620    8.5280   50.2840 C.3       1 N34        -0.0031
     30 C14        97.0310    7.7030   51.8340 C.3       1 N34         0.0927
     31 C12        98.2010    7.2700   50.9360 C.3       1 N34         0.0186
     32 O32        97.8450    6.3250   53.6670 O.3       1 N34        -0.2854
     33 C19        93.9260   10.1200   51.5080 C.3       1 N34        -0.0231
     34 C16        91.5510    9.8380   50.7420 C.3       1 N34        -0.0600
     35 H1         98.8102    9.8523   52.0153 H         1 N34         0.0823
     36 H2         98.1271   10.5990   50.5312 H         1 N34         0.0823
     37 H3         91.4822   12.5657   51.0022 H         1 N34         0.0235
     38 H4         93.1732   12.7945   51.5632 H         1 N34         0.0235
     39 H5         92.0174   11.8454   52.5582 H         1 N34         0.0235
     40 H6         93.4417   10.2458   48.8132 H         1 N34         0.0235
     41 H7         93.9836   11.8702   49.3555 H         1 N34         0.0235
     42 H8         92.2850   11.6200   48.8275 H         1 N34         0.0235
     43 H9         95.6572   11.2114   50.7742 H         1 N34         0.0570
     44 H10        95.0914   11.7238   52.4002 H         1 N34         0.0570
     45 H11        99.4284    7.9800   62.2529 H         1 N34         0.0487
     46 H12        99.3093    7.5600   63.9953 H         1 N34         0.0487
     47 H13        99.4484    9.2791   63.4933 H         1 N34         0.0487
     48 H14        97.0910   10.6563   62.3972 H         1 N34         0.2130
     49 H15        95.6850   11.2939   60.4407 H         1 N34         0.0463
     50 H16        98.0326    7.6788   60.5332 H         1 N34         0.0482
     51 H17        98.4688    6.9084   55.4971 H         1 N34         0.2310
     52 H18        95.3198   11.0087   58.0109 H         1 N34         0.0488
     53 H19        96.3555    9.1248   50.5880 H         1 N34         0.2345
     54 H20        99.8615    8.5247   50.3158 H         1 N34         0.0321
     55 H21        98.4256    8.6073   49.2397 H         1 N34         0.0321
     56 H22        96.1293    7.1382   51.5549 H         1 N34         0.1203
     57 H23        98.9786    6.7808   51.5409 H         1 N34         0.0363
     58 H24        97.8445    6.5727   50.1636 H         1 N34         0.0363
     59 H25        97.9402    6.2719   54.6107 H         1 N34         0.2754
     60 H26        93.5618    9.8203   52.5017 H         1 N34         0.0291
     61 H27        94.1684    9.2224   50.9202 H         1 N34         0.0291
     62 H28        90.7039   10.3223   50.2342 H         1 N34         0.0235
     63 H29        91.2569    9.5645   51.7660 H         1 N34         0.0235
     64 H30        91.8405    8.9321   50.1893 H         1 N34         0.0235
@<TRIPOS>BOND
     1    1    3 ar 
     2   24    1 1  
     3    1   25 ar 
     4    2   16 1  
     5   17    2 ar 
     6   18    2 ar 
     7    3   18 ar 
     8   19    3 1  
     9    4    5 2  
    10    6    4 1  
    11    4   23 1  
    12    5   30 1  
    13    5   32 1  
    14    6   26 2  
    15   27    6 am 
    16   28    7 1  
    17    7   29 1  
    18   11    8 1  
    19   11    9 1  
    20   27   10 1  
    21   10   33 1  
    22   33   11 1  
    23   11   34 1  
    24   13   12 2  
    25   13   14 2  
    26   13   15 1  
    27   16   13 am 
    28   25   17 ar 
    29   19   20 2  
    30   19   21 2  
    31   22   19 am 
    32   23   22 1  
    33   23   24 2  
    34   27   28 1  
    35   28   30 1  
    36   29   31 1  
    37   30   31 1  
    38    7   35 1  
    39    7   36 1  
    40    8   37 1  
    41    8   38 1  
    42    8   39 1  
    43    9   40 1  
    44    9   41 1  
    45    9   42 1  
    46   10   43 1  
    47   10   44 1  
    48   15   45 1  
    49   15   46 1  
    50   15   47 1  
    51   16   48 1  
    52   17   49 1  
    53   18   50 1  
    54   22   51 1  
    55   25   52 1  
    56   28   53 1  
    57   29   54 1  
    58   29   55 1  
    59   30   56 1  
    60   31   57 1  
    61   31   58 1  
    62   32   59 1  
    63   33   60 1  
    64   33   61 1  
    65   34   62 1  
    66   34   63 1  
    67   34   64 1  
@<TRIPOS>SUBSTRUCTURE
     1 N34         1

