### 
### Created by X-TOOL on Mon Sep 10 21:13:02 2018
### 

@<TRIPOS>MOLECULE
3cwj_ligand
   59    62     1     0     0
SMALL
GAST_HUCK


@<TRIPOS>ATOM
      1 O31        96.5110    7.0590   61.9250 O.2       1 321        -0.1506
      2 S35        97.0080    8.4050   62.1440 S.o2      1 321         0.0552
      3 O30        96.9420    9.0150   63.4540 O.2       1 321        -0.1506
      4 C19        98.7340    8.4720   61.7140 C.3       1 321         0.0783
      5 N26        96.2890    9.4970   61.0230 N.am      1 321        -0.1984
      6 C8         96.2290    9.2790   59.6070 C.ar      1 321         0.0525
      7 C3         95.6680   10.3150   58.8560 C.ar      1 321        -0.0542
      8 C5         96.6880    8.1140   58.9620 C.ar      1 321        -0.0300
      9 C9         96.5820    8.0070   57.5620 C.ar      1 321         0.0917
     10 S34        97.1450    6.5410   56.7240 S.o2      1 321        -0.0134
     11 O28        96.2700    5.4570   57.1220 O.2       1 321        -0.1753
     12 O29        98.5790    6.4320   56.9120 O.2       1 321        -0.1753
     13 C11        96.8500    6.8070   55.0480 C.2       1 321         0.0319
     14 C14        96.2750    7.9470   54.6230 C.2       1 321         0.0555
     15 N24        95.8900    8.9960   55.4260 N.pl3     1 321        -0.2864
     16 C7         96.0150    9.0540   56.8120 C.ar      1 321         0.0667
     17 C2         95.5640   10.2060   57.4690 C.ar      1 321        -0.0522
     18 C13        96.0530    8.1330   53.2040 C.2       1 321         0.1050
     19 C15        96.6560    7.4100   52.2340 C.2       1 321         0.1425
     20 O32        97.3750    6.2520   52.4760 O.3       1 321        -0.3153
     21 C16        95.1310    9.2490   52.7820 C.2       1 321         0.2312
     22 O27        94.4730    9.8750   53.6280 O.2       1 321        -0.4110
     23 N25        95.0750    9.5260   51.4160 N.am      1 321        -0.1398
     24 C21        94.3680   10.7040   50.9280 C.3       1 321         0.0853
     25 C20        92.8780   10.4470   50.6920 C.3       1 321        -0.0191
     26 C22        92.5170    9.1910   49.8640 C.3       1 321        -0.0439
     27 C18        91.0430    8.8000   49.9780 C.3       1 321        -0.0626
     28 C17        92.8740    9.3670   48.3810 C.3       1 321        -0.0626
     29 N23        95.8970    8.9430   50.4920 N.2       1 321        -0.1411
     30 C12        96.5630    7.8820   50.8290 C.2       1 321         0.1386
     31 C10        97.4570    7.2760   49.8390 C.2       1 321         0.0510
     32 C4         97.9510    5.9920   49.7800 C.2       1 321        -0.0723
     33 S33        98.0300    8.2470   48.5570 S.3       1 321        -0.0424
     34 C6         98.9400    6.9530   47.9100 C.2       1 321        -0.0103
     35 C1         98.8050    5.8080   48.6590 C.2       1 321        -0.0796
     36 H1         98.8819    8.0245   60.7201 H         1 321         0.0487
     37 H2         99.3194    7.9127   62.4586 H         1 321         0.0487
     38 H3         99.0674    9.5201   61.6975 H         1 321         0.0487
     39 H4         95.8868   10.3387   61.3834 H         1 321         0.2115
     40 H5         95.3113   11.2092   59.3542 H         1 321         0.0456
     41 H6         97.1201    7.3049   59.5397 H         1 321         0.0475
     42 H7         97.1320    6.0439   54.3240 H         1 321         0.0265
     43 H8         95.4710    9.8131   54.9594 H         1 321         0.2042
     44 H9         95.1313   11.0181   56.8960 H         1 321         0.0493
     45 H10        97.7095    5.9108   51.6549 H         1 321         0.2593
     46 H11        94.8247   11.0195   49.9784 H         1 321         0.0660
     47 H12        94.4723   11.5090   51.6704 H         1 321         0.0660
     48 H13        92.4667   11.3223   50.1679 H         1 321         0.0297
     49 H14        92.3958   10.3487   51.6758 H         1 321         0.0297
     50 H15        93.1155    8.3577   50.2606 H         1 321         0.0296
     51 H16        90.8532    7.9040   49.3688 H         1 321         0.0232
     52 H17        90.4150    9.6281   49.6176 H         1 321         0.0232
     53 H18        90.8005    8.5866   51.0295 H         1 321         0.0232
     54 H19        93.9334    9.6485   48.2898 H         1 321         0.0232
     55 H20        92.2458   10.1571   47.9439 H         1 321         0.0232
     56 H21        92.6987    8.4215   47.8469 H         1 321         0.0232
     57 H22        97.7161    5.2129   50.5037 H         1 321         0.0394
     58 H23        99.5528    7.0266   47.0128 H         1 321         0.0701
     59 H24        99.2970    4.8663   48.4202 H         1 321         0.0410
@<TRIPOS>BOND
     1    1    2 2  
     2    2    3 2  
     3    2    4 1  
     4    2    5 am 
     5    5    6 1  
     6    6    7 ar 
     7    6    8 ar 
     8    7   17 ar 
     9    8    9 ar 
    10    9   10 1  
    11    9   16 ar 
    12   10   11 2  
    13   10   12 2  
    14   10   13 1  
    15   13   14 2  
    16   14   15 1  
    17   14   18 1  
    18   15   16 1  
    19   16   17 ar 
    20   18   19 2  
    21   18   21 1  
    22   19   20 1  
    23   19   30 1  
    24   21   22 2  
    25   21   23 am 
    26   23   24 1  
    27   23   29 1  
    28   24   25 1  
    29   25   26 1  
    30   26   27 1  
    31   26   28 1  
    32   29   30 2  
    33   30   31 1  
    34   31   32 2  
    35   31   33 1  
    36   32   35 1  
    37   33   34 1  
    38   34   35 2  
    39    4   36 1  
    40    4   37 1  
    41    4   38 1  
    42    5   39 1  
    43    7   40 1  
    44    8   41 1  
    45   13   42 1  
    46   15   43 1  
    47   17   44 1  
    48   20   45 1  
    49   24   46 1  
    50   24   47 1  
    51   25   48 1  
    52   25   49 1  
    53   26   50 1  
    54   27   51 1  
    55   27   52 1  
    56   27   53 1  
    57   28   54 1  
    58   28   55 1  
    59   28   56 1  
    60   32   57 1  
    61   34   58 1  
    62   35   59 1  
@<TRIPOS>SUBSTRUCTURE
     1 321         1

