### 
### Created by X-TOOL on Mon Sep 10 21:12:57 2018
### 

@<TRIPOS>MOLECULE
3cwk_ligand
   49    49     1     0     0
SMALL
GAST_HUCK


@<TRIPOS>ATOM
      1 C1         22.0920   27.8830   16.4930 C.3       1 REA        -0.0859
      2 C2         20.9680   28.5570   15.6480 C.3       1 REA        -0.0979
      3 C3         20.2340   27.6050   14.6950 C.3       1 REA        -0.0377
      4 C4         19.5760   26.4760   15.4410 C.3       1 REA         0.0374
      5 C5         20.4920   25.9110   16.5100 C.2       1 REA         0.0256
      6 C6         21.6070   26.5590   17.0100 C.2       1 REA        -0.0437
      7 C7         22.4990   25.9570   18.0310 C.2       1 REA        -0.0588
      8 C8         22.0180   25.3630   19.2100 C.2       1 REA        -0.0502
      9 C9         22.8780   24.6790   20.1590 C.2       1 REA        -0.0405
     10 C10        22.1580   24.0250   21.2330 C.2       1 REA        -0.0599
     11 C11        22.8650   23.3470   22.2870 C.2       1 REA        -0.0707
     12 C12        21.9490   22.7730   23.2670 C.2       1 REA        -0.0643
     13 C13        22.4290   21.9920   24.3450 C.2       1 REA        -0.0561
     14 C14        21.4150   21.6930   25.2830 C.2       1 REA        -0.0506
     15 C15        21.6120   20.8450   26.4310 C.2       1 REA         0.0296
     16 C16        22.4820   28.7450   17.6950 C.3       1 REA        -0.1147
     17 C17        23.3800   27.6340   15.6920 C.3       1 REA        -0.1147
     18 C18        20.0660   24.5640   16.9830 C.3       1 REA         0.0277
     19 C19        24.3620   24.6900   20.0420 C.3       1 REA        -0.0264
     20 C20        23.8480   21.6100   24.3900 C.3       1 REA        -0.0316
     21 O1         22.4980   19.9380   26.3950 O.co2     1 REA        -0.5736
     22 O2         20.8260   21.0520   27.4230 O.co2     1 REA        -0.5736
     23 H1         21.4224   29.3601   15.0493 H         1 REA         0.0079
     24 H2         20.2294   28.9883   16.3397 H         1 REA         0.0079
     25 H3         20.9578   27.1869   13.9800 H         1 REA         0.0309
     26 H4         19.4637   28.1695   14.1492 H         1 REA         0.0309
     27 H5         19.3213   25.6770   14.7291 H         1 REA         0.0731
     28 H6         18.6575   26.8491   15.9175 H         1 REA         0.0731
     29 H7         23.5742   25.9763   17.8592 H         1 REA         0.0700
     30 H8         20.9512   25.4182   19.4217 H         1 REA         0.0582
     31 H9         21.0693   24.0469   21.2426 H         1 REA         0.0490
     32 H10        23.9498   23.2716   22.3460 H         1 REA         0.0644
     33 H11        20.8789   22.9484   23.1672 H         1 REA         0.0493
     34 H12        20.4287   22.1283   25.1293 H         1 REA         0.0350
     35 H13        23.2748   28.2401   18.2665 H         1 REA         0.0039
     36 H14        21.6034   28.8941   18.3398 H         1 REA         0.0039
     37 H15        22.8484   29.7207   17.3431 H         1 REA         0.0039
     38 H16        23.1507   27.0149   14.8122 H         1 REA         0.0039
     39 H17        24.1115   27.1125   16.3267 H         1 REA         0.0039
     40 H18        23.7995   28.5964   15.3638 H         1 REA         0.0039
     41 H19        20.7654   24.2080   17.7538 H         1 REA         0.0697
     42 H20        20.0647   23.8616   16.1365 H         1 REA         0.0697
     43 H21        19.0535   24.6279   17.4080 H         1 REA         0.0697
     44 H22        24.6547   25.2512   19.1423 H         1 REA         0.0424
     45 H23        24.7315   23.6567   19.9660 H         1 REA         0.0424
     46 H24        24.7964   25.1703   20.9312 H         1 REA         0.0424
     47 H25        24.3624   22.0050   23.5015 H         1 REA         0.0404
     48 H26        23.9322   20.5133   24.4051 H         1 REA         0.0404
     49 H27        24.3111   22.0259   25.2969 H         1 REA         0.0404
@<TRIPOS>BOND
     1    1    2 1  
     2    1    6 1  
     3    1   16 1  
     4    1   17 1  
     5    2    3 1  
     6    3    4 1  
     7    4    5 1  
     8    5    6 2  
     9    5   18 1  
    10    6    7 1  
    11    7    8 2  
    12    8    9 1  
    13    9   10 2  
    14    9   19 1  
    15   10   11 1  
    16   11   12 2  
    17   12   13 1  
    18   13   14 2  
    19   13   20 1  
    20   14   15 1  
    21   15   21 ar 
    22   15   22 ar 
    23    2   23 1  
    24    2   24 1  
    25    3   25 1  
    26    3   26 1  
    27    4   27 1  
    28    4   28 1  
    29    7   29 1  
    30    8   30 1  
    31   10   31 1  
    32   11   32 1  
    33   12   33 1  
    34   14   34 1  
    35   16   35 1  
    36   16   36 1  
    37   16   37 1  
    38   17   38 1  
    39   17   39 1  
    40   17   40 1  
    41   18   41 1  
    42   18   42 1  
    43   18   43 1  
    44   19   44 1  
    45   19   45 1  
    46   19   46 1  
    47   20   47 1  
    48   20   48 1  
    49   20   49 1  
@<TRIPOS>SUBSTRUCTURE
     1 REA         1

