### 
### Created by X-TOOL on Mon Sep 10 21:12:57 2018
### 

@<TRIPOS>MOLECULE
3cy2_ligand
   41    44     1     0     0
SMALL
GAST_HUCK


@<TRIPOS>ATOM
      1 C1K       -15.2530   33.8740   -0.9240 C.3       1 MB9         0.0171
      2 C1I       -14.2000   33.6230   -2.0040 C.3       1 MB9        -0.0311
      3 N1M       -13.4230   34.8480   -2.3740 N.4       1 MB9         0.2271
      4 C1J       -14.2590   36.0250   -2.6530 C.3       1 MB9        -0.0311
      5 C1L       -15.2080   36.3140   -1.4960 C.3       1 MB9         0.0171
      6 C1W       -16.0930   35.0950   -1.1610 C.3       1 MB9         0.0943
      7 N1N       -16.8920   34.8570   -2.3860 N.am      1 MB9        -0.2775
      8 C1O       -17.9550   35.6860   -2.6860 C.2       1 MB9         0.2161
      9 O1C       -18.5440   35.4660   -3.7410 O.2       1 MB9        -0.3923
     10 C1Q       -18.5060   36.5040   -1.7050 C.2       1 MB9         0.1319
     11 N1V       -19.4870   37.4110   -1.7260 N.pl3     1 MB9        -0.2643
     12 C1A       -20.1970   37.8450   -2.9460 C.3       1 MB9         0.0373
     13 C1T       -19.7150   37.9170   -0.5110 C.ar      1 MB9         0.0674
     14 C1H       -20.5910   38.9050   -0.0520 C.ar      1 MB9        -0.0273
     15 C1P       -20.5930   39.2020    1.3070 C.ar      1 MB9         0.0280
     16 CL1D      -21.7020   40.4050    1.8770 Cl        1 MB9        -0.0774
     17 C1F       -19.7360   38.5580    2.2070 C.ar      1 MB9        -0.0624
     18 C1G       -18.8340   37.6140    1.7360 C.ar      1 MB9        -0.0697
     19 C1S       -18.8260   37.2980    0.3820 C.ar      1 MB9        -0.0074
     20 C1R       -18.0600   36.4020   -0.3700 C.2       1 MB9         0.0116
     21 C1U       -16.9520   35.4290    0.0470 C.3       1 MB9         0.1339
     22 C1E       -17.5610   34.2210    0.6310 C.1       1 MB9         0.1053
     23 N1B       -18.0560   33.2890    1.0380 N.1       1 MB9        -0.3012
     24 H         -14.7220   34.0247    0.0159 H         1 MB9         0.0344
     25 H         -15.9245   33.0154   -0.9219 H         1 MB9         0.0344
     26 H         -14.7218   33.2826   -2.8984 H         1 MB9         0.0815
     27 H         -13.4933   32.8926   -1.6100 H         1 MB9         0.0815
     28 H         -12.9082   34.6333   -3.2280 H         1 MB9         0.2013
     29 H         -12.8285   35.0809   -1.5786 H         1 MB9         0.2013
     30 H         -14.8505   35.8275   -3.5470 H         1 MB9         0.0815
     31 H         -13.6085   36.8883   -2.7933 H         1 MB9         0.0815
     32 H         -15.8581   37.1398   -1.7848 H         1 MB9         0.0344
     33 H         -14.6115   36.5559   -0.6164 H         1 MB9         0.0344
     34 H         -16.6573   34.0823   -3.0066 H         1 MB9         0.1844
     35 H         -19.4826   38.2785   -3.6458 H         1 MB9         0.0555
     36 H         -20.6833   36.9853   -3.4071 H         1 MB9         0.0555
     37 H         -20.9474   38.5904   -2.6824 H         1 MB9         0.0555
     38 H         -21.2545   39.4285   -0.7403 H         1 MB9         0.0553
     39 H         -19.7767   38.7961    3.2699 H         1 MB9         0.0523
     40 H         -18.1397   37.1259    2.4199 H         1 MB9         0.0564
     41 H         -16.3100   35.8840    0.8012 H         1 MB9         0.0736
@<TRIPOS>BOND
     1    1    2 1  
     2    1    6 1  
     3    2    3 1  
     4    3    4 1  
     5    4    5 1  
     6    5    6 1  
     7    6    7 1  
     8    6   21 1  
     9    7    8 am 
    10    8    9 2  
    11    8   10 1  
    12   10   11 1  
    13   10   20 2  
    14   11   12 1  
    15   11   13 1  
    16   13   14 ar 
    17   13   19 ar 
    18   14   15 ar 
    19   15   16 1  
    20   15   17 ar 
    21   17   18 ar 
    22   18   19 ar 
    23   19   20 1  
    24   20   21 1  
    25   21   22 1  
    26   22   23 3  
    27    1   24 1  
    28    1   25 1  
    29    2   26 1  
    30    2   27 1  
    31    3   28 1  
    32    3   29 1  
    33    4   30 1  
    34    4   31 1  
    35    5   32 1  
    36    5   33 1  
    37    7   34 1  
    38   12   35 1  
    39   12   36 1  
    40   12   37 1  
    41   14   38 1  
    42   17   39 1  
    43   18   40 1  
    44   21   41 1  
@<TRIPOS>SUBSTRUCTURE
     1 MB9         1

