### 
### Created by X-TOOL on Mon Sep 10 21:12:57 2018
### 

@<TRIPOS>MOLECULE
3cyw_ligand
   75    78     1     0     0
SMALL
GAST_HUCK


@<TRIPOS>ATOM
      1 N1         -8.2350   14.0110  -13.7680 N.pl3     1 017        -0.3369
      2 C2         -8.8780   15.1720  -14.1570 C.ar      1 017         0.0353
      3 C3        -10.2020   15.3840  -13.7750 C.ar      1 017        -0.0429
      4 C4        -10.8580   16.5540  -14.1130 C.ar      1 017        -0.0471
      5 C5        -10.1630   17.5140  -14.8190 C.ar      1 017         0.0949
      6 C6         -8.8550   17.3280  -15.2550 C.ar      1 017        -0.0471
      7 C7         -8.2140   16.1520  -14.9180 C.ar      1 017        -0.0429
      8 S8        -11.1180   18.9150  -15.3270 S.o2      1 017         0.0648
      9 O9        -12.2910   19.0350  -14.4680 O.2       1 017        -0.1518
     10 O10       -10.1960   20.0460  -15.4810 O.2       1 017        -0.1518
     11 N11       -11.6850   18.6660  -16.9020 N.am      1 017        -0.2327
     12 C12       -10.7030   18.4250  -17.9650 C.3       1 017         0.0319
     13 C13       -11.0630   19.0160  -19.3430 C.3       1 017        -0.0296
     14 C14       -11.1660   20.5370  -19.2910 C.3       1 017        -0.0612
     15 C15        -9.9560   18.5960  -20.3270 C.3       1 017        -0.0612
     16 C16       -12.9830   17.9880  -17.0280 C.3       1 017         0.0578
     17 C17       -14.0730   18.8800  -17.6690 C.3       1 017         0.0967
     18 O18       -15.1670   18.0290  -18.0410 O.3       1 017        -0.3877
     19 C19       -14.5780   19.9600  -16.6990 C.3       1 017         0.0807
     20 N20       -15.4260   20.9000  -17.4050 N.am      1 017        -0.2550
     21 C21       -15.0890   22.1880  -17.6540 C.2       1 017         0.3203
     22 O22       -14.1060   22.7850  -17.2710 O.2       1 017        -0.3775
     23 O23       -16.0690   22.7100  -18.4370 O.3       1 017        -0.2578
     24 C24       -15.9930   24.1280  -18.7240 C.3       1 017         0.1189
     25 C25       -16.5600   24.3260  -20.1280 C.3       1 017         0.0815
     26 O26       -17.9690   24.2400  -19.9500 O.3       1 017        -0.3480
     27 C27       -18.3400   24.7790  -18.6730 C.3       1 017         0.1648
     28 O28       -19.2150   23.9090  -18.0260 O.3       1 017        -0.3509
     29 C29       -18.5150   23.2650  -16.9650 C.3       1 017         0.0512
     30 C30       -17.4020   24.2250  -16.5040 C.3       1 017        -0.0191
     31 C31       -17.0370   24.8750  -17.8430 C.3       1 017         0.0449
     32 C32       -15.2400   19.4670  -15.3920 C.3       1 017         0.0064
     33 C33       -16.9260   21.0770  -14.3930 C.ar      1 017        -0.0603
     34 C34       -17.2700   22.1470  -13.5750 C.ar      1 017        -0.0686
     35 C35       -16.2730   22.8350  -12.8840 C.ar      1 017        -0.0687
     36 C36       -14.9430   22.4060  -12.9540 C.ar      1 017        -0.0686
     37 C37       -14.6490   21.2560  -13.6660 C.ar      1 017        -0.0603
     38 C38       -15.6090   20.6310  -14.4770 C.ar      1 017        -0.0408
     39 H1         -8.7381   13.3055  -13.2112 H         1 017         0.1719
     40 H2         -7.2531   13.8519  -14.0351 H         1 017         0.1719
     41 H3        -10.7236   14.6228  -13.2062 H         1 017         0.0515
     42 H4        -11.8924   16.7126  -13.8302 H         1 017         0.0602
     43 H5         -8.3520   18.0864  -15.8439 H         1 017         0.0602
     44 H6         -7.1933   15.9828  -15.2416 H         1 017         0.0515
     45 H7        -10.5887   17.3372  -18.0815 H         1 017         0.0480
     46 H8         -9.7449   18.8625  -17.6478 H         1 017         0.0480
     47 H9        -12.0282   18.6058  -19.6747 H         1 017         0.0311
     48 H10       -11.4234   20.9214  -20.2890 H         1 017         0.0233
     49 H11       -10.2013   20.9592  -18.9731 H         1 017         0.0233
     50 H12       -11.9476   20.8273  -18.5735 H         1 017         0.0233
     51 H13        -9.8896   17.4984  -20.3574 H         1 017         0.0233
     52 H14        -8.9934   19.0125  -19.9955 H         1 017         0.0233
     53 H15       -10.1941   18.9769  -21.3311 H         1 017         0.0233
     54 H16       -13.3207   17.6887  -16.0248 H         1 017         0.0504
     55 H17       -12.8512   17.0924  -17.6529 H         1 017         0.0504
     56 H18       -13.6608   19.3693  -18.5638 H         1 017         0.0634
     57 H19       -14.8632   17.3782  -18.6628 H         1 017         0.2100
     58 H20       -13.6840   20.5166  -16.3813 H         1 017         0.0604
     59 H21       -16.3155   20.5773  -17.7285 H         1 017         0.1873
     60 H22       -14.9718   24.5193  -18.6055 H         1 017         0.0675
     61 H23       -16.2037   23.5378  -20.8075 H         1 017         0.0590
     62 H24       -16.2766   25.3107  -20.5280 H         1 017         0.0590
     63 H25       -18.8052   25.7689  -18.7900 H         1 017         0.0913
     64 H26       -18.0752   22.3219  -17.3216 H         1 017         0.0561
     65 H27       -19.2023   23.0572  -16.1317 H         1 017         0.0561
     66 H28       -16.5500   23.6826  -16.0683 H         1 017         0.0293
     67 H29       -17.7750   24.9643  -15.7800 H         1 017         0.0293
     68 H30       -16.7151   25.9139  -17.6784 H         1 017         0.0380
     69 H31       -14.5378   18.8058  -14.8632 H         1 017         0.0449
     70 H32       -16.1528   18.9068  -15.6431 H         1 017         0.0449
     71 H33       -17.6949   20.5817  -14.9748 H         1 017         0.0557
     72 H34       -18.3074   22.4449  -13.4748 H         1 017         0.0599
     73 H35       -16.5293   23.7052  -12.2906 H         1 017         0.0559
     74 H36       -14.1566   22.9645  -12.4593 H         1 017         0.0599
     75 H37       -13.6553   20.8286  -13.5957 H         1 017         0.0557
@<TRIPOS>BOND
     1    2    1 1  
     2    3    2 ar 
     3    7    2 ar 
     4    4    3 ar 
     5    5    4 ar 
     6    5    6 ar 
     7    8    5 1  
     8    6    7 ar 
     9    8    9 2  
    10    8   10 2  
    11   11    8 am 
    12   11   12 1  
    13   16   11 1  
    14   12   13 1  
    15   13   14 1  
    16   13   15 1  
    17   17   16 1  
    18   17   18 1  
    19   19   17 1  
    20   19   20 1  
    21   32   19 1  
    22   20   21 am 
    23   21   22 2  
    24   21   23 1  
    25   23   24 1  
    26   24   25 1  
    27   24   31 1  
    28   25   26 1  
    29   27   26 1  
    30   27   28 1  
    31   31   27 1  
    32   29   28 1  
    33   30   29 1  
    34   31   30 1  
    35   38   32 1  
    36   33   34 ar 
    37   33   38 ar 
    38   34   35 ar 
    39   35   36 ar 
    40   36   37 ar 
    41   37   38 ar 
    42    1   39 1  
    43    1   40 1  
    44    3   41 1  
    45    4   42 1  
    46    6   43 1  
    47    7   44 1  
    48   12   45 1  
    49   12   46 1  
    50   13   47 1  
    51   14   48 1  
    52   14   49 1  
    53   14   50 1  
    54   15   51 1  
    55   15   52 1  
    56   15   53 1  
    57   16   54 1  
    58   16   55 1  
    59   17   56 1  
    60   18   57 1  
    61   19   58 1  
    62   20   59 1  
    63   24   60 1  
    64   25   61 1  
    65   25   62 1  
    66   27   63 1  
    67   29   64 1  
    68   29   65 1  
    69   30   66 1  
    70   30   67 1  
    71   31   68 1  
    72   32   69 1  
    73   32   70 1  
    74   33   71 1  
    75   34   72 1  
    76   35   73 1  
    77   36   74 1  
    78   37   75 1  
@<TRIPOS>SUBSTRUCTURE
     1 017         1

