### 
### Created by X-TOOL on Mon Sep 10 21:12:57 2018
### 

@<TRIPOS>MOLECULE
3cyx_ligand
  100   104     1     0     0
SMALL
GAST_HUCK


@<TRIPOS>ATOM
      1 O1         20.9630   27.6310   18.5850 O.2       1 ROC        -0.3762
      2 C1         21.4180   26.4730   18.5010 C.2       1 ROC         0.2293
      3 N1         23.1320   24.7840   18.9890 N.ar      1 ROC        -0.2737
      4 C2         22.5260   25.9480   19.3240 C.ar      1 ROC         0.1219
      5 C3         22.9570   26.7130   20.4290 C.ar      1 ROC        -0.0136
      6 C4         23.9510   26.1280   21.2240 C.ar      1 ROC        -0.0314
      7 C5         24.5890   24.9500   20.8630 C.ar      1 ROC         0.0097
      8 C6         25.5900   24.3820   21.6240 C.ar      1 ROC        -0.0444
      9 C7         26.2480   23.2290   21.2520 C.ar      1 ROC        -0.0546
     10 C8         25.7750   22.5710   20.1460 C.ar      1 ROC        -0.0545
     11 C9R        24.7930   23.0780   19.3660 C.ar      1 ROC        -0.0370
     12 C10        24.1450   24.2650   19.7300 C.ar      1 ROC         0.0527
     13 N2         20.9560   25.5530   17.6310 N.am      1 ROC        -0.2600
     14 C11        19.8020   25.7440   16.8090 C.3       1 ROC         0.1473
     15 C12        18.8200   24.6190   17.1240 C.2       1 ROC         0.2045
     16 O2         18.9680   23.5450   16.4970 O.2       1 ROC        -0.3943
     17 C13        20.1110   25.7770   15.3330 C.3       1 ROC         0.0773
     18 C14        21.0210   26.9070   15.1040 C.2       1 ROC         0.1780
     19 O3         22.2410   26.9030   14.8890 O.2       1 ROC        -0.3970
     20 N3         20.4990   28.0680   15.1630 N.am      1 ROC        -0.3007
     21 C15        15.5150   24.4490   18.0900 C.3       1 ROC         0.1194
     22 O4         15.1850   25.5650   18.9070 O.3       1 ROC        -0.3840
     23 C16        16.8980   23.9020   18.4630 C.3       1 ROC         0.0823
     24 N4         17.9100   24.8890   18.0560 N.am      1 ROC        -0.2772
     25 C17        17.0750   23.6610   19.9590 C.3       1 ROC         0.0066
     26 C18        18.4960   23.4010   20.3840 C.ar      1 ROC        -0.0408
     27 C19        19.0840   22.1730   20.1610 C.ar      1 ROC        -0.0603
     28 C20        19.2320   24.3800   20.9910 C.ar      1 ROC        -0.0603
     29 C21        20.3550   21.9220   20.5830 C.ar      1 ROC        -0.0686
     30 C22        20.5240   24.1400   21.3810 C.ar      1 ROC        -0.0686
     31 C23        21.0740   22.9090   21.2000 C.ar      1 ROC        -0.0687
     32 N5         14.4060   22.6030   16.9510 N.4       1 ROC         0.2562
     33 C24        14.4250   23.4090   18.1430 C.3       1 ROC        -0.0008
     34 C25        13.8020   21.2430   17.1590 C.3       1 ROC         0.0688
     35 C26        14.5820   20.4490   18.2200 C.2       1 ROC         0.2251
     36 O5         15.8020   20.4480   18.2530 O.2       1 ROC        -0.3909
     37 C27        13.8270   20.4800   15.8790 C.3       1 ROC         0.0113
     38 C28        13.1450   21.1720   14.7360 C.3       1 ROC        -0.0261
     39 C29        13.2330   20.4170   13.4160 C.3       1 ROC        -0.0494
     40 C30        14.6010   20.4550   12.7730 C.3       1 ROC        -0.0528
     41 C31        15.0750   21.8700   12.5940 C.3       1 ROC        -0.0526
     42 C32        15.1100   22.5070   13.9760 C.3       1 ROC        -0.0451
     43 C33        13.7730   22.5690   14.6270 C.3       1 ROC         0.0024
     44 C34        13.7110   23.3070   15.9020 C.3       1 ROC        -0.0266
     45 N6         13.8090   19.7990   19.1250 N.am      1 ROC        -0.2771
     46 C35        14.3160   18.9050   20.1500 C.3       1 ROC         0.0448
     47 C36        13.1530   18.3990   20.9750 C.3       1 ROC        -0.0396
     48 C37        15.2240   19.6820   21.0690 C.3       1 ROC        -0.0396
     49 C38        15.0080   17.7520   19.4800 C.3       1 ROC        -0.0396
     50 H1         22.5449   27.6913   20.6486 H         1 ROC         0.0729
     51 H2         24.2312   26.6120   22.1526 H         1 ROC         0.0774
     52 H3         25.8710   24.8628   22.5540 H         1 ROC         0.0657
     53 H4         27.1012   22.8592   21.8090 H         1 ROC         0.0652
     54 H5         26.2036   21.6095   19.8872 H         1 ROC         0.0657
     55 H6         24.5066   22.5636   18.4558 H         1 ROC         0.0653
     56 H7         21.4492   24.6863   17.5561 H         1 ROC         0.1882
     57 H8         19.3414   26.7062   17.0772 H         1 ROC         0.0826
     58 H9         19.1843   25.9170   14.7571 H         1 ROC         0.0551
     59 H10        20.5938   24.8368   15.0281 H         1 ROC         0.0551
     60 H11        21.0654   28.8789   15.0162 H         1 ROC         0.1814
     61 H12        19.5229   28.1681   15.3561 H         1 ROC         0.1814
     62 H13        15.5753   24.8020   17.0499 H         1 ROC         0.0672
     63 H14        14.3267   25.8915   18.6636 H         1 ROC         0.2101
     64 H15        17.0596   22.9548   17.9275 H         1 ROC         0.0606
     65 H16        17.9140   25.7887   18.4925 H         1 ROC         0.1857
     66 H17        16.4667   22.7891   20.2412 H         1 ROC         0.0449
     67 H18        16.7127   24.5501   20.4958 H         1 ROC         0.0449
     68 H19        18.5284   21.3989   19.6441 H         1 ROC         0.0557
     69 H20        18.7902   25.3544   21.1654 H         1 ROC         0.0557
     70 H21        20.7952   20.9432   20.4303 H         1 ROC         0.0599
     71 H22        21.1084   24.9324   21.8344 H         1 ROC         0.0599
     72 H23        22.0823   22.7100   21.5447 H         1 ROC         0.0559
     73 H24        15.3614   22.4677   16.6596 H         1 ROC         0.2057
     74 H25        13.4537   23.9144   18.2481 H         1 ROC         0.0841
     75 H26        14.5951   22.7570   19.0125 H         1 ROC         0.0841
     76 H27        12.7605   21.3628   17.4922 H         1 ROC         0.1100
     77 H28        13.3283   19.5135   16.0439 H         1 ROC         0.0348
     78 H29        14.8772   20.3079   15.6006 H         1 ROC         0.0348
     79 H30        12.0786   21.2801   14.9833 H         1 ROC         0.0309
     80 H31        12.5098   20.8602   12.7157 H         1 ROC         0.0268
     81 H32        12.9674   19.3657   13.6010 H         1 ROC         0.0268
     82 H33        14.5493   19.9662   11.7889 H         1 ROC         0.0265
     83 H34        15.3142   19.9154   13.4134 H         1 ROC         0.0265
     84 H35        14.3814   22.4209   11.9418 H         1 ROC         0.0265
     85 H36        16.0810   21.8778   12.1491 H         1 ROC         0.0265
     86 H37        15.4995   23.5312   13.8792 H         1 ROC         0.0270
     87 H38        15.7833   21.9176   14.6157 H         1 ROC         0.0270
     88 H39        13.1362   23.1375   13.9332 H         1 ROC         0.0355
     89 H40        14.1742   24.2954   15.7664 H         1 ROC         0.0818
     90 H41        12.6574   23.4325   16.1921 H         1 ROC         0.0818
     91 H42        12.8207   19.9458   19.0833 H         1 ROC         0.1859
     92 H43        13.5255   17.7197   21.7559 H         1 ROC         0.0254
     93 H44        12.4494   17.8589   20.3244 H         1 ROC         0.0254
     94 H45        12.6386   19.2504   21.4445 H         1 ROC         0.0254
     95 H46        15.6142   19.0132   21.8504 H         1 ROC         0.0254
     96 H47        14.6584   20.5014   21.5366 H         1 ROC         0.0254
     97 H48        16.0620   20.0982   20.4907 H         1 ROC         0.0254
     98 H49        15.3985   17.0643   20.2446 H         1 ROC         0.0254
     99 H50        15.8399   18.1295   18.8673 H         1 ROC         0.0254
    100 H51        14.2924   17.2179   18.8377 H         1 ROC         0.0254
@<TRIPOS>BOND
     1    2    1 2  
     2    2    4 1  
     3   13    2 am 
     4    4    3 ar 
     5    3   12 ar 
     6    4    5 ar 
     7    5    6 ar 
     8    6    7 ar 
     9    7    8 ar 
    10   12    7 ar 
    11    8    9 ar 
    12   10    9 ar 
    13   11   10 ar 
    14   12   11 ar 
    15   14   13 1  
    16   15   14 1  
    17   14   17 1  
    18   15   16 2  
    19   24   15 am 
    20   17   18 1  
    21   18   19 2  
    22   18   20 am 
    23   21   22 1  
    24   23   21 1  
    25   21   33 1  
    26   23   24 1  
    27   23   25 1  
    28   25   26 1  
    29   26   27 ar 
    30   26   28 ar 
    31   27   29 ar 
    32   28   30 ar 
    33   29   31 ar 
    34   30   31 ar 
    35   33   32 1  
    36   32   34 1  
    37   32   44 1  
    38   34   35 1  
    39   34   37 1  
    40   35   36 2  
    41   35   45 am 
    42   37   38 1  
    43   38   39 1  
    44   38   43 1  
    45   39   40 1  
    46   40   41 1  
    47   41   42 1  
    48   42   43 1  
    49   43   44 1  
    50   45   46 1  
    51   46   47 1  
    52   46   48 1  
    53   46   49 1  
    54    5   50 1  
    55    6   51 1  
    56    8   52 1  
    57    9   53 1  
    58   10   54 1  
    59   11   55 1  
    60   13   56 1  
    61   14   57 1  
    62   17   58 1  
    63   17   59 1  
    64   20   60 1  
    65   20   61 1  
    66   21   62 1  
    67   22   63 1  
    68   23   64 1  
    69   24   65 1  
    70   25   66 1  
    71   25   67 1  
    72   27   68 1  
    73   28   69 1  
    74   29   70 1  
    75   30   71 1  
    76   31   72 1  
    77   32   73 1  
    78   33   74 1  
    79   33   75 1  
    80   34   76 1  
    81   37   77 1  
    82   37   78 1  
    83   38   79 1  
    84   39   80 1  
    85   39   81 1  
    86   40   82 1  
    87   40   83 1  
    88   41   84 1  
    89   41   85 1  
    90   42   86 1  
    91   42   87 1  
    92   43   88 1  
    93   44   89 1  
    94   44   90 1  
    95   45   91 1  
    96   47   92 1  
    97   47   93 1  
    98   47   94 1  
    99   48   95 1  
   100   48   96 1  
   101   48   97 1  
   102   49   98 1  
   103   49   99 1  
   104   49  100 1  
@<TRIPOS>SUBSTRUCTURE
     1 ROC         1

