### 
### Created by X-TOOL on Mon Sep 10 21:12:59 2018
### 

@<TRIPOS>MOLECULE
3cyz_ligand
   28    27     1     0     0
SMALL
GAST_HUCK


@<TRIPOS>ATOM
      1 O9         14.0790   -8.5530   -1.8040 O.2       1 9OD        -0.3919
      2 C9         13.9560   -7.4080   -2.2300 C.2       1 9OD         0.1019
      3 C10        12.6030   -6.8020   -2.4240 C.3       1 9OD         0.0094
      4 C8         15.2100   -6.6170   -2.5500 C.3       1 9OD         0.0208
      5 C7         15.0100   -5.1790   -3.0520 C.3       1 9OD        -0.0369
      6 C6         15.7570   -4.1870   -2.1480 C.3       1 9OD        -0.0486
      7 C5         16.4950   -3.0640   -2.8760 C.3       1 9OD        -0.0406
      8 C4         17.9700   -3.4310   -2.8550 C.3       1 9OD        -0.0186
      9 C3         18.8870   -2.6040   -3.7210 C.2       1 9OD        -0.0691
     10 C2         20.1200   -3.1170   -3.8150 C.2       1 9OD        -0.0436
     11 C1         21.1940   -2.4580   -4.5610 C.2       1 9OD         0.0366
     12 OE1        22.3600   -2.8980   -4.4030 O.co2     1 9OD        -0.5703
     13 OE2        20.9420   -1.4680   -5.2810 O.co2     1 9OD        -0.5703
     14 H1         12.7119   -5.7779   -2.8104 H         1 9OD         0.0458
     15 H2         12.0714   -6.7760   -1.4614 H         1 9OD         0.0458
     16 H3         12.0303   -7.4061   -3.1430 H         1 9OD         0.0458
     17 H4         15.7620   -7.1671   -3.3263 H         1 9OD         0.0494
     18 H5         15.8164   -6.5686   -1.6335 H         1 9OD         0.0494
     19 H6         13.9366   -4.9385   -3.0445 H         1 9OD         0.0290
     20 H7         15.3972   -5.0963   -4.0783 H         1 9OD         0.0290
     21 H8         16.4950   -4.7528   -1.5604 H         1 9OD         0.0269
     22 H9         15.0232   -3.7269   -1.4699 H         1 9OD         0.0269
     23 H10        16.3345   -2.1064   -2.3590 H         1 9OD         0.0294
     24 H11        16.1380   -2.9850   -3.9134 H         1 9OD         0.0294
     25 H12        18.0576   -4.4777   -3.1817 H         1 9OD         0.0470
     26 H13        18.3211   -3.3404   -1.8165 H         1 9OD         0.0470
     27 H14        18.5784   -1.6855   -4.2179 H         1 9OD         0.0780
     28 H15        20.3327   -4.0618   -3.3169 H         1 9OD         0.0423
@<TRIPOS>BOND
     1    1    2 2  
     2    2    3 1  
     3    2    4 1  
     4    4    5 1  
     5    5    6 1  
     6    6    7 1  
     7    7    8 1  
     8    8    9 1  
     9    9   10 2  
    10   10   11 1  
    11   11   12 ar 
    12   11   13 ar 
    13    3   14 1  
    14    3   15 1  
    15    3   16 1  
    16    4   17 1  
    17    4   18 1  
    18    5   19 1  
    19    5   20 1  
    20    6   21 1  
    21    6   22 1  
    22    7   23 1  
    23    7   24 1  
    24    8   25 1  
    25    8   26 1  
    26    9   27 1  
    27   10   28 1  
@<TRIPOS>SUBSTRUCTURE
     1 9OD         1

