### 
### Created by X-TOOL on Mon Sep 10 21:12:59 2018
### 

@<TRIPOS>MOLECULE
3cz1_ligand
   29    29     1     0     0
SMALL
GAST_HUCK


@<TRIPOS>ATOM
      1 O1S        22.6970   -2.9920   -4.4790 O.2       1 NBB        -0.1503
      2 S          21.3030   -2.8040   -4.7850 S.o2      1 NBB         0.0682
      3 O2S        21.0150   -1.4600   -5.2100 O.2       1 NBB        -0.1503
      4 N10        20.4060   -3.1110   -3.4980 N.am      1 NBB        -0.2474
      5 C11        19.1040   -2.5030   -3.3470 C.3       1 NBB         0.0265
      6 C12        17.9900   -3.5280   -3.4060 C.3       1 NBB        -0.0364
      7 C13        16.6740   -2.9210   -2.9340 C.3       1 NBB        -0.0545
      8 C14        16.1860   -3.6210   -1.6840 C.3       1 NBB        -0.0652
      9 C4         20.9720   -3.8590   -5.9380 C.ar      1 NBB         0.1081
     10 C5         20.9860   -3.4720   -7.2800 C.ar      1 NBB        -0.0351
     11 C6         20.7210   -4.3870   -8.2950 C.ar      1 NBB        -0.0599
     12 C1         20.4380   -5.7090   -7.9650 C.ar      1 NBB        -0.0616
     13 C2         20.4340   -6.0990   -6.6300 C.ar      1 NBB        -0.0599
     14 C3         20.7060   -5.1830   -5.6180 C.ar      1 NBB        -0.0351
     15 H1         20.7491   -3.7294   -2.7910 H         1 NBB         0.1672
     16 H2         18.9573   -1.7719   -4.1556 H         1 NBB         0.0475
     17 H3         19.0625   -1.9887   -2.3756 H         1 NBB         0.0475
     18 H4         18.2478   -4.3792   -2.7586 H         1 NBB         0.0281
     19 H5         17.8752   -3.8773   -4.4427 H         1 NBB         0.0281
     20 H6         15.9200   -3.0296   -3.7275 H         1 NBB         0.0263
     21 H7         16.8253   -1.8536   -2.7155 H         1 NBB         0.0263
     22 H8         15.2368   -3.1705   -1.3583 H         1 NBB         0.0230
     23 H9         16.9359   -3.5126   -0.8866 H         1 NBB         0.0230
     24 H10        16.0305   -4.6886   -1.8986 H         1 NBB         0.0230
     25 H11        21.2069   -2.4419   -7.5354 H         1 NBB         0.0637
     26 H12        20.7349   -4.0728   -9.3324 H         1 NBB         0.0618
     27 H13        20.2218   -6.4309   -8.7442 H         1 NBB         0.0618
     28 H14        20.2162   -7.1297   -6.3744 H         1 NBB         0.0618
     29 H15        20.7101   -5.5030   -4.5823 H         1 NBB         0.0637
@<TRIPOS>BOND
     1    1    2 2  
     2    2    3 2  
     3    2    4 am 
     4    2    9 1  
     5    4    5 1  
     6    5    6 1  
     7    6    7 1  
     8    7    8 1  
     9    9   10 ar 
    10    9   14 ar 
    11   10   11 ar 
    12   11   12 ar 
    13   12   13 ar 
    14   13   14 ar 
    15    4   15 1  
    16    5   16 1  
    17    5   17 1  
    18    6   18 1  
    19    6   19 1  
    20    7   20 1  
    21    7   21 1  
    22    8   22 1  
    23    8   23 1  
    24    8   24 1  
    25   10   25 1  
    26   11   26 1  
    27   12   27 1  
    28   13   28 1  
    29   14   29 1  
@<TRIPOS>SUBSTRUCTURE
     1 NBB         1

