### 
### Created by X-TOOL on Mon Sep 10 21:12:57 2018
### 

@<TRIPOS>MOLECULE
3czv_ligand
   19    19     1     0     0
SMALL
GAST_HUCK


@<TRIPOS>ATOM
      1 C1         33.8190   59.3640   18.1560 C.2       1 AZM         0.2562
      2 C2         35.4080   60.0500   19.7330 C.2       1 AZM         0.2252
      3 C3         36.0940   61.9150   21.1990 C.2       1 AZM         0.2120
      4 C4         37.3070   62.4470   21.8940 C.3       1 AZM         0.0337
      5 N1         33.0630   59.1140   15.5560 N.am      1 AZM        -0.2565
      6 N2         35.6360   58.8370   19.2900 N.2       1 AZM        -0.2573
      7 N3         34.6980   58.4400   18.3630 N.2       1 AZM        -0.2476
      8 N4         36.2400   60.6350   20.6680 N.am      1 AZM        -0.1925
      9 O1         31.9450   57.8730   17.3260 O.2       1 AZM        -0.1452
     10 O2         31.6640   60.3250   17.1420 O.2       1 AZM        -0.1452
     11 O3         35.0410   62.5320   21.0950 O.2       1 AZM        -0.3804
     12 S1         32.4740   59.1560   17.0090 S.o2      1 AZM         0.0991
     13 S2         34.0170   60.8120   19.0530 S.3       1 AZM         0.0874
     14 H1         37.0968   63.4564   22.2773 H         1 AZM         0.0474
     15 H2         38.1462   62.4918   21.1843 H         1 AZM         0.0474
     16 H3         37.5700   61.7842   22.7315 H         1 AZM         0.0474
     17 H4         32.4524   59.0017   14.7720 H         1 AZM         0.1638
     18 H5         34.0491   59.1996   15.4135 H         1 AZM         0.1638
     19 H6         37.0149   60.0923   20.9921 H         1 AZM         0.2411
@<TRIPOS>BOND
     1    1    7 2  
     2    1   12 1  
     3   13    1 1  
     4    2    6 2  
     5    8    2 1  
     6    2   13 1  
     7    3    4 1  
     8    3    8 am 
     9    3   11 2  
    10   12    5 am 
    11    6    7 1  
    12   12    9 2  
    13   12   10 2  
    14    4   14 1  
    15    4   15 1  
    16    4   16 1  
    17    5   17 1  
    18    5   18 1  
    19    8   19 1  
@<TRIPOS>SUBSTRUCTURE
     1 AZM         1

