### 
### Created by X-TOOL on Mon Sep 10 21:12:57 2018
### 

@<TRIPOS>MOLECULE
3d04_ligand
   35    37     1     0     0
SMALL
GAST_HUCK


@<TRIPOS>ATOM
      1 CAG        18.8810   16.1720  -11.4600 C.ar      1 SAK        -0.0658
      2 CAE        20.2100   15.9740  -11.8670 C.ar      1 SAK        -0.0397
      3 CAO        20.6550   14.6630  -12.1770 C.ar      1 SAK         0.0805
      4 OAC        21.9350   14.4710  -12.5680 O.3       1 SAK        -0.3376
      5 CAF        19.7880   13.5510  -12.0930 C.ar      1 SAK        -0.0397
      6 CAH        18.4530   13.7520  -11.6760 C.ar      1 SAK        -0.0658
      7 CAR        18.0100   15.0620  -11.3670 C.ar      1 SAK        -0.0181
      8 CAU        16.5580   15.3070  -10.9290 C.3       1 SAK         0.1258
      9 OAM        15.7740   15.9290  -11.9950 O.3       1 SAK        -0.3013
     10 CAK        15.8560   14.0000  -10.5120 C.3       1 SAK         0.0562
     11 CAN        14.3840   14.3160  -10.2210 C.2       1 SAK         0.1187
     12 OAB        13.8360   13.5720   -9.4000 O.2       1 SAK        -0.3966
     13 CAT        13.6950   15.3690  -10.8350 C.ar      1 SAK         0.0787
     14 CAS        14.4500   16.1820  -11.7210 C.ar      1 SAK         0.0990
     15 CAJ        13.8440   17.2710  -12.3780 C.ar      1 SAK        -0.0090
     16 CAP        12.4830   17.5630  -12.1530 C.ar      1 SAK         0.0797
     17 OAL        11.9730   18.6230  -12.8610 O.3       1 SAK        -0.3230
     18 CAA        10.7520   19.2670  -12.4390 C.3       1 SAK         0.0602
     19 CAI        11.7340   16.7550  -11.2730 C.ar      1 SAK        -0.0095
     20 CAQ        12.3260   15.6620  -10.6220 C.ar      1 SAK         0.0925
     21 OAD        11.5240   14.9420   -9.7860 O.3       1 SAK        -0.3326
     22 H1         18.5256   17.1674  -11.2191 H         1 SAK         0.0531
     23 H2         20.8897   16.8149  -11.9437 H         1 SAK         0.0525
     24 H3         22.1012   14.9691  -13.3597 H         1 SAK         0.2458
     25 H4         20.1417   12.5578  -12.3448 H         1 SAK         0.0525
     26 H5         17.7736   12.9114  -11.5932 H         1 SAK         0.0531
     27 H6         16.5755   15.9861  -10.0639 H         1 SAK         0.0822
     28 H7         16.3344   13.5924   -9.6092 H         1 SAK         0.0528
     29 H8         15.9244   13.2646  -11.3271 H         1 SAK         0.0528
     30 H9         14.4245   17.8850  -13.0571 H         1 SAK         0.0390
     31 H10        10.5119   20.0873  -13.1314 H         1 SAK         0.0580
     32 H11        10.8820   19.6703  -11.4239 H         1 SAK         0.0580
     33 H12         9.9316   18.5342  -12.4402 H         1 SAK         0.0580
     34 H13        10.6885   16.9809  -11.0973 H         1 SAK         0.0390
     35 H14        12.0248   14.2316   -9.4025 H         1 SAK         0.2506
@<TRIPOS>BOND
     1    1    2 ar 
     2    1    7 ar 
     3    2    3 ar 
     4    3    4 1  
     5    3    5 ar 
     6    5    6 ar 
     7    6    7 ar 
     8    7    8 1  
     9    8    9 1  
    10    8   10 1  
    11    9   14 1  
    12   10   11 1  
    13   11   12 2  
    14   11   13 1  
    15   13   14 ar 
    16   13   20 ar 
    17   14   15 ar 
    18   15   16 ar 
    19   16   17 1  
    20   16   19 ar 
    21   17   18 1  
    22   19   20 ar 
    23   20   21 1  
    24    1   22 1  
    25    2   23 1  
    26    4   24 1  
    27    5   25 1  
    28    6   26 1  
    29    8   27 1  
    30   10   28 1  
    31   10   29 1  
    32   15   30 1  
    33   18   31 1  
    34   18   32 1  
    35   18   33 1  
    36   19   34 1  
    37   21   35 1  
@<TRIPOS>SUBSTRUCTURE
     1 SAK         1

