### 
### Created by X-TOOL on Mon Sep 10 21:12:58 2018
### 

@<TRIPOS>MOLECULE
3d0b_ligand
   51    54     1     0     0
SMALL
GAST_HUCK


@<TRIPOS>ATOM
      1 O23        -1.8740  -10.7690  -25.7390 O.2       1 SNX        -0.3961
      2 C21        -1.5310  -11.3250  -24.7030 C.2       1 SNX         0.1883
      3 N22        -2.4140  -11.8260  -23.8380 N.am      1 SNX        -0.3035
      4 C18        -0.0630  -11.5390  -24.4880 C.ar      1 SNX         0.0582
      5 C17         0.3810  -12.5950  -23.6970 C.ar      1 SNX        -0.0583
      6 C16         1.7530  -12.8120  -23.5350 C.ar      1 SNX        -0.0365
      7 C19         0.9270  -10.6790  -25.1810 C.ar      1 SNX         0.0532
      8 N24         0.5270   -9.6410  -25.9810 N.pl3     1 SNX        -0.3178
      9 C25         1.4850   -8.7870  -26.6830 C.3       1 SNX         0.0485
     10 C26         0.8090   -7.7510  -27.5810 C.3       1 SNX         0.0669
     11 O27        -0.1760   -7.0500  -26.8170 O.3       1 SNX        -0.3810
     12 C28        -0.1290   -5.6330  -26.9620 C.3       1 SNX         0.0365
     13 C20         2.2790  -10.9690  -24.9680 C.ar      1 SNX        -0.0070
     14 C15         2.7350  -12.0110  -24.1490 C.ar      1 SNX         0.0867
     15 N7          4.0560  -12.2380  -24.0700 N.pl3     1 SNX        -0.2058
     16 C1          4.9860  -11.3710  -23.6050 C.ar      1 SNX         0.0846
     17 C6          4.9570  -10.1250  -22.9820 C.ar      1 SNX        -0.0416
     18 C5          6.1850   -9.5600  -22.5960 C.ar      1 SNX        -0.0776
     19 C4          7.4130  -10.1970  -22.8090 C.ar      1 SNX        -0.0808
     20 C3          7.5090  -11.4460  -23.4230 C.ar      1 SNX        -0.0764
     21 C8          4.5220  -13.3670  -24.6490 C.2       1 SNX         0.0888
     22 C13         3.8300  -14.5500  -25.2880 C.3       1 SNX         0.0186
     23 C12         4.8560  -15.4580  -25.9860 C.3       1 SNX        -0.0230
     24 C11         6.1980  -15.6650  -25.2850 C.3       1 SNX         0.0163
     25 C10         6.8930  -14.3660  -24.9490 C.2       1 SNX         0.0984
     26 O14         8.0950  -14.2160  -25.0670 O.2       1 SNX        -0.4052
     27 C9          5.9720  -13.2980  -24.4900 C.2       1 SNX         0.0353
     28 C2          6.3110  -12.0310  -23.8220 C.ar      1 SNX        -0.0143
     29 H1         -2.0964  -12.2734  -23.0020 H         1 SNX         0.1800
     30 H2         -3.3936  -11.7542  -24.0255 H         1 SNX         0.1800
     31 H3         -0.3342  -13.2468  -23.2084 H         1 SNX         0.0616
     32 H4          2.0755  -13.6351  -22.9076 H         1 SNX         0.0480
     33 H5         -0.4802   -9.4562  -26.0916 H         1 SNX         0.1780
     34 H6          2.1320   -9.4226  -27.3054 H         1 SNX         0.0537
     35 H7          2.0975   -8.2592  -25.9372 H         1 SNX         0.0537
     36 H8          0.3266   -8.2568  -28.4304 H         1 SNX         0.0579
     37 H9          1.5604   -7.0404  -27.9559 H         1 SNX         0.0579
     38 H10        -0.9155   -5.1750  -26.3443 H         1 SNX         0.0523
     39 H11        -0.2899   -5.3668  -28.0171 H         1 SNX         0.0523
     40 H12         0.8546   -5.2635  -26.6364 H         1 SNX         0.0523
     41 H13         3.0176  -10.3512  -25.4659 H         1 SNX         0.0475
     42 H14         4.0206   -9.6096  -22.8014 H         1 SNX         0.0548
     43 H15         6.1807   -8.5897  -22.1128 H         1 SNX         0.0512
     44 H16         8.3216   -9.7023  -22.4854 H         1 SNX         0.0515
     45 H17         8.4641  -11.9339  -23.5806 H         1 SNX         0.0515
     46 H18         3.1030  -14.1875  -26.0297 H         1 SNX         0.0506
     47 H19         3.3054  -15.1260  -24.5115 H         1 SNX         0.0506
     48 H20         5.0632  -15.0236  -26.9751 H         1 SNX         0.0318
     49 H21         4.3916  -16.4474  -26.1100 H         1 SNX         0.0318
     50 H22         6.8523  -16.2522  -25.9461 H         1 SNX         0.0477
     51 H23         6.0245  -16.2216  -24.3522 H         1 SNX         0.0477
@<TRIPOS>BOND
     1    1    2 2  
     2    2    3 am 
     3    2    4 1  
     4    4    5 ar 
     5    4    7 ar 
     6    5    6 ar 
     7    6   14 ar 
     8    7    8 1  
     9    7   13 ar 
    10    8    9 1  
    11    9   10 1  
    12   10   11 1  
    13   11   12 1  
    14   13   14 ar 
    15   14   15 1  
    16   15   16 1  
    17   15   21 1  
    18   16   17 ar 
    19   16   28 ar 
    20   17   18 ar 
    21   18   19 ar 
    22   19   20 ar 
    23   20   28 ar 
    24   21   22 1  
    25   21   27 2  
    26   22   23 1  
    27   23   24 1  
    28   24   25 1  
    29   25   26 2  
    30   25   27 1  
    31   27   28 1  
    32    3   29 1  
    33    3   30 1  
    34    5   31 1  
    35    6   32 1  
    36    8   33 1  
    37    9   34 1  
    38    9   35 1  
    39   10   36 1  
    40   10   37 1  
    41   12   38 1  
    42   12   39 1  
    43   12   40 1  
    44   13   41 1  
    45   17   42 1  
    46   18   43 1  
    47   19   44 1  
    48   20   45 1  
    49   22   46 1  
    50   22   47 1  
    51   23   48 1  
    52   23   49 1  
    53   24   50 1  
    54   24   51 1  
@<TRIPOS>SUBSTRUCTURE
     1 SNX         1

