### 
### Created by X-TOOL on Mon Sep 10 21:12:58 2018
### 

@<TRIPOS>MOLECULE
3d0e_ligand
   59    62     1     0     0
SMALL
GAST_HUCK


@<TRIPOS>ATOM
      1 C3         23.4950  -17.2510    5.4310 C.1       1 G93        -0.0587
      2 N2         22.3560  -18.5990    9.7030 N.pl3     1 G93        -0.2296
      3 N3         22.8530  -16.8290    8.3640 N.2       1 G93        -0.3015
      4 C2         23.2300  -18.1920    6.2720 C.ar      1 G93         0.0822
      5 O2         22.3080  -21.4340    8.7240 O.3       1 G93        -0.3123
      6 N1         23.2120  -19.4600    5.8090 N.ar      1 G93        -0.3137
      7 C1         22.9190  -17.9470    7.6130 C.ar      1 G93         0.0651
      8 N6         22.3620  -14.2920    9.3140 N.pl3     1 G93        -0.3274
      9 C17        22.3130  -14.8950   10.5380 C.2       1 G93         0.1594
     10 N5         22.1870  -14.2090   11.6860 N.2       1 G93        -0.0956
     11 O3         22.1900  -15.2830   12.6420 O.3       1 G93        -0.0673
     12 N4         22.3110  -16.5930   12.0410 N.2       1 G93        -0.0780
     13 C16        22.3560  -16.2720   10.7260 C.2       1 G93         0.1737
     14 C15        22.5090  -17.2610    9.5990 C.2       1 G93         0.1593
     15 C13        21.9730  -19.3950   10.8850 C.3       1 G93         0.0537
     16 C14        23.1600  -19.9980   11.5980 C.3       1 G93        -0.0383
     17 C4         23.7580  -16.5350    4.5080 C.1       1 G93        -0.0651
     18 C5         23.8360  -15.6260    3.3430 C.3       1 G93         0.1204
     19 C7         23.0250  -14.3660    3.6270 C.3       1 G93        -0.0251
     20 C6         25.2950  -15.2760    3.0820 C.3       1 G93        -0.0251
     21 O1         23.3240  -16.2800    2.1780 O.3       1 G93        -0.3773
     22 C12        22.6150  -19.0290    8.4490 C.ar      1 G93         0.1352
     23 C9         22.6090  -20.3370    7.9460 C.ar      1 G93         0.1413
     24 C8         22.9220  -20.5070    6.5930 C.ar      1 G93         0.0234
     25 C10        22.0360  -22.7210    8.1490 C.3       1 G93         0.0786
     26 C11        21.4890  -23.6990    9.1840 C.3       1 G93         0.0271
     27 C18        20.1950  -23.1780    9.7950 C.3       1 G93        -0.0283
     28 N7         19.7470  -24.0150   10.9020 N.4       1 G93         0.2272
     29 C19        20.6670  -24.6070   11.8580 C.3       1 G93        -0.0337
     30 C20        22.0000  -25.0130   11.2320 C.3       1 G93        -0.0121
     31 C21        22.5070  -23.9270   10.2930 C.3       1 G93        -0.0381
     32 H1         22.4594  -14.8628    8.4622 H         1 G93         0.1702
     33 H2         22.3015  -13.2663    9.2424 H         1 G93         0.1702
     34 H3         21.3086  -20.2090   10.5596 H         1 G93         0.0600
     35 H4         21.4357  -18.7422   11.5886 H         1 G93         0.0600
     36 H5         22.8111  -20.5767   12.4660 H         1 G93         0.0255
     37 H6         23.8302  -19.1949   11.9382 H         1 G93         0.0255
     38 H7         23.7031  -20.6617   10.9092 H         1 G93         0.0255
     39 H8         23.0827  -13.6899    2.7612 H         1 G93         0.0267
     40 H9         23.4322  -13.8602    4.5149 H         1 G93         0.0267
     41 H10        21.9752  -14.6390    3.8097 H         1 G93         0.0267
     42 H11        25.8623  -16.1964    2.8796 H         1 G93         0.0267
     43 H12        25.7152  -14.7731    3.9655 H         1 G93         0.0267
     44 H13        25.3614  -14.6057    2.2124 H         1 G93         0.0267
     45 H14        23.8331  -17.0636    2.0066 H         1 G93         0.2113
     46 H15        22.9300  -21.5054    6.1708 H         1 G93         0.0635
     47 H16        22.9684  -23.1289    7.7315 H         1 G93         0.0620
     48 H17        21.2951  -22.6024    7.3447 H         1 G93         0.0620
     49 H18        21.2848  -24.6579    8.6852 H         1 G93         0.0379
     50 H19        19.4147  -23.1643    9.0198 H         1 G93         0.0817
     51 H20        20.3618  -22.1558   10.1656 H         1 G93         0.0817
     52 H21        19.2439  -24.7830   10.4859 H         1 G93         0.2013
     53 H22        19.1104  -23.4488   11.4407 H         1 G93         0.2013
     54 H23        20.1956  -25.5022   12.2898 H         1 G93         0.0814
     55 H24        20.8629  -23.8750   12.6553 H         1 G93         0.0814
     56 H25        21.8634  -25.9456   10.6649 H         1 G93         0.0317
     57 H26        22.7395  -25.1741   12.0302 H         1 G93         0.0317
     58 H27        22.6509  -22.9932   10.8563 H         1 G93         0.0272
     59 H28        23.4648  -24.2410    9.8526 H         1 G93         0.0272
@<TRIPOS>BOND
     1    4    1 1  
     2    1   17 3  
     3    2   14 1  
     4    2   15 1  
     5   22    2 1  
     6    7    3 1  
     7    3   14 2  
     8    4    6 ar 
     9    7    4 ar 
    10   23    5 1  
    11    5   25 1  
    12    6   24 ar 
    13   22    7 ar 
    14    9    8 1  
    15    9   10 2  
    16   13    9 1  
    17   11   10 1  
    18   12   11 1  
    19   13   12 2  
    20   14   13 1  
    21   15   16 1  
    22   17   18 1  
    23   18   19 1  
    24   18   20 1  
    25   18   21 1  
    26   22   23 ar 
    27   23   24 ar 
    28   25   26 1  
    29   26   27 1  
    30   26   31 1  
    31   27   28 1  
    32   28   29 1  
    33   29   30 1  
    34   30   31 1  
    35    8   32 1  
    36    8   33 1  
    37   15   34 1  
    38   15   35 1  
    39   16   36 1  
    40   16   37 1  
    41   16   38 1  
    42   19   39 1  
    43   19   40 1  
    44   19   41 1  
    45   20   42 1  
    46   20   43 1  
    47   20   44 1  
    48   21   45 1  
    49   24   46 1  
    50   25   47 1  
    51   25   48 1  
    52   26   49 1  
    53   27   50 1  
    54   27   51 1  
    55   28   52 1  
    56   28   53 1  
    57   29   54 1  
    58   29   55 1  
    59   30   56 1  
    60   30   57 1  
    61   31   58 1  
    62   31   59 1  
@<TRIPOS>SUBSTRUCTURE
     1 G93         1

