### 
### Created by X-TOOL on Mon Sep 10 21:12:58 2018
### 

@<TRIPOS>MOLECULE
3d14_ligand
   46    49     1     0     0
SMALL
GAST_HUCK


@<TRIPOS>ATOM
      1 C31        -9.0590   27.5570   76.6280 C.2       1 AK1        -0.0518
      2 C27        -8.7380   27.5020   77.9380 C.2       1 AK1         0.0144
      3 C23       -14.2610   18.4460   78.1120 C.3       1 AK1         0.3726
      4 C17       -12.9550   20.5970   77.8590 C.ar      1 AK1        -0.0126
      5 C20       -12.6730   20.7770   80.6270 C.ar      1 AK1        -0.0434
      6 C15       -12.2570   21.6790   78.4140 C.ar      1 AK1         0.0961
      7 C12        -7.9540   28.5940   78.6720 C.3       1 AK1         0.0053
      8 C14       -10.9700   23.6590   77.9790 C.2       1 AK1         0.3271
      9 C11        -6.6750   28.0640   79.3300 C.3       1 AK1         0.0376
     10 C9         -5.1370   30.0380   79.6030 C.ar      1 AK1         0.1408
     11 C7         -4.0610   30.9590   77.5860 C.ar      1 AK1         0.0538
     12 C4         -4.5240   30.9780   80.3860 C.ar      1 AK1         0.1057
     13 C3         -3.6990   31.8790   79.8570 C.ar      1 AK1         0.0418
     14 C2         -3.1950   32.7030   80.6740 C.2       1 AK1        -0.0399
     15 C1         -3.5770   32.5060   81.8770 C.2       1 AK1         0.0084
     16 F26       -14.6250   18.7030   76.8700 F         1 AK1        -0.2209
     17 N30        -9.7250   26.5360   76.2380 N.2       1 AK1        -0.3390
     18 C29        -9.9610   25.6870   77.2360 C.2       1 AK1         0.1988
     19 S28        -9.3020   26.1840   78.5840 S.3       1 AK1         0.0179
     20 N6         -3.4780   31.8800   78.5410 N.ar      1 AK1        -0.3007
     21 N10        -5.9800   29.1240   80.0990 N.pl3     1 AK1        -0.3000
     22 N8         -4.9350   30.0150   78.2750 N.ar      1 AK1        -0.2661
     23 S5         -4.6210   31.2090   82.0520 S.3       1 AK1        -0.0213
     24 F24       -13.5090   17.3650   78.1360 F         1 AK1        -0.2209
     25 F25       -15.3390   18.2210   78.8320 F         1 AK1        -0.2209
     26 C18       -13.5030   19.6110   78.6870 C.ar      1 AK1         0.0333
     27 C19       -13.3610   19.7040   80.0680 C.ar      1 AK1        -0.0452
     28 C21       -12.1250   21.7590   79.8050 C.ar      1 AK1        -0.0114
     29 N22       -11.7350   22.6240   77.5930 N.am      1 AK1        -0.2070
     30 N13       -10.6870   24.5720   77.0430 N.am      1 AK1        -0.1790
     31 O16       -10.5410   23.7650   79.1230 O.2       1 AK1        -0.3771
     32 H1         -8.7811   28.3816   75.9733 H         1 AK1         0.0346
     33 H2        -13.0706   20.5240   76.7837 H         1 AK1         0.0710
     34 H3        -12.5635   20.8486   81.7031 H         1 AK1         0.0664
     35 H4         -8.5982   29.0255   79.4523 H         1 AK1         0.0436
     36 H5         -7.6795   29.3763   77.9491 H         1 AK1         0.0436
     37 H6         -5.9993   27.6890   78.5472 H         1 AK1         0.0544
     38 H7         -6.9381   27.2420   80.0119 H         1 AK1         0.0544
     39 H8         -3.8754   30.9697   76.5181 H         1 AK1         0.1007
     40 H9         -2.5082   33.4963   80.3826 H         1 AK1         0.0456
     41 H10        -3.2532   33.1251   82.7123 H         1 AK1         0.0898
     42 H11        -6.1633   29.1607   81.1119 H         1 AK1         0.1840
     43 H12       -13.7865   18.9403   80.7089 H         1 AK1         0.0740
     44 H13       -11.5914   22.5928   80.2467 H         1 AK1         0.0758
     45 H14       -11.9367   22.5436   76.6169 H         1 AK1         0.2267
     46 H15       -11.0453   24.4118   76.1232 H         1 AK1         0.2390
@<TRIPOS>BOND
     1    2    1 2  
     2   17    1 1  
     3    2    7 1  
     4   19    2 1  
     5    3   16 1  
     6    3   24 1  
     7    3   25 1  
     8   26    3 1  
     9    6    4 ar 
    10    4   26 ar 
    11    5   27 ar 
    12   28    5 ar 
    13    6   28 ar 
    14   29    6 1  
    15    7    9 1  
    16    8   29 am 
    17   30    8 am 
    18    8   31 2  
    19    9   21 1  
    20   10   12 ar 
    21   21   10 1  
    22   10   22 ar 
    23   11   20 ar 
    24   22   11 ar 
    25   12   13 ar 
    26   12   23 1  
    27   13   14 1  
    28   13   20 ar 
    29   15   14 2  
    30   23   15 1  
    31   18   17 2  
    32   18   19 1  
    33   18   30 1  
    34   26   27 ar 
    35    1   32 1  
    36    4   33 1  
    37    5   34 1  
    38    7   35 1  
    39    7   36 1  
    40    9   37 1  
    41    9   38 1  
    42   11   39 1  
    43   14   40 1  
    44   15   41 1  
    45   21   42 1  
    46   27   43 1  
    47   28   44 1  
    48   29   45 1  
    49   30   46 1  
@<TRIPOS>SUBSTRUCTURE
     1 AK1         1

