### 
### Created by X-TOOL on Mon Sep 10 21:12:59 2018
### 

@<TRIPOS>MOLECULE
3d1g_ligand
   36    37     1     0     0
SMALL
GAST_HUCK


@<TRIPOS>ATOM
      1 C10       -43.3330 -109.2750  -40.4900 C.2       1 322         0.0641
      2 C8        -42.4980 -111.7590  -42.5850 C.2       1 322         0.1523
      3 C9        -42.1070 -110.1430  -40.6670 C.3       1 322         0.1161
      4 C4        -44.7830 -115.9450  -42.6180 C.ar      1 322        -0.0337
      5 C5        -45.0040 -115.6440  -41.2300 C.ar      1 322        -0.0470
      6 C6        -44.4110 -114.3830  -40.5950 C.3       1 322         0.0079
      7 C3        -45.3670 -117.0990  -43.2370 C.ar      1 322         0.1196
      8 C2        -44.4080 -116.7380  -45.4780 C.3       1 322         0.0658
      9 C1        -44.4470 -117.4210  -46.8310 C.3       1 322        -0.0374
     10 C7        -43.1150 -113.7830  -41.0890 C.3       1 322         0.1322
     11 BR1       -46.1040 -116.2080  -38.5980 Br        1 322        -0.0667
     12 BR2       -47.5420 -118.8210  -40.0810 Br        1 322        -0.0606
     13 N1        -42.4740 -111.4700  -41.2230 N.am      1 322        -0.1730
     14 S1        -42.9880 -113.4040  -42.8410 S.3       1 322        -0.0156
     15 O1        -45.2230 -117.5130  -44.5840 O.3       1 322        -0.3207
     16 C11       -42.8100 -112.5140  -40.3550 C.2       1 322         0.2356
     17 C12       -45.8140 -116.5370  -40.4670 C.ar      1 322         0.0031
     18 C13       -46.4120 -117.6630  -41.0790 C.ar      1 322         0.0352
     19 C14       -46.1890 -117.9350  -42.4520 C.ar      1 322         0.1222
     20 O2        -44.4480 -109.4860  -40.9570 O.co2     1 322        -0.5663
     21 S2        -42.1320 -110.7560  -43.8700 S.2       1 322        -0.2553
     22 O3        -43.0270 -108.2010  -39.7200 O.co2     1 322        -0.5663
     23 O4        -42.8490 -112.4570  -39.1310 O.2       1 322        -0.3788
     24 O5        -46.7840 -119.0410  -43.0410 O.3       1 322        -0.3383
     25 H1        -41.6210 -110.2836  -39.6903 H         1 322         0.0772
     26 H2        -41.4089 -109.6445  -41.3556 H         1 322         0.0772
     27 H3        -44.1605 -115.2843  -43.2105 H         1 322         0.0480
     28 H4        -44.2596 -114.6139  -39.5302 H         1 322         0.0450
     29 H5        -45.1743 -113.5973  -40.6950 H         1 322         0.0450
     30 H6        -44.8069 -115.7162  -45.5606 H         1 322         0.0608
     31 H7        -43.3736 -116.6989  -45.1058 H         1 322         0.0608
     32 H8        -43.8318 -116.8544  -47.5456 H         1 322         0.0255
     33 H9        -45.4853 -117.4607  -47.1919 H         1 322         0.0255
     34 H10       -44.0521 -118.4433  -46.7372 H         1 322         0.0255
     35 H11       -42.3280 -114.5164  -40.8596 H         1 322         0.0716
     36 H12       -46.5369 -119.0817  -43.9574 H         1 322         0.2436
@<TRIPOS>BOND
     1    3    1 1  
     2    1   20 ar 
     3    1   22 ar 
     4   13    2 am 
     5   14    2 1  
     6    2   21 2  
     7   13    3 1  
     8    5    4 ar 
     9    4    7 ar 
    10    5    6 1  
    11   17    5 ar 
    12    6   10 1  
    13    7   15 1  
    14    7   19 ar 
    15    8    9 1  
    16   15    8 1  
    17   10   14 1  
    18   10   16 1  
    19   17   11 1  
    20   18   12 1  
    21   16   13 am 
    22   16   23 2  
    23   17   18 ar 
    24   18   19 ar 
    25   19   24 1  
    26    3   25 1  
    27    3   26 1  
    28    4   27 1  
    29    6   28 1  
    30    6   29 1  
    31    8   30 1  
    32    8   31 1  
    33    9   32 1  
    34    9   33 1  
    35    9   34 1  
    36   10   35 1  
    37   24   36 1  
@<TRIPOS>SUBSTRUCTURE
     1 322         1

