### 
### Created by X-TOOL on Mon Sep 10 21:13:01 2018
### 

@<TRIPOS>MOLECULE
3d1v_ligand
   18    19     1     0     0
SMALL
GAST_HUCK


@<TRIPOS>ATOM
      1 O4         52.8530   49.5220   24.0680 O.2       1 D1V        -0.3829
      2 C3         53.7750   48.7590   24.8120 C.2       1 D1V         0.2306
      3 C4         53.0310   47.9700   25.7960 C.ar      1 D1V         0.0804
      4 C1         53.6970   47.0730   26.7110 C.ar      1 D1V         0.0972
      5 N1         55.0890   46.9370   26.6650 N.am      1 D1V        -0.2215
      6 C2         55.6840   47.7130   25.7560 C.2       1 D1V         0.1928
      7 S1         57.3190   47.4830   25.8650 S.2       1 D1V        -0.2868
      8 N2         55.1480   48.5820   24.8370 N.am      1 D1V        -0.1934
      9 C8         52.8740   46.3840   27.5850 C.ar      1 D1V        -0.0316
     10 C7         51.4240   46.5350   27.6570 C.ar      1 D1V        -0.0695
     11 C6         50.8020   47.4530   26.7460 C.ar      1 D1V        -0.0701
     12 C5         51.6350   48.1260   25.7580 C.ar      1 D1V        -0.0530
     13 H1         55.5941   46.3129   27.2611 H         1 D1V         0.2415
     14 H2         55.7377   49.0769   24.1988 H         1 D1V         0.2374
     15 H3         53.3404   45.6810   28.2657 H         1 D1V         0.0529
     16 H4         50.8369   45.9728   28.3742 H         1 D1V         0.0616
     17 H5         49.7355   47.6416   26.7919 H         1 D1V         0.0512
     18 H6         51.1786   48.7460   24.9949 H         1 D1V         0.0632
@<TRIPOS>BOND
     1    1    2 2  
     2    2    3 1  
     3    2    8 am 
     4    3    4 ar 
     5    3   12 ar 
     6    4    5 1  
     7    4    9 ar 
     8    5    6 am 
     9    6    7 2  
    10    6    8 am 
    11    9   10 ar 
    12   10   11 ar 
    13   11   12 ar 
    14    5   13 1  
    15    8   14 1  
    16    9   15 1  
    17   10   16 1  
    18   11   17 1  
    19   12   18 1  
@<TRIPOS>SUBSTRUCTURE
     1 D1V         1

