### 
### Created by X-TOOL on Mon Sep 10 21:12:57 2018
### 

@<TRIPOS>MOLECULE
3d1y_ligand
  100   104     1     0     0
SMALL
GAST_HUCK


@<TRIPOS>ATOM
      1 O1         20.9780   27.7280   18.5490 O.2       1 ROC        -0.3762
      2 C1         21.4510   26.5820   18.5500 C.2       1 ROC         0.2293
      3 N1         23.3190   25.0380   18.9740 N.ar      1 ROC        -0.2737
      4 C2         22.5800   26.0860   19.4010 C.ar      1 ROC         0.1219
      5 C3         22.8410   26.7100   20.5980 C.ar      1 ROC        -0.0136
      6 C4         23.8870   26.2590   21.4010 C.ar      1 ROC        -0.0314
      7 C5         24.7050   25.1450   20.9910 C.ar      1 ROC         0.0097
      8 C6         25.7750   24.6100   21.7090 C.ar      1 ROC        -0.0444
      9 C7         26.5080   23.5160   21.2100 C.ar      1 ROC        -0.0546
     10 C8         26.1660   22.9370   19.9640 C.ar      1 ROC        -0.0545
     11 C9R        25.1030   23.4670   19.2490 C.ar      1 ROC        -0.0370
     12 C10        24.3550   24.5560   19.7190 C.ar      1 ROC         0.0527
     13 N2         20.9600   25.6170   17.7350 N.am      1 ROC        -0.2600
     14 C11        19.7360   25.8000   16.8940 C.3       1 ROC         0.1473
     15 C12        18.7930   24.6560   17.1780 C.2       1 ROC         0.2045
     16 O2         18.8770   23.5740   16.5900 O.2       1 ROC        -0.3943
     17 C13        19.9720   25.9060   15.4060 C.3       1 ROC         0.0773
     18 C14        20.7940   27.1650   15.2220 C.2       1 ROC         0.1780
     19 O3         20.2770   28.2680   15.3590 O.2       1 ROC        -0.3970
     20 N3         22.1000   27.0390   14.9070 N.am      1 ROC        -0.3007
     21 C15        15.4800   24.4660   18.1380 C.3       1 ROC         0.1194
     22 O4         15.0650   25.5680   18.9330 O.3       1 ROC        -0.3840
     23 C16        16.8890   23.9230   18.5020 C.3       1 ROC         0.0823
     24 N4         17.8680   24.9160   18.1120 N.am      1 ROC        -0.2772
     25 C17        16.9550   23.5890   19.9870 C.3       1 ROC         0.0066
     26 C18        18.3750   23.3540   20.4740 C.ar      1 ROC        -0.0408
     27 C19        19.0200   22.1380   20.2780 C.ar      1 ROC        -0.0603
     28 C20        19.0540   24.3870   21.0700 C.ar      1 ROC        -0.0603
     29 C21        20.3910   21.9980   20.7070 C.ar      1 ROC        -0.0686
     30 C22        20.3800   24.2830   21.4960 C.ar      1 ROC        -0.0686
     31 C23        21.0440   23.0460   21.3000 C.ar      1 ROC        -0.0687
     32 N5         14.3620   22.6350   16.9190 N.4       1 ROC         0.2562
     33 C24        14.3890   23.4290   18.1290 C.3       1 ROC        -0.0008
     34 C25        13.6350   21.3700   17.1140 C.3       1 ROC         0.0688
     35 C26        14.4370   20.5410   18.1190 C.2       1 ROC         0.2251
     36 O5         15.6530   20.4530   18.1610 O.2       1 ROC        -0.3909
     37 C27        13.6960   20.5470   15.8120 C.3       1 ROC         0.0113
     38 C28        12.9910   21.3130   14.6730 C.3       1 ROC        -0.0261
     39 C29        13.1190   20.5600   13.3080 C.3       1 ROC        -0.0494
     40 C30        14.6020   20.4430   12.8700 C.3       1 ROC        -0.0528
     41 C31        15.0970   21.8770   12.6480 C.3       1 ROC        -0.0526
     42 C32        15.0830   22.5920   14.0160 C.3       1 ROC        -0.0451
     43 C33        13.6490   22.6920   14.5870 C.3       1 ROC         0.0024
     44 C34        13.5980   23.4180   15.8900 C.3       1 ROC        -0.0266
     45 N6         13.6090   19.8900   18.9900 N.am      1 ROC        -0.2771
     46 C35        14.0820   18.9460   20.0300 C.3       1 ROC         0.0448
     47 C36        14.9210   17.8230   19.4070 C.3       1 ROC        -0.0396
     48 C37        12.7820   18.4370   20.7020 C.3       1 ROC        -0.0396
     49 C38        14.9810   19.7140   21.0550 C.3       1 ROC        -0.0396
     50 H1         22.2349   27.5505   20.9163 H         1 ROC         0.0729
     51 H2         24.0879   26.7519   22.3453 H         1 ROC         0.0774
     52 H3         26.0461   25.0429   22.6651 H         1 ROC         0.0657
     53 H4         27.3372   23.1156   21.7820 H         1 ROC         0.0652
     54 H5         26.7257   22.0938   19.5758 H         1 ROC         0.0657
     55 H6         24.8413   23.0247   18.2946 H         1 ROC         0.0653
     56 H7         21.4389   24.7401   17.6937 H         1 ROC         0.1882
     57 H8         19.2562   26.7372   17.2125 H         1 ROC         0.0826
     58 H9         19.0156   25.9880   14.8688 H         1 ROC         0.0551
     59 H10        20.5242   25.0280   15.0397 H         1 ROC         0.0551
     60 H11        22.6647   27.8545   14.7801 H         1 ROC         0.1814
     61 H12        22.5032   26.1301   14.8005 H         1 ROC         0.1814
     62 H13        15.5654   24.8371   17.1060 H         1 ROC         0.0672
     63 H14        14.1998   25.8475   18.6578 H         1 ROC         0.2101
     64 H15        17.0779   23.0007   17.9331 H         1 ROC         0.0606
     65 H16        17.8535   25.8153   18.5491 H         1 ROC         0.1857
     66 H17        16.3656   22.6783   20.1692 H         1 ROC         0.0449
     67 H18        16.5223   24.4256   20.5552 H         1 ROC         0.0449
     68 H19        18.5017   21.3086   19.8106 H         1 ROC         0.0557
     69 H20        18.5367   25.3282   21.2171 H         1 ROC         0.0557
     70 H21        20.9077   21.0566   20.5588 H         1 ROC         0.0599
     71 H22        20.8853   25.1214   21.9616 H         1 ROC         0.0599
     72 H23        22.0728   22.9289   21.6207 H         1 ROC         0.0559
     73 H24        15.3025   22.4496   16.6072 H         1 ROC         0.2057
     74 H25        13.4206   23.9404   18.2323 H         1 ROC         0.0841
     75 H26        14.5410   22.7552   18.9851 H         1 ROC         0.0841
     76 H27        12.6005   21.5462   17.4438 H         1 ROC         0.1100
     77 H28        13.1936   19.5809   15.9673 H         1 ROC         0.0348
     78 H29        14.7474   20.3738   15.5389 H         1 ROC         0.0348
     79 H30        11.9240   21.4270   14.9148 H         1 ROC         0.0309
     80 H31        12.5602   21.1134   12.5389 H         1 ROC         0.0268
     81 H32        12.6953   19.5504   13.4138 H         1 ROC         0.0268
     82 H33        14.6798   19.8642   11.9378 H         1 ROC         0.0265
     83 H34        15.1944   19.9527   13.6566 H         1 ROC         0.0265
     84 H35        14.4313   22.3991   11.9450 H         1 ROC         0.0265
     85 H36        16.1195   21.8625   12.2428 H         1 ROC         0.0265
     86 H37        15.4908   23.6063   13.8937 H         1 ROC         0.0270
     87 H38        15.7102   22.0271   14.7213 H         1 ROC         0.0270
     88 H39        13.0609   23.2851   13.8712 H         1 ROC         0.0355
     89 H40        14.0502   24.4141   15.7746 H         1 ROC         0.0818
     90 H41        12.5514   23.5254   16.2111 H         1 ROC         0.0818
     91 H42        12.6261   20.0607   18.9215 H         1 ROC         0.1859
     92 H43        15.2597   17.1368   20.1972 H         1 ROC         0.0254
     93 H44        15.7948   18.2568   18.8988 H         1 ROC         0.0254
     94 H45        14.3101   17.2700   18.6783 H         1 ROC         0.0254
     95 H46        13.0365   17.7215   21.4977 H         1 ROC         0.0254
     96 H47        12.1509   17.9402   19.9504 H         1 ROC         0.0254
     97 H48        12.2357   19.2879   21.1350 H         1 ROC         0.0254
     98 H49        15.3338   19.0159   21.8284 H         1 ROC         0.0254
     99 H50        14.3959   20.5177   21.5259 H         1 ROC         0.0254
    100 H51        15.8454   20.1483   20.5313 H         1 ROC         0.0254
@<TRIPOS>BOND
     1    2    1 2  
     2    2    4 1  
     3   13    2 am 
     4    4    3 ar 
     5    3   12 ar 
     6    4    5 ar 
     7    5    6 ar 
     8    6    7 ar 
     9    7    8 ar 
    10   12    7 ar 
    11    8    9 ar 
    12   10    9 ar 
    13   11   10 ar 
    14   12   11 ar 
    15   14   13 1  
    16   15   14 1  
    17   14   17 1  
    18   15   16 2  
    19   24   15 am 
    20   17   18 1  
    21   18   19 2  
    22   18   20 am 
    23   21   22 1  
    24   23   21 1  
    25   21   33 1  
    26   23   24 1  
    27   23   25 1  
    28   25   26 1  
    29   26   27 ar 
    30   26   28 ar 
    31   27   29 ar 
    32   28   30 ar 
    33   29   31 ar 
    34   30   31 ar 
    35   33   32 1  
    36   32   34 1  
    37   32   44 1  
    38   34   35 1  
    39   34   37 1  
    40   35   36 2  
    41   35   45 am 
    42   37   38 1  
    43   38   39 1  
    44   38   43 1  
    45   39   40 1  
    46   40   41 1  
    47   41   42 1  
    48   42   43 1  
    49   43   44 1  
    50   45   46 1  
    51   46   47 1  
    52   46   48 1  
    53   46   49 1  
    54    5   50 1  
    55    6   51 1  
    56    8   52 1  
    57    9   53 1  
    58   10   54 1  
    59   11   55 1  
    60   13   56 1  
    61   14   57 1  
    62   17   58 1  
    63   17   59 1  
    64   20   60 1  
    65   20   61 1  
    66   21   62 1  
    67   22   63 1  
    68   23   64 1  
    69   24   65 1  
    70   25   66 1  
    71   25   67 1  
    72   27   68 1  
    73   28   69 1  
    74   29   70 1  
    75   30   71 1  
    76   31   72 1  
    77   32   73 1  
    78   33   74 1  
    79   33   75 1  
    80   34   76 1  
    81   37   77 1  
    82   37   78 1  
    83   38   79 1  
    84   39   80 1  
    85   39   81 1  
    86   40   82 1  
    87   40   83 1  
    88   41   84 1  
    89   41   85 1  
    90   42   86 1  
    91   42   87 1  
    92   43   88 1  
    93   44   89 1  
    94   44   90 1  
    95   45   91 1  
    96   47   92 1  
    97   47   93 1  
    98   47   94 1  
    99   48   95 1  
   100   48   96 1  
   101   48   97 1  
   102   49   98 1  
   103   49   99 1  
   104   49  100 1  
@<TRIPOS>SUBSTRUCTURE
     1 ROC         1

