### 
### Created by X-TOOL on Mon Sep 10 21:12:57 2018
### 

@<TRIPOS>MOLECULE
3d1z_ligand
   75    78     1     0     0
SMALL
GAST_HUCK


@<TRIPOS>ATOM
      1 N1         21.0700   28.9230   14.0670 N.pl3     1 017        -0.3369
      2 C2         20.4720   27.7580   14.4560 C.ar      1 017         0.0353
      3 C3         19.1680   27.4880   14.0360 C.ar      1 017        -0.0429
      4 C4         18.5120   26.3270   14.4150 C.ar      1 017        -0.0471
      5 C5         19.2350   25.4050   15.1640 C.ar      1 017         0.0949
      6 C6         20.5200   25.6440   15.6750 C.ar      1 017        -0.0471
      7 C7         21.1700   26.8230   15.2410 C.ar      1 017        -0.0429
      8 S8         18.3040   23.9630   15.8030 S.o2      1 017         0.0648
      9 O9         17.0730   23.7540   14.8900 O.2       1 017        -0.1518
     10 O10        19.3240   22.7760   16.0170 O.2       1 017        -0.1518
     11 N11        17.6830   24.3310   17.4470 N.am      1 017        -0.2327
     12 C12        18.6770   24.6800   18.4900 C.3       1 017         0.0319
     13 C13        18.2560   24.0530   19.8520 C.3       1 017        -0.0296
     14 C14        18.1120   22.5400   19.7320 C.3       1 017        -0.0612
     15 C15        19.3780   24.3890   20.8290 C.3       1 017        -0.0612
     16 C16        16.3850   25.0950   17.4320 C.3       1 017         0.0578
     17 C17        15.2450   24.1850   17.9850 C.3       1 017         0.0967
     18 O18        14.0920   24.9990   18.2010 O.3       1 017        -0.3877
     19 C19        14.8600   23.0250   16.9990 C.3       1 017         0.0807
     20 N20        13.9850   22.1660   17.7370 N.am      1 017        -0.2550
     21 C21        14.2760   20.8850   18.0330 C.2       1 017         0.3203
     22 O22        15.3380   20.2430   17.7540 O.2       1 017        -0.3775
     23 O23        13.2080   20.3040   18.7250 O.3       1 017        -0.2578
     24 C24        13.3140   18.8590   18.9830 C.3       1 017         0.1189
     25 C25        12.6640   18.5850   20.3540 C.3       1 017         0.0815
     26 O26        11.2440   18.7390   20.1230 O.3       1 017        -0.3480
     27 C27        11.0500   18.2250   18.7830 C.3       1 017         0.1648
     28 O28        10.1480   19.1240   18.1140 O.3       1 017        -0.3509
     29 C29        10.9100   19.6640   17.0010 C.3       1 017         0.0512
     30 C30        11.9870   18.6030   16.6670 C.3       1 017        -0.0191
     31 C31        12.3210   18.1650   18.0720 C.3       1 017         0.0449
     32 C32        14.1120   23.4850   15.7020 C.3       1 017         0.0064
     33 C33        12.4140   21.9390   14.6750 C.ar      1 017        -0.0603
     34 C34        12.0790   20.8650   13.8270 C.ar      1 017        -0.0686
     35 C35        13.0950   20.1860   13.1440 C.ar      1 017        -0.0687
     36 C36        14.4250   20.5780   13.2280 C.ar      1 017        -0.0686
     37 C37        14.7790   21.6750   14.0430 C.ar      1 017        -0.0603
     38 C38        13.7530   22.3410   14.7560 C.ar      1 017        -0.0408
     39 H1         20.5505   29.6016   13.4921 H         1 017         0.1719
     40 H2         22.0404   29.1228   14.3486 H         1 017         0.1719
     41 H3         18.6575   28.2018   13.3997 H         1 017         0.0515
     42 H4         17.4795   26.1456   14.1392 H         1 017         0.0602
     43 H5         20.9919   24.9579   16.3691 H         1 017         0.0602
     44 H6         22.2034   27.0053   15.5128 H         1 017         0.0515
     45 H7         18.7297   25.7739   18.5926 H         1 017         0.0480
     46 H8         19.6638   24.2910   18.1986 H         1 017         0.0480
     47 H9         17.3046   24.4866   20.1938 H         1 017         0.0311
     48 H10        17.8147   22.1217   20.7049 H         1 017         0.0233
     49 H11        19.0734   22.1035   19.4236 H         1 017         0.0233
     50 H12        17.3440   22.3032   18.9810 H         1 017         0.0233
     51 H13        19.4773   25.4814   20.9116 H         1 017         0.0233
     52 H14        20.3232   23.9615   20.4630 H         1 017         0.0233
     53 H15        19.1427   23.9665   21.8170 H         1 017         0.0233
     54 H16        16.1475   25.3958   16.4009 H         1 017         0.0504
     55 H17        16.4787   25.9911   18.0631 H         1 017         0.0504
     56 H18        15.5724   23.7450   18.9385 H         1 017         0.0634
     57 H19        14.3003   25.6810   18.8286 H         1 017         0.2100
     58 H20        15.7720   22.4847   16.7053 H         1 017         0.0604
     59 H21        13.1106   22.5370   18.0496 H         1 017         0.1873
     60 H22        14.3450   18.4864   18.8919 H         1 017         0.0675
     61 H23        13.0163   19.3100   21.1025 H         1 017         0.0590
     62 H24        12.8933   17.5648   20.6954 H         1 017         0.0590
     63 H25        10.6112   17.2173   18.8280 H         1 017         0.0913
     64 H26        11.3851   20.6137   17.2880 H         1 017         0.0561
     65 H27        10.2544   19.8294   16.1334 H         1 017         0.0561
     66 H28        12.8550   19.0422   16.1535 H         1 017         0.0293
     67 H29        11.5817   17.7785   16.0622 H         1 017         0.0293
     68 H30        12.6618   17.1222   17.9924 H         1 017         0.0380
     69 H31        14.7588   24.1915   15.1612 H         1 017         0.0449
     70 H32        13.1827   23.9927   15.9997 H         1 017         0.0449
     71 H33        11.6497   22.4447   15.2539 H         1 017         0.0557
     72 H34        11.0440   20.5671   13.7045 H         1 017         0.0599
     73 H35        12.8364   19.3296   12.5319 H         1 017         0.0559
     74 H36        15.1867   20.0446   12.6709 H         1 017         0.0599
     75 H37        15.8104   21.9993   14.1210 H         1 017         0.0557
@<TRIPOS>BOND
     1    2    1 1  
     2    3    2 ar 
     3    7    2 ar 
     4    4    3 ar 
     5    5    4 ar 
     6    5    6 ar 
     7    8    5 1  
     8    6    7 ar 
     9    8    9 2  
    10    8   10 2  
    11   11    8 am 
    12   11   12 1  
    13   16   11 1  
    14   12   13 1  
    15   13   14 1  
    16   13   15 1  
    17   17   16 1  
    18   17   18 1  
    19   19   17 1  
    20   19   20 1  
    21   32   19 1  
    22   20   21 am 
    23   21   22 2  
    24   21   23 1  
    25   23   24 1  
    26   24   25 1  
    27   24   31 1  
    28   25   26 1  
    29   27   26 1  
    30   27   28 1  
    31   31   27 1  
    32   29   28 1  
    33   30   29 1  
    34   31   30 1  
    35   38   32 1  
    36   33   34 ar 
    37   33   38 ar 
    38   34   35 ar 
    39   35   36 ar 
    40   36   37 ar 
    41   37   38 ar 
    42    1   39 1  
    43    1   40 1  
    44    3   41 1  
    45    4   42 1  
    46    6   43 1  
    47    7   44 1  
    48   12   45 1  
    49   12   46 1  
    50   13   47 1  
    51   14   48 1  
    52   14   49 1  
    53   14   50 1  
    54   15   51 1  
    55   15   52 1  
    56   15   53 1  
    57   16   54 1  
    58   16   55 1  
    59   17   56 1  
    60   18   57 1  
    61   19   58 1  
    62   20   59 1  
    63   24   60 1  
    64   25   61 1  
    65   25   62 1  
    66   27   63 1  
    67   29   64 1  
    68   29   65 1  
    69   30   66 1  
    70   30   67 1  
    71   31   68 1  
    72   32   69 1  
    73   32   70 1  
    74   33   71 1  
    75   34   72 1  
    76   35   73 1  
    77   36   74 1  
    78   37   75 1  
@<TRIPOS>SUBSTRUCTURE
     1 017         1

