### 
### Created by X-TOOL on Mon Sep 10 21:12:57 2018
### 

@<TRIPOS>MOLECULE
3d20_ligand
   75    78     1     0     0
SMALL
GAST_HUCK


@<TRIPOS>ATOM
      1 N1          8.1160   14.3490   14.1960 N.pl3     1 017        -0.3369
      2 C2          8.6440   15.5450   14.6020 C.ar      1 017         0.0353
      3 C3          9.9760   15.8360   14.2900 C.ar      1 017        -0.0429
      4 C4         10.4970   17.0220   14.6930 C.ar      1 017        -0.0471
      5 C5          9.7360   17.9480   15.4070 C.ar      1 017         0.0949
      6 C6          8.4220   17.6880   15.7250 C.ar      1 017        -0.0471
      7 C7          7.8320   16.4590   15.3260 C.ar      1 017        -0.0429
      8 S8         10.6250   19.3350   16.0840 S.o2      1 017         0.0648
      9 O9         11.7300   19.5680   15.2000 O.2       1 017        -0.1518
     10 O10         9.6790   20.3790   16.3190 O.2       1 017        -0.1518
     11 N11        11.2530   18.9100   17.5790 N.am      1 017        -0.2327
     12 C12        10.3020   18.6560   18.6580 C.3       1 017         0.0319
     13 C13        10.6610   19.2800   20.0120 C.3       1 017        -0.0296
     14 C14        10.6970   20.8020   19.9450 C.3       1 017        -0.0612
     15 C15         9.7140   18.7750   21.1010 C.3       1 017        -0.0612
     16 C16        12.5730   18.2800   17.6490 C.3       1 017         0.0578
     17 C17        13.6930   19.2040   18.1700 C.3       1 017         0.0967
     18 O18        14.8190   18.3940   18.4620 O.3       1 017        -0.3877
     19 C19        14.1020   20.3310   17.2110 C.3       1 017         0.0807
     20 N20        15.0100   21.2060   17.9610 N.am      1 017        -0.2550
     21 C21        14.6350   22.4890   18.2550 C.2       1 017         0.3203
     22 O22        13.5790   23.0510   17.9210 O.2       1 017        -0.3775
     23 O23        15.6070   23.0830   18.9850 O.3       1 017        -0.2578
     24 C24        15.5490   24.5040   19.2320 C.3       1 017         0.1189
     25 C25        16.2190   24.7410   20.5930 C.3       1 017         0.0815
     26 O26        17.6190   24.6700   20.3010 O.3       1 017        -0.3480
     27 C27        17.8640   25.2110   18.9930 C.3       1 017         0.1648
     28 O28        18.6910   24.3040   18.2940 O.3       1 017        -0.3509
     29 C29        17.9690   23.7420   17.2010 C.3       1 017         0.0512
     30 C30        16.7760   24.6200   16.9270 C.3       1 017        -0.0191
     31 C31        16.4920   25.2860   18.2510 C.3       1 017         0.0449
     32 C32        14.8750   19.8270   15.9520 C.3       1 017         0.0064
     33 C33        16.5900   21.3500   14.8810 C.ar      1 017        -0.0603
     34 C34        16.9820   22.4160   14.0690 C.ar      1 017        -0.0686
     35 C35        15.9830   23.1230   13.4320 C.ar      1 017        -0.0687
     36 C36        14.6700   22.7920   13.5890 C.ar      1 017        -0.0686
     37 C37        14.2850   21.7480   14.3860 C.ar      1 017        -0.0603
     38 C38        15.2560   20.9850   15.0650 C.ar      1 017        -0.0408
     39 H1          8.6980   13.6809   13.6707 H         1 017         0.1719
     40 H2          7.1368   14.1172   14.4158 H         1 017         0.1719
     41 H3         10.5809   15.1270   13.7364 H         1 017         0.0515
     42 H4         11.5284   17.2556   14.4547 H         1 017         0.0602
     43 H5          7.8405   18.4175   16.2771 H         1 017         0.0602
     44 H6          6.8004   16.2270   15.5650 H         1 017         0.0515
     45 H7         10.2275   17.5672   18.7953 H         1 017         0.0480
     46 H8          9.3243   19.0545   18.3494 H         1 017         0.0480
     47 H9         11.6747   18.9422   20.2735 H         1 017         0.0311
     48 H10        10.9575   21.2065   20.9342 H         1 017         0.0233
     49 H11         9.7087   21.1792   19.6433 H         1 017         0.0233
     50 H12        11.4508   21.1189   19.2092 H         1 017         0.0233
     51 H13         9.7210   17.6751   21.1118 H         1 017         0.0233
     52 H14         8.6945   19.1332   20.8954 H         1 017         0.0233
     53 H15        10.0452   19.1533   22.0793 H         1 017         0.0233
     54 H16        12.8474   17.9428   16.6386 H         1 017         0.0504
     55 H17        12.5043   17.4108   18.3196 H         1 017         0.0504
     56 H18        13.3391   19.6729   19.1000 H         1 017         0.0634
     57 H19        15.0995   17.9470   17.6721 H         1 017         0.2100
     58 H20        13.2060   20.8828   16.8905 H         1 017         0.0604
     59 H21        15.9023   20.8652   18.2572 H         1 017         0.1873
     60 H22        14.5137   24.8734   19.1923 H         1 017         0.0675
     61 H23        15.9290   23.9621   21.3136 H         1 017         0.0590
     62 H24        15.9520   25.7297   20.9944 H         1 017         0.0590
     63 H25        18.3338   26.2036   19.0568 H         1 017         0.0913
     64 H26        17.6333   22.7267   17.4586 H         1 017         0.0561
     65 H27        18.6135   23.7002   16.3105 H         1 017         0.0561
     66 H28        15.9152   24.0175   16.6012 H         1 017         0.0293
     67 H29        17.0119   25.3690   16.1567 H         1 017         0.0293
     68 H30        16.1308   26.3135   18.0971 H         1 017         0.0380
     69 H31        14.2336   19.1346   15.3870 H         1 017         0.0449
     70 H32        15.7869   19.3025   16.2735 H         1 017         0.0449
     71 H33        17.3573   20.7797   15.3919 H         1 017         0.0557
     72 H34        18.0267   22.6770   13.9444 H         1 017         0.0599
     73 H35        16.2475   23.9584   12.7939 H         1 017         0.0559
     74 H36        13.9130   23.3692   13.0705 H         1 017         0.0599
     75 H37        13.2335   21.5081   14.4949 H         1 017         0.0557
@<TRIPOS>BOND
     1    2    1 1  
     2    3    2 ar 
     3    7    2 ar 
     4    4    3 ar 
     5    5    4 ar 
     6    5    6 ar 
     7    8    5 1  
     8    6    7 ar 
     9    8    9 2  
    10    8   10 2  
    11   11    8 am 
    12   11   12 1  
    13   16   11 1  
    14   12   13 1  
    15   13   14 1  
    16   13   15 1  
    17   17   16 1  
    18   17   18 1  
    19   19   17 1  
    20   19   20 1  
    21   32   19 1  
    22   20   21 am 
    23   21   22 2  
    24   21   23 1  
    25   23   24 1  
    26   24   25 1  
    27   24   31 1  
    28   25   26 1  
    29   27   26 1  
    30   27   28 1  
    31   31   27 1  
    32   29   28 1  
    33   30   29 1  
    34   31   30 1  
    35   38   32 1  
    36   33   34 ar 
    37   33   38 ar 
    38   34   35 ar 
    39   35   36 ar 
    40   36   37 ar 
    41   37   38 ar 
    42    1   39 1  
    43    1   40 1  
    44    3   41 1  
    45    4   42 1  
    46    6   43 1  
    47    7   44 1  
    48   12   45 1  
    49   12   46 1  
    50   13   47 1  
    51   14   48 1  
    52   14   49 1  
    53   14   50 1  
    54   15   51 1  
    55   15   52 1  
    56   15   53 1  
    57   16   54 1  
    58   16   55 1  
    59   17   56 1  
    60   18   57 1  
    61   19   58 1  
    62   20   59 1  
    63   24   60 1  
    64   25   61 1  
    65   25   62 1  
    66   27   63 1  
    67   29   64 1  
    68   29   65 1  
    69   30   66 1  
    70   30   67 1  
    71   31   68 1  
    72   32   69 1  
    73   32   70 1  
    74   33   71 1  
    75   34   72 1  
    76   35   73 1  
    77   36   74 1  
    78   37   75 1  
@<TRIPOS>SUBSTRUCTURE
     1 017         1

