### 
### Created by X-TOOL on Mon Sep 10 21:12:57 2018
### 

@<TRIPOS>MOLECULE
3d27_ligand
   27    28     1     0     0
SMALL
GAST_HUCK


@<TRIPOS>ATOM
      1 O2          1.3330   14.4750    9.5170 O.3       1 W29        -0.3378
      2 C10         0.0100   14.1980    9.3210 C.ar      1 W29         0.1141
      3 C05        -0.4300   13.8760    8.0500 C.ar      1 W29         0.1132
      4 O1          0.4590   13.8440    7.0270 O.3       1 W29        -0.3376
      5 C03        -1.7720   13.5850    7.8180 C.ar      1 W29        -0.0390
      6 C06        -0.9010   14.2360   10.3800 C.ar      1 W29        -0.0435
      7 C04        -2.2480   13.9450   10.1490 C.ar      1 W29        -0.0778
      8 C01        -2.6900   13.6180    8.8640 C.ar      1 W29        -0.0392
      9 C02        -4.1310   13.3110    8.5960 C.2       1 W29         0.0228
     10 S          -4.4990   11.9530    7.5870 S.3       1 W29        -0.0518
     11 C07        -6.2250   12.1260    7.6580 C.2       1 W29        -0.0099
     12 C09        -6.5180   13.2350    8.4590 C.2       1 W29        -0.0699
     13 C08        -5.4220   13.9340    9.0060 C.2       1 W29        -0.0521
     14 C11        -5.5440   15.1530    9.8900 C.3       1 W29        -0.0324
     15 C12        -5.5740   14.7080   11.3300 C.3       1 W29        -0.0581
     16 H1          1.4808   14.6765   10.4335 H         1 W29         0.2442
     17 H2          0.0082   13.6091    6.2245 H         1 W29         0.2442
     18 H3         -2.1035   13.3314    6.8176 H         1 W29         0.0472
     19 H4         -0.5635   14.4906   11.3782 H         1 W29         0.0508
     20 H5         -2.9541   13.9730   10.9710 H         1 W29         0.0472
     21 H6         -6.9528   11.4833    7.1649 H         1 W29         0.0729
     22 H7         -7.5444   13.5441    8.6511 H         1 W29         0.0406
     23 H8         -6.4724   15.6921    9.6503 H         1 W29         0.0387
     24 H9         -4.6820   15.8164    9.7260 H         1 W29         0.0387
     25 H10        -5.6627   15.5881   11.9839 H         1 W29         0.0248
     26 H11        -4.6454   14.1678   11.5663 H         1 W29         0.0248
     27 H12        -6.4358   14.0435   11.4906 H         1 W29         0.0248
@<TRIPOS>BOND
     1    1    2 1  
     2    2    3 ar 
     3    2    6 ar 
     4    3    4 1  
     5    3    5 ar 
     6    5    8 ar 
     7    6    7 ar 
     8    7    8 ar 
     9    8    9 1  
    10    9   10 1  
    11    9   13 2  
    12   10   11 1  
    13   11   12 2  
    14   12   13 1  
    15   13   14 1  
    16   14   15 1  
    17    1   16 1  
    18    4   17 1  
    19    5   18 1  
    20    6   19 1  
    21    7   20 1  
    22   11   21 1  
    23   12   22 1  
    24   14   23 1  
    25   14   24 1  
    26   15   25 1  
    27   15   26 1  
    28   15   27 1  
@<TRIPOS>SUBSTRUCTURE
     1 W29         1

