### 
### Created by X-TOOL on Mon Sep 10 21:13:02 2018
### 

@<TRIPOS>MOLECULE
3d28_ligand
   48    51     1     0     0
SMALL
GAST_HUCK


@<TRIPOS>ATOM
      1 O26        94.0900    5.5460   56.5450 O.2       1 B34        -0.1588
      2 S28        94.7710    6.7180   56.0330 S.o2      1 B34         0.0536
      3 O25        96.1290    7.0440   56.4170 O.2       1 B34        -0.1588
      4 C12        93.7620    8.0760   56.4240 C.ar      1 B34         0.1158
      5 C9         93.4450    8.5250   57.6880 C.ar      1 B34        -0.0289
      6 C5         92.6080    9.6440   57.7710 C.ar      1 B34        -0.0541
      7 N22        94.6080    6.8900   54.4010 N.2       1 B34        -0.2454
      8 C13        93.8370    7.9020   54.1000 C.2       1 B34         0.0448
      9 C10        93.2960    8.6630   55.2490 C.ar      1 B34         0.0316
     10 C6         92.4630    9.7740   55.3300 C.ar      1 B34        -0.0426
     11 C2         92.1220   10.2630   56.6000 C.ar      1 B34        -0.0545
     12 C14        93.5820    8.2430   52.6880 C.2       1 B34         0.1052
     13 C16        93.1160    9.5130   52.0700 C.2       1 B34         0.1872
     14 O24        92.8170   10.5320   52.6760 O.2       1 B34        -0.4097
     15 N23        93.0760    9.3000   50.6950 N.am      1 B34        -0.2409
     16 C17        93.5190    7.9590   50.3140 C.3       1 B34         0.1372
     17 C21        94.7420    7.9960   49.3770 C.3       1 B34        -0.0009
     18 C19        95.1820    6.6050   48.9270 C.3       1 B34        -0.0571
     19 C18        95.9530    8.7280   49.9700 C.3       1 B34        -0.0571
     20 C15        93.8010    7.3940   51.6790 C.2       1 B34         0.1620
     21 O27        94.2450    6.1070   51.8490 O.3       1 B34        -0.2870
     22 C20        92.6560   10.3120   49.7390 C.3       1 B34         0.0701
     23 C11        91.2230   10.1650   49.3120 C.ar      1 B34        -0.0207
     24 C7         90.8790   10.4270   47.9830 C.ar      1 B34        -0.0584
     25 C3         89.5480   10.2960   47.5700 C.ar      1 B34        -0.0685
     26 C8         90.2520    9.7680   50.2360 C.ar      1 B34        -0.0584
     27 C4         88.9240    9.6300   49.8200 C.ar      1 B34        -0.0685
     28 C1         88.5720    9.8980   48.4900 C.ar      1 B34        -0.0687
     29 H1         93.8261    8.0345   58.5764 H         1 B34         0.0653
     30 H2         92.3312   10.0379   58.7422 H         1 B34         0.0666
     31 H3         92.0860   10.2510   54.4326 H         1 B34         0.0681
     32 H4         91.4756   11.1292   56.6828 H         1 B34         0.0634
     33 H5         92.7150    7.3977   49.8155 H         1 B34         0.0903
     34 H6         94.4317    8.5512   48.4796 H         1 B34         0.0359
     35 H7         96.0548    6.6934   48.2633 H         1 B34         0.0236
     36 H8         94.3580    6.1169   48.3860 H         1 B34         0.0236
     37 H9         95.4504    6.0026   49.8074 H         1 B34         0.0236
     38 H10        95.6492    9.7329   50.2986 H         1 B34         0.0236
     39 H11        96.7396    8.8143   49.2059 H         1 B34         0.0236
     40 H12        96.3384    8.1618   50.8307 H         1 B34         0.0236
     41 H13        94.3655    5.9345   52.7754 H         1 B34         0.2763
     42 H14        93.2958   10.2374   48.8473 H         1 B34         0.0687
     43 H15        92.7834   11.3026   50.1999 H         1 B34         0.0687
     44 H16        91.6407   10.7308   47.2741 H         1 B34         0.0557
     45 H17        89.2746   10.5021   46.5415 H         1 B34         0.0599
     46 H18        90.5260    9.5689   51.2657 H         1 B34         0.0557
     47 H19        88.1654    9.3152   50.5275 H         1 B34         0.0599
     48 H20        87.5403    9.7966   48.1732 H         1 B34         0.0559
@<TRIPOS>BOND
     1    1    2 2  
     2    2    3 2  
     3    2    4 1  
     4    2    7 1  
     5    4    5 ar 
     6    4    9 ar 
     7    5    6 ar 
     8    6   11 ar 
     9    7    8 2  
    10    8    9 1  
    11    8   12 1  
    12    9   10 ar 
    13   10   11 ar 
    14   12   13 1  
    15   12   20 2  
    16   13   14 2  
    17   13   15 am 
    18   15   16 1  
    19   15   22 1  
    20   16   17 1  
    21   16   20 1  
    22   17   18 1  
    23   17   19 1  
    24   20   21 1  
    25   22   23 1  
    26   23   24 ar 
    27   23   26 ar 
    28   24   25 ar 
    29   25   28 ar 
    30   26   27 ar 
    31   27   28 ar 
    32    5   29 1  
    33    6   30 1  
    34   10   31 1  
    35   11   32 1  
    36   16   33 1  
    37   17   34 1  
    38   18   35 1  
    39   18   36 1  
    40   18   37 1  
    41   19   38 1  
    42   19   39 1  
    43   19   40 1  
    44   21   41 1  
    45   22   42 1  
    46   22   43 1  
    47   24   44 1  
    48   25   45 1  
    49   26   46 1  
    50   27   47 1  
    51   28   48 1  
@<TRIPOS>SUBSTRUCTURE
     1 B34         1

