### 
### Created by X-TOOL on Mon Sep 10 21:12:58 2018
### 

@<TRIPOS>MOLECULE
3d2t_ligand
   25    26     1     0     0
SMALL
GAST_HUCK


@<TRIPOS>ATOM
      1 FAT         0.4510   40.5170    7.5950 F         1 1FL        -0.1838
      2 CAN         0.4980   41.6850    8.4420 C.ar      1 1FL         0.1373
      3 CAM         0.0120   41.5230    9.6890 C.ar      1 1FL         0.0050
      4 CAF         0.0760   42.5400   10.6580 C.ar      1 1FL         0.1299
      5 FAE        -0.4060   42.3580   11.9120 F         1 1FL        -0.1850
      6 CAG         0.6360   43.7390   10.3630 C.ar      1 1FL        -0.0327
      7 CAH         1.0970   43.9330    9.1440 C.ar      1 1FL        -0.0594
      8 CAO         1.0750   42.9210    8.0660 C.ar      1 1FL         0.0067
      9 CAP         1.5800   43.2020    6.7640 C.ar      1 1FL        -0.0266
     10 CAI         0.8200   42.9120    5.5280 C.ar      1 1FL        -0.0490
     11 CAJ         1.2610   43.0800    4.3110 C.ar      1 1FL         0.0392
     12 CAC         0.3150   42.6970    3.1020 C.2       1 1FL         0.0584
     13 OAD        -1.0880   42.5280    3.3410 O.co2     1 1FL        -0.5642
     14 OAB         0.6960   42.5510    2.0580 O.co2     1 1FL        -0.5642
     15 CAQ         2.8350   43.7130    6.5430 C.ar      1 1FL        -0.0609
     16 CAR         3.2730   43.9490    5.3300 C.ar      1 1FL        -0.0287
     17 CAK         2.5560   43.6530    4.2500 C.ar      1 1FL         0.1034
     18 OAL         3.1400   43.9360    2.9710 O.3       1 1FL        -0.3292
     19 H1         -0.4439   40.5759    9.9539 H         1 1FL         0.0587
     20 H2          0.7029   44.5195   11.1123 H         1 1FL         0.0569
     21 H3          1.5226   44.9033    8.9151 H         1 1FL         0.0591
     22 H4         -0.1872   42.5279    5.6428 H         1 1FL         0.0624
     23 H5          3.4776   43.9259    7.3897 H         1 1FL         0.0611
     24 H6          4.2507   44.3997    5.2035 H         1 1FL         0.0552
     25 H7          2.5347   43.6817    2.2845 H         1 1FL         0.2502
@<TRIPOS>BOND
     1    1    2 1  
     2    2    3 ar 
     3    2    8 ar 
     4    3    4 ar 
     5    4    5 1  
     6    4    6 ar 
     7    6    7 ar 
     8    7    8 ar 
     9    8    9 1  
    10    9   10 ar 
    11    9   15 ar 
    12   10   11 ar 
    13   11   12 1  
    14   11   17 ar 
    15   12   13 ar 
    16   12   14 ar 
    17   15   16 ar 
    18   16   17 ar 
    19   17   18 1  
    20    3   19 1  
    21    6   20 1  
    22    7   21 1  
    23   10   22 1  
    24   15   23 1  
    25   16   24 1  
    26   18   25 1  
@<TRIPOS>SUBSTRUCTURE
     1 1FL         1

