### 
### Created by X-TOOL on Mon Sep 10 21:13:01 2018
### 

@<TRIPOS>MOLECULE
3d3p_ligand
   53    56     1     0     0
SMALL
GAST_HUCK


@<TRIPOS>ATOM
      1 O14        48.7370   47.4590   65.9110 O.2       1 20A        -0.3950
      2 C8         47.6420   47.2230   66.4350 C.2       1 20A         0.1971
      3 N5         47.4610   47.3780   67.7610 N.am      1 20A        -0.2779
      4 C18        48.5190   47.8010   68.6620 C.3       1 20A         0.0635
      5 C22        48.5640   49.3180   68.6080 C.ar      1 20A        -0.0211
      6 C24        49.5440   50.0260   67.9310 C.ar      1 20A        -0.0584
      7 C26        49.5300   51.4200   67.8750 C.ar      1 20A        -0.0685
      8 C4         48.5330   52.0680   68.4860 C.ar      1 20A        -0.0687
      9 C27        47.5450   51.4630   69.1490 C.ar      1 20A        -0.0685
     10 C25        47.5400   50.0630   69.2020 C.ar      1 20A        -0.0584
     11 C3         46.5230   46.9490   65.5170 C.ar      1 20A         0.0841
     12 C7         45.2640   47.1010   66.0630 C.ar      1 20A         0.0041
     13 N11        44.1410   46.9620   65.3410 N.ar      1 20A        -0.2928
     14 C13        44.2400   46.6600   64.0360 C.ar      1 20A         0.1508
     15 N10        43.2520   46.4720   63.0700 N.pl3     1 20A        -0.1889
     16 C17        41.7780   46.5480   63.2910 C.3       1 20A         0.0657
     17 C21        41.2190   45.1820   63.7030 C.3       1 20A        -0.0368
     18 N12        43.8430   46.1940   61.8630 N.2       1 20A        -0.2042
     19 C2         45.5280   46.5060   63.4440 C.ar      1 20A         0.0630
     20 C6         45.1960   46.1880   62.0650 C.2       1 20A         0.0257
     21 C1         46.7060   46.6190   64.1660 C.ar      1 20A         0.0826
     22 N4         47.9450   46.4820   63.6620 N.pl3     1 20A        -0.3046
     23 C9         48.3760   45.8860   62.3850 C.3       1 20A         0.0450
     24 C15        49.5740   44.9320   62.6020 C.3       1 20A        -0.0058
     25 C19        50.0370   44.3830   61.2430 C.3       1 20A         0.0498
     26 O23        50.3730   45.4890   60.4310 O.3       1 20A        -0.3796
     27 C20        49.3040   46.3370   60.0250 C.3       1 20A         0.0498
     28 C16        48.6770   46.9270   61.3080 C.3       1 20A        -0.0058
     29 H1         46.5555   47.1931   68.1430 H         1 20A         0.1864
     30 H2         49.4828   47.3822   68.3368 H         1 20A         0.0682
     31 H3         48.3002   47.4653   69.6864 H         1 20A         0.0682
     32 H4         50.3401   49.4842   67.4333 H         1 20A         0.0557
     33 H5         50.3072   51.9634   67.3498 H         1 20A         0.0599
     34 H6         48.5265   53.1510   68.4402 H         1 20A         0.0559
     35 H7         46.7662   52.0403   69.6341 H         1 20A         0.0599
     36 H8         46.7315   49.5501   69.7103 H         1 20A         0.0557
     37 H9         45.1791   47.3421   67.1164 H         1 20A         0.0801
     38 H10        41.2898   46.8716   62.3599 H         1 20A         0.0617
     39 H11        41.5697   47.2780   64.0871 H         1 20A         0.0617
     40 H12        40.1332   45.2624   63.8600 H         1 20A         0.0256
     41 H13        41.7011   44.8547   64.6360 H         1 20A         0.0256
     42 H14        41.4212   44.4483   62.9088 H         1 20A         0.0256
     43 H15        45.9310   45.9724   61.2909 H         1 20A         0.0727
     44 H16        48.7038   46.8470   64.2552 H         1 20A         0.1862
     45 H17        47.5370   45.2785   62.0149 H         1 20A         0.0563
     46 H18        49.2672   44.0980   63.2502 H         1 20A         0.0310
     47 H19        50.4000   45.4812   63.0774 H         1 20A         0.0310
     48 H20        49.2259   43.8060   60.7749 H         1 20A         0.0560
     49 H21        50.9161   43.7360   61.3790 H         1 20A         0.0560
     50 H22        48.5520   45.7564   59.4706 H         1 20A         0.0560
     51 H23        49.6867   47.1464   59.3859 H         1 20A         0.0560
     52 H24        49.3757   47.6663   61.7265 H         1 20A         0.0310
     53 H25        47.7352   47.4257   61.0355 H         1 20A         0.0310
@<TRIPOS>BOND
     1    1    2 2  
     2    2    3 am 
     3    2   11 1  
     4    3    4 1  
     5    4    5 1  
     6    5    6 ar 
     7    5   10 ar 
     8    6    7 ar 
     9    7    8 ar 
    10    8    9 ar 
    11    9   10 ar 
    12   11   12 ar 
    13   11   21 ar 
    14   12   13 ar 
    15   13   14 ar 
    16   14   15 1  
    17   14   19 ar 
    18   15   16 1  
    19   15   18 1  
    20   16   17 1  
    21   18   20 2  
    22   19   20 1  
    23   19   21 ar 
    24   21   22 1  
    25   22   23 1  
    26   23   24 1  
    27   23   28 1  
    28   24   25 1  
    29   25   26 1  
    30   26   27 1  
    31   27   28 1  
    32    3   29 1  
    33    4   30 1  
    34    4   31 1  
    35    6   32 1  
    36    7   33 1  
    37    8   34 1  
    38    9   35 1  
    39   10   36 1  
    40   12   37 1  
    41   16   38 1  
    42   16   39 1  
    43   17   40 1  
    44   17   41 1  
    45   17   42 1  
    46   20   43 1  
    47   22   44 1  
    48   23   45 1  
    49   24   46 1  
    50   24   47 1  
    51   25   48 1  
    52   25   49 1  
    53   27   50 1  
    54   27   51 1  
    55   28   52 1  
    56   28   53 1  
@<TRIPOS>SUBSTRUCTURE
     1 20A         1

