#	Name:			3d4f_ligand
#	Creating user name:	wangrx
#	Creation time:		Thu Sep 13 11:13:28 2018

#	Modifying user name:	wangrx
#	Modification time:	Thu Sep 13 11:14:53 2018

@<TRIPOS>MOLECULE
3d4f_ligand
   55    57     1     0     0
SMALL
GAST_HUCK


@<TRIPOS>ATOM
      1 O8         34.4240   59.9260    3.8910 O.2       1 LN1        -0.3862 
      2 C7         34.1880   60.9080    4.6010 C.2       1 LN1         0.0909 
      3 C6         34.4240   62.3760    4.2470 C.2       1 LN1         0.0214 
      4 C9         34.0040   63.3770    5.0240 C.2       1 LN1        -0.0781 
      5 CG         34.1730   64.5290    4.3750 C.2       1 LN1         0.0596 
      6 CD1        33.9080   65.8500    4.7300 C.2       1 LN1        -0.0484 
      7 CE1        34.1820   66.8670    3.8160 C.2       1 LN1        -0.0764 
      8 CZ         34.7060   66.5490    2.5660 C.2       1 LN1        -0.0415 
      9 CE2        34.9710   65.2310    2.2040 C.2       1 LN1         0.0677 
     10 ND2        34.7120   64.2040    3.1240 N.pl3     1 LN1        -0.2067 
     11 C5         34.9080   62.8220    3.0180 C.2       1 LN1         0.1668 
     12 N4         35.3090   61.9670    2.0750 N.pl3     1 LN1        -0.2854 
     13 C3         36.6560   62.1020    1.5050 C.3       1 LN1         0.1119 
     14 C3A        37.7180   61.8140    2.5690 C.2       1 LN1         0.0615 
     15 O3A        37.5070   60.8790    3.3660 O.co2     1 LN1        -0.5666 
     16 O3B        38.7430   62.5290    2.5510 O.co2     1 LN1        -0.5666 
     17 C2         36.8010   61.1750    0.2950 C.3       1 LN1         0.0951 
     18 S1         35.3660   61.4260   -0.8120 S.o2      1 LN1        -0.2588 
     19 O12        35.6360   60.8110   -2.0800 O.co2     1 LN1        -0.5003 
     20 O13        35.3040   62.9140   -0.9980 O.co2     1 LN1        -0.5003 
     21 CG2        36.8410   59.7000    0.7080 C.3       1 LN1        -0.0381 
     22 CG1        38.0670   61.5610   -0.4520 C.3       1 LN1         0.1008 
     23 OAV        39.1970   61.3510    0.4060 O.3       1 LN1        -0.2733 
     24 CAX        40.3320   61.5360   -0.3150 C.2       1 LN1         0.2435 
     25 OAD        40.5070   62.5820   -0.9390 O.2       1 LN1        -0.3677 
     26 CAS        41.3860   60.4280   -0.3170 C.3       1 LN1         0.0745 
     27 CAY        42.6520   60.9910   -0.9580 C.ar      1 LN1        -0.0425 
     28 CAQ        42.6960   61.1850   -2.3330 C.ar      1 LN1        -0.0376 
     29 CAM        43.7320   61.3560   -0.1630 C.ar      1 LN1        -0.0776 
     30 CAN        44.8610   61.9200   -0.7460 C.ar      1 LN1        -0.0477 
     31 CAZ        44.9090   62.1170   -2.1220 C.ar      1 LN1         0.1092 
     32 OAH        46.0460   62.6200   -2.6750 O.3       1 LN1        -0.3412 
     33 CBA        43.8250   61.7490   -2.9160 C.ar      1 LN1         0.1102 
     34 OAI        43.8500   61.9090   -4.2670 O.3       1 LN1        -0.3384 
     35 H61        33.7666   60.7067    5.5848 H         1 LN1         0.1239 
     36 H62        33.5904   63.2698    6.0257 H         1 LN1         0.0148 
     37 H63        33.4923   66.0853    5.7086 H         1 LN1         0.0558 
     38 H64        33.9869   67.9056    4.0789 H         1 LN1         0.0506 
     39 H65        34.9131   67.3484    1.8561 H         1 LN1         0.0506 
     40 H66        35.3743   65.0002    1.2191 H         1 LN1         0.1096 
     41 H67        34.6797   61.2193    1.7499 H         1 LN1         0.1794 
     42 H68        36.7877   63.1389    1.1622 H         1 LN1         0.0740 
     43 H69        34.5158   61.0623   -0.4109 H         1 LN1         0.1494 
     44 H70        37.6988   59.5292    1.3751 H         1 LN1         0.0252 
     45 H71        36.9428   59.0708   -0.1885 H         1 LN1         0.0252 
     46 H72        35.9102   59.4411    1.2340 H         1 LN1         0.0252 
     47 H73        38.0158   62.6209   -0.7418 H         1 LN1         0.0635 
     48 H74        38.1677   60.9388   -1.3535 H         1 LN1         0.0635 
     49 H75        41.0233   59.5672   -0.8979 H         1 LN1         0.0653 
     50 H76        41.5980   60.1110    0.7148 H         1 LN1         0.0653 
     51 H77        41.8522   60.8973   -2.9496 H         1 LN1         0.0454 
     52 H78        43.6941   61.2013    0.9092 H         1 LN1         0.0440 
     53 H79        45.7042   62.2064   -0.1279 H         1 LN1         0.0493 
     54 H80        45.9317   62.6988   -3.6148 H         1 LN1         0.2421 
     55 H81        43.0292   61.6047   -4.6360 H         1 LN1         0.2442 
@<TRIPOS>BOND
     1    1    2 2    
     2    2    3 1    
     3    3    4 1    
     4    3   11 2    
     5    4    5 2    
     6    5    6 1    
     7    5   10 1    
     8    6    7 2    
     9    7    8 1    
    10    8    9 2    
    11    9   10 1    
    12   10   11 1    
    13   11   12 1    
    14   12   13 1    
    15   13   14 1    
    16   13   17 1    
    17   14   15 ar   
    18   14   16 ar   
    19   17   18 1    
    20   17   21 1    
    21   17   22 1    
    22   18   19 ar   
    23   18   20 ar   
    24   22   23 1    
    25   23   24 1    
    26   24   25 2    
    27   24   26 1    
    28   26   27 1    
    29   27   28 ar   
    30   27   29 ar   
    31   28   33 ar   
    32   29   30 ar   
    33   30   31 ar   
    34   31   32 1    
    35   31   33 ar   
    36   33   34 1    
    37    2   35 1    
    38    4   36 1    
    39    6   37 1    
    40    7   38 1    
    41    8   39 1    
    42    9   40 1    
    43   12   41 1    
    44   13   42 1    
    45   18   43 1    
    46   21   44 1    
    47   21   45 1    
    48   21   46 1    
    49   22   47 1    
    50   22   48 1    
    51   26   49 1    
    52   26   50 1    
    53   28   51 1    
    54   29   52 1    
    55   30   53 1    
    56   32   54 1    
    57   34   55 1    
@<TRIPOS>SUBSTRUCTURE
     1 LN1         1 PERM              0 ****  ****    0 ROOT 
