### 
### Created by X-TOOL on Mon Sep 10 21:12:58 2018
### 

@<TRIPOS>MOLECULE
3d4l_ligand
   45    47     1     0     0
SMALL
GAST_HUCK


@<TRIPOS>ATOM
      1 C1         34.5290   50.6440   36.2730 C.ar      1 605        -0.0366
      2 C2         35.8890   51.0210   36.5050 C.ar      1 605         0.1291
      3 C3         36.9850   50.0950   36.3740 C.ar      1 605        -0.0037
      4 C4         36.7160   48.7360   35.9030 C.ar      1 605        -0.0282
      5 C5         35.3450   48.3500   35.6540 C.ar      1 605         0.1215
      6 C6         34.2400   49.2970   35.8090 C.ar      1 605        -0.0370
      7 C10        38.4110   50.4910   36.6230 C.3       1 605         0.0341
      8 C11        39.0860   50.6780   35.1980 C.3       1 605         0.0186
      9 C14        40.5140   51.0440   35.3430 C.ar      1 605         0.0073
     10 N15        38.3660   51.7690   34.4270 N.4       1 605         0.2346
     11 C17        41.3460   50.0200   35.9890 C.ar      1 605        -0.0534
     12 C18        42.7230   50.2080   36.1690 C.ar      1 605        -0.0598
     13 C19        43.3890   51.4280   35.7260 C.ar      1 605        -0.0231
     14 C20        42.5660   52.5000   35.0620 C.ar      1 605        -0.0598
     15 C21        41.1480   52.3080   34.8710 C.ar      1 605        -0.0534
     16 C26        44.8660   51.5200   35.9430 C.ar      1 605        -0.0165
     17 C27        45.5940   51.0480   37.1540 C.ar      1 605        -0.0515
     18 C28        47.0410   51.1810   37.2440 C.ar      1 605        -0.0568
     19 C29        47.8030   51.7740   36.1520 C.ar      1 605        -0.0429
     20 C30        47.0940   52.2490   34.9300 C.ar      1 605         0.0492
     21 C31        45.6500   52.1060   34.8670 C.ar      1 605        -0.0357
     22 F34        35.0740   47.1530   35.2390 F         1 605        -0.1887
     23 F35        36.1150   52.2280   36.9100 F         1 605        -0.1925
     24 C40        47.7730   52.8640   33.7720 C.2       1 605         0.2023
     25 N41        47.1900   53.9200   33.1910 N.am      1 605        -0.3001
     26 O42        48.8340   52.4420   33.3410 O.2       1 605        -0.3848
     27 H1         33.7256   51.3522   36.4407 H         1 605         0.0576
     28 H2         37.5267   48.0341   35.7443 H         1 605         0.0532
     29 H3         33.2229   48.9989   35.5816 H         1 605         0.0536
     30 H4         38.9304   49.7032   37.1884 H         1 605         0.0496
     31 H5         38.4498   51.4341   37.1879 H         1 605         0.0496
     32 H6         39.0123   49.7323   34.6410 H         1 605         0.1042
     33 H7         38.7985   51.8834   33.5237 H         1 605         0.2012
     34 H8         38.4227   52.6355   34.9388 H         1 605         0.2012
     35 H9         37.3986   51.5127   34.3063 H         1 605         0.2012
     36 H10        40.8857   49.1009   36.3332 H         1 605         0.0562
     37 H11        43.3061   49.4298   36.6480 H         1 605         0.0609
     38 H12        43.0385   53.4164   34.7272 H         1 605         0.0609
     39 H13        40.5510   53.0742   34.3898 H         1 605         0.0562
     40 H14        45.0425   50.6024   37.9739 H         1 605         0.0649
     41 H15        47.5571   50.8354   38.1324 H         1 605         0.0626
     42 H16        48.8801   51.8691   36.2283 H         1 605         0.0660
     43 H17        45.1336   52.4513   33.9787 H         1 605         0.0668
     44 H18        47.6231   54.3604   32.4046 H         1 605         0.1808
     45 H19        46.3214   54.2684   33.5435 H         1 605         0.1808
@<TRIPOS>BOND
     1    1    2 ar 
     2    1    6 ar 
     3    2    3 ar 
     4    2   23 1  
     5    3    4 ar 
     6    3    7 1  
     7    4    5 ar 
     8    5    6 ar 
     9    5   22 1  
    10    7    8 1  
    11    8    9 1  
    12    8   10 1  
    13    9   11 ar 
    14    9   15 ar 
    15   11   12 ar 
    16   12   13 ar 
    17   13   14 ar 
    18   13   16 1  
    19   14   15 ar 
    20   16   17 ar 
    21   16   21 ar 
    22   17   18 ar 
    23   18   19 ar 
    24   19   20 ar 
    25   20   21 ar 
    26   20   24 1  
    27   24   25 am 
    28   24   26 2  
    29    1   27 1  
    30    4   28 1  
    31    6   29 1  
    32    7   30 1  
    33    7   31 1  
    34    8   32 1  
    35   10   33 1  
    36   10   34 1  
    37   10   35 1  
    38   11   36 1  
    39   12   37 1  
    40   14   38 1  
    41   15   39 1  
    42   17   40 1  
    43   18   41 1  
    44   19   42 1  
    45   21   43 1  
    46   25   44 1  
    47   25   45 1  
@<TRIPOS>SUBSTRUCTURE
     1 605         1

