### 
### Created by X-TOOL on Mon Sep 10 21:12:58 2018
### 

@<TRIPOS>MOLECULE
3d4q_ligand
   55    59     1     0     0
SMALL
GAST_HUCK


@<TRIPOS>ATOM
      1 C18        87.5860    6.9220   -7.5930 C.3       1 SM5         0.0139
      2 N4         86.1670    7.2950   -7.6370 N.4       1 SM5         0.3746
      3 C14        81.6530    4.6490   -5.7640 C.ar      1 SM5        -0.0637
      4 C13        82.7000    5.5100   -6.1410 C.ar      1 SM5        -0.0674
      5 C12        82.5440    6.4220   -7.1840 C.ar      1 SM5        -0.0340
      6 C17        81.1940    6.4880   -7.9520 C.ar      1 SM5        -0.0596
      7 C16        80.1590    5.5860   -7.5350 C.ar      1 SM5        -0.0362
      8 C15        80.4380    4.6840   -6.4410 C.ar      1 SM5        -0.0066
      9 C11        81.8330    9.3240   -7.5860 C.ar      1 SM5        -0.0293
     10 N3         85.7210    8.5800   -8.0120 N.pl3     1 SM5        -0.2907
     11 C10        80.9140   10.3890   -7.8650 C.ar      1 SM5         0.0057
     12 C8         82.5030   11.5550   -9.1340 C.ar      1 SM5         0.0057
     13 C22        89.8700    7.4050   -7.8600 C.3       1 SM5        -0.0285
     14 C7         83.5760   10.4790   -8.9100 C.ar      1 SM5        -0.0293
     15 C5         85.1430    6.4040   -7.3060 C.3       1 SM5         0.0198
     16 C6         83.2120    9.4050   -8.1440 C.ar      1 SM5         0.0201
     17 C1         83.7340    7.1640   -7.4610 C.2       1 SM5         0.0286
     18 C19        87.7740    5.4600   -8.0120 C.3       1 SM5         0.0314
     19 C20        89.2320    4.9460   -7.7250 C.3       1 SM5        -0.0285
     20 C2         84.0570    8.4330   -7.8780 C.2       1 SM5         0.1015
     21 N9         81.2270   11.4930   -8.6190 N.ar      1 SM5        -0.3043
     22 N21        90.2100    5.9550   -8.2090 N.4       1 SM5         0.2273
     23 C23        88.4150    7.7280   -8.2820 C.3       1 SM5         0.0314
     24 C24        78.7450    5.3560   -8.0390 C.3       1 SM5        -0.0088
     25 C25        78.1780    4.1230   -7.0480 C.3       1 SM5         0.0024
     26 C26        79.3620    3.8420   -6.1140 C.2       1 SM5         0.0489
     27 N27        79.4410    3.0460   -5.1830 N.2       1 SM5        -0.1815
     28 O28        78.2300    2.3440   -5.0280 O.3       1 SM5        -0.2705
     29 H1         87.8909    6.9981   -6.5389 H         1 SM5         0.0862
     30 H2         86.1364    6.9922   -8.5979 H         1 SM5         0.2311
     31 H3         81.7936    3.9556   -4.9427 H         1 SM5         0.0590
     32 H4         83.6446    5.4635   -5.6112 H         1 SM5         0.0526
     33 H5         81.0411    7.1855   -8.7676 H         1 SM5         0.0506
     34 H6         81.5303    8.4769   -6.9811 H         1 SM5         0.0691
     35 H7         86.2766    9.3996   -8.2958 H         1 SM5         0.2284
     36 H8         79.9125   10.3182   -7.4562 H         1 SM5         0.0804
     37 H9         82.7666   12.4176   -9.7353 H         1 SM5         0.0804
     38 H10        90.5602    8.0780   -8.3898 H         1 SM5         0.0816
     39 H11        89.9750    7.5521   -6.7750 H         1 SM5         0.0816
     40 H12        84.5690   10.5658   -9.3361 H         1 SM5         0.0691
     41 H13        85.2686    6.0638   -6.2675 H         1 SM5         0.0947
     42 H14        85.1729    5.5368   -7.9821 H         1 SM5         0.0947
     43 H15        87.5721    5.3709   -9.0896 H         1 SM5         0.0372
     44 H16        87.0614    4.8361   -7.4526 H         1 SM5         0.0372
     45 H17        89.3962    3.9933   -8.2497 H         1 SM5         0.0816
     46 H18        89.3630    4.7961   -6.6432 H         1 SM5         0.0816
     47 H19        91.1079    5.7386   -7.8054 H         1 SM5         0.2013
     48 H20        90.2658    5.8799   -9.2126 H         1 SM5         0.2013
     49 H21        88.1863    8.7794   -8.0537 H         1 SM5         0.0372
     50 H22        88.2930    7.5522   -9.3610 H         1 SM5         0.0372
     51 H23        78.7484    5.0438   -9.0938 H         1 SM5         0.0453
     52 H24        78.1341    6.2639   -7.9272 H         1 SM5         0.0453
     53 H25        77.9221    3.2305   -7.6379 H         1 SM5         0.0452
     54 H26        77.2964    4.4508   -6.4776 H         1 SM5         0.0452
     55 H27        78.3095    1.7337   -4.3043 H         1 SM5         0.2723
@<TRIPOS>BOND
     1    2    1 1  
     2    1   18 1  
     3    1   23 1  
     4   10    2 1  
     5    2   15 1  
     6    4    3 ar 
     7    3    8 ar 
     8    5    4 ar 
     9    5    6 ar 
    10   17    5 1  
    11    6    7 ar 
    12    7    8 ar 
    13    7   24 1  
    14    8   26 1  
    15    9   11 ar 
    16   16    9 ar 
    17   20   10 1  
    18   11   21 ar 
    19   14   12 ar 
    20   12   21 ar 
    21   13   22 1  
    22   23   13 1  
    23   16   14 ar 
    24   15   17 1  
    25   16   20 1  
    26   17   20 2  
    27   18   19 1  
    28   19   22 1  
    29   24   25 1  
    30   25   26 1  
    31   26   27 2  
    32   27   28 1  
    33    1   29 1  
    34    2   30 1  
    35    3   31 1  
    36    4   32 1  
    37    6   33 1  
    38    9   34 1  
    39   10   35 1  
    40   11   36 1  
    41   12   37 1  
    42   13   38 1  
    43   13   39 1  
    44   14   40 1  
    45   15   41 1  
    46   15   42 1  
    47   18   43 1  
    48   18   44 1  
    49   19   45 1  
    50   19   46 1  
    51   22   47 1  
    52   22   48 1  
    53   23   49 1  
    54   23   50 1  
    55   24   51 1  
    56   24   52 1  
    57   25   53 1  
    58   25   54 1  
    59   28   55 1  
@<TRIPOS>SUBSTRUCTURE
     1 SM5         1

