### 
### Created by X-TOOL on Mon Sep 10 21:12:57 2018
### 

@<TRIPOS>MOLECULE
3d4y_ligand
   26    27     1     0     0
SMALL
GAST_HUCK


@<TRIPOS>ATOM
      1 C1         30.9340   65.6600   10.2270 C.2       1 MVL         0.1465
      2 N10        29.8310   65.9680    9.4220 N.pl3     1 MVL        -0.2404
      3 C3         32.5490   66.0090    8.2860 C.3       1 MVL         0.1253
      4 C4         31.2980   65.8130    7.4150 C.3       1 MVL         0.1183
      5 C5         29.9510   66.2590    7.9880 C.3       1 MVL         0.1196
      6 C6         28.8310   65.6510    7.1850 C.3       1 MVL         0.0773
      7 C7         29.1610   65.7970   11.5000 C.2       1 MVL        -0.0364
      8 C8         28.7570   66.0700   10.2400 C.2       1 MVL         0.0285
      9 N1         30.4730   65.5630   11.4940 N.2       1 MVL        -0.3367
     10 O3         33.6670   65.4600    7.6320 O.3       1 MVL        -0.3839
     11 O2         33.1470   64.3740    9.9060 O.3       1 MVL        -0.3699
     12 O4         31.4580   66.6910    6.2940 O.3       1 MVL        -0.3858
     13 C2         32.3960   65.5560    9.6900 C.3       1 MVL         0.1586
     14 O6         27.5810   66.1010    7.6760 O.3       1 MVL        -0.3918
     15 H1         32.7211   67.0940    8.3428 H         1 MVL         0.0675
     16 H2         31.2379   64.7580    7.1094 H         1 MVL         0.0654
     17 H3         29.8867   67.3511    7.8738 H         1 MVL         0.0704
     18 H4         28.8798   64.5549    7.2641 H         1 MVL         0.0589
     19 H5         28.9361   65.9477    6.1310 H         1 MVL         0.0589
     20 H6         28.5183   65.7722   12.3787 H         1 MVL         0.0408
     21 H7         27.7437   66.3274    9.9353 H         1 MVL         0.0796
     22 H8         33.7902   65.8966    6.7973 H         1 MVL         0.2103
     23 H9         34.0648   64.5471    9.7323 H         1 MVL         0.2138
     24 H10        32.2787   66.4976    5.8563 H         1 MVL         0.2100
     25 H11        32.9291   66.3108   10.2867 H         1 MVL         0.0858
     26 H12        27.5370   67.0475    7.6069 H         1 MVL         0.2095
@<TRIPOS>BOND
     1    1    2 1  
     2    1    9 2  
     3   13    1 1  
     4    2    5 1  
     5    2    8 1  
     6    3    4 1  
     7    3   10 1  
     8    3   13 1  
     9    4    5 1  
    10    4   12 1  
    11    5    6 1  
    12    6   14 1  
    13    8    7 2  
    14    7    9 1  
    15   13   11 1  
    16    3   15 1  
    17    4   16 1  
    18    5   17 1  
    19    6   18 1  
    20    6   19 1  
    21    7   20 1  
    22    8   21 1  
    23   10   22 1  
    24   11   23 1  
    25   12   24 1  
    26   13   25 1  
    27   14   26 1  
@<TRIPOS>SUBSTRUCTURE
     1 MVL         1

