### 
### Created by X-TOOL on Mon Sep 10 21:12:57 2018
### 

@<TRIPOS>MOLECULE
3d4z_ligand
   26    27     1     0     0
SMALL
GAST_HUCK


@<TRIPOS>ATOM
      1 C1         30.7970   65.9420    9.6970 C.2       1 GIM         0.1465
      2 C2         31.9610   65.3180    8.9250 C.3       1 GIM         0.1586
      3 N10        29.8090   66.5940    8.9820 N.pl3     1 GIM        -0.2404
      4 C3         32.3650   66.3030    7.8260 C.3       1 GIM         0.1253
      5 C4         31.1990   66.4350    6.8650 C.3       1 GIM         0.1183
      6 C5         29.8750   66.8470    7.5350 C.3       1 GIM         0.1196
      7 C6         28.7490   66.0830    6.7850 C.3       1 GIM         0.0773
      8 C7         29.3520   66.6560   11.1160 C.2       1 GIM        -0.0364
      9 C8         28.8980   66.9960    9.9080 C.2       1 GIM         0.0285
     10 N1         30.5160   65.9940   10.9800 N.2       1 GIM        -0.3367
     11 O3         33.4910   65.6800    7.1400 O.3       1 GIM        -0.3839
     12 O2         33.0570   64.9380    9.7170 O.3       1 GIM        -0.3699
     13 O4         31.4880   67.4510    5.8940 O.3       1 GIM        -0.3858
     14 O6         27.4750   66.5040    7.2990 O.3       1 GIM        -0.3918
     15 H1         31.5867   64.4026    8.4435 H         1 GIM         0.0858
     16 H2         32.6423   67.2830    8.2416 H         1 GIM         0.0675
     17 H3         31.0572   65.4675    6.3612 H         1 GIM         0.0654
     18 H4         29.7357   67.9278    7.3849 H         1 GIM         0.0704
     19 H5         28.8703   65.0009    6.9413 H         1 GIM         0.0589
     20 H6         28.8048   66.3067    5.7094 H         1 GIM         0.0589
     21 H7         28.8592   66.8787   12.0612 H         1 GIM         0.0408
     22 H8         27.9594   67.5074    9.6997 H         1 GIM         0.0796
     23 H9         33.7479   66.2192    6.4012 H         1 GIM         0.2103
     24 H10        33.4302   65.7080   10.1296 H         1 GIM         0.2138
     25 H11        32.3013   67.2411    5.4502 H         1 GIM         0.2100
     26 H12        27.3734   67.4388    7.1637 H         1 GIM         0.2095
@<TRIPOS>BOND
     1    1    2 1  
     2    1    3 1  
     3    1   10 2  
     4    2    4 1  
     5    2   12 1  
     6    3    6 1  
     7    3    9 1  
     8    4    5 1  
     9    4   11 1  
    10    5    6 1  
    11    5   13 1  
    12    6    7 1  
    13    7   14 1  
    14    9    8 2  
    15    8   10 1  
    16    2   15 1  
    17    4   16 1  
    18    5   17 1  
    19    6   18 1  
    20    7   19 1  
    21    7   20 1  
    22    8   21 1  
    23    9   22 1  
    24   11   23 1  
    25   12   24 1  
    26   13   25 1  
    27   14   26 1  
@<TRIPOS>SUBSTRUCTURE
     1 GIM         1

