### 
### Created by X-TOOL on Mon Sep 10 21:12:57 2018
### 

@<TRIPOS>MOLECULE
3d50_ligand
   50    50     1     0     0
SMALL
GAST_HUCK


@<TRIPOS>ATOM
      1 C1         31.0090   66.4990    9.8830 C.3       1 OEV         0.0137
      2 N1         30.6640   65.6540   10.9880 N.4       1 OEV         0.2374
      3 C2         32.0920   65.7570    9.0390 C.3       1 OEV         0.1303
      4 O2         33.1750   65.4250    9.8250 O.3       1 OEV        -0.3821
      5 C3         32.4520   66.6210    7.8710 C.3       1 OEV         0.1215
      6 O3         33.5420   66.2060    7.1200 O.3       1 OEV        -0.3843
      7 C4         31.2470   66.7780    6.9260 C.3       1 OEV         0.1112
      8 O4         31.4800   67.7320    5.9490 O.3       1 OEV        -0.3780
      9 C5         29.9150   67.0050    7.6700 C.2       1 OEV        -0.0200
     10 C6         28.6920   67.3290    6.8370 C.3       1 OEV         0.0719
     11 O6         27.5090   67.0920    7.5090 O.3       1 OEV        -0.3839
     12 C7         29.8170   66.8480    9.0230 C.2       1 OEV        -0.0543
     13 C8         29.5290   66.1410   11.7530 C.3       1 OEV        -0.0326
     14 C9         29.7400   67.5650   12.2080 C.3       1 OEV        -0.0126
     15 C10        28.9420   67.9290   13.4760 C.3       1 OEV        -0.0483
     16 C11        27.4620   68.1630   13.2640 C.3       1 OEV        -0.0529
     17 C12        26.9860   68.0100   11.8560 C.3       1 OEV        -0.0531
     18 C13        25.5470   68.5010   11.5720 C.3       1 OEV        -0.0533
     19 C14        24.5710   67.3530   11.5300 C.3       1 OEV        -0.0559
     20 C15        23.8660   67.1690   10.1960 C.3       1 OEV        -0.0653
     21 H1         31.4350   67.4347   10.2741 H         1 OEV         0.0950
     22 H2         31.4603   65.5905   11.6028 H         1 OEV         0.2024
     23 H3         30.4403   64.7378   10.6322 H         1 OEV         0.2024
     24 H4         31.6592   64.8222    8.6533 H         1 OEV         0.0694
     25 H5         33.5554   66.2160   10.1885 H         1 OEV         0.2103
     26 H6         32.6998   67.6125    8.2779 H         1 OEV         0.0671
     27 H7         33.6860   66.8181    6.4079 H         1 OEV         0.2102
     28 H8         31.1418   65.8172    6.4009 H         1 OEV         0.0769
     29 H9         32.2342   67.4758    5.4313 H         1 OEV         0.2130
     30 H10        28.7107   66.7085    5.9289 H         1 OEV         0.0706
     31 H11        28.7297   68.3918    6.5558 H         1 OEV         0.0706
     32 H12        27.4616   66.1744    7.7505 H         1 OEV         0.2125
     33 H13        28.8460   66.9789    9.4984 H         1 OEV         0.0299
     34 H14        29.3915   65.5000   12.6363 H         1 OEV         0.0814
     35 H15        28.6279   66.0965   11.1237 H         1 OEV         0.0814
     36 H16        29.4306   68.2396   11.3961 H         1 OEV         0.0317
     37 H17        30.8104   67.7091   12.4167 H         1 OEV         0.0317
     38 H18        29.3744   68.8485   13.8974 H         1 OEV         0.0267
     39 H19        29.0560   67.1062   14.1971 H         1 OEV         0.0267
     40 H20        27.2296   69.1870   13.5917 H         1 OEV         0.0265
     41 H21        26.9115   67.4442   13.8887 H         1 OEV         0.0265
     42 H22        27.0346   66.9418   11.5980 H         1 OEV         0.0265
     43 H23        27.6695   68.5757   11.2058 H         1 OEV         0.0265
     44 H24        25.5309   69.0197   10.6021 H         1 OEV         0.0265
     45 H25        25.2440   69.1991   12.3662 H         1 OEV         0.0265
     46 H26        23.8058   67.5250   12.3013 H         1 OEV         0.0263
     47 H27        25.1201   66.4276   11.7581 H         1 OEV         0.0263
     48 H28        23.1778   66.3132   10.2600 H         1 OEV         0.0230
     49 H29        24.6121   66.9815    9.4097 H         1 OEV         0.0230
     50 H30        23.2978   68.0790    9.9529 H         1 OEV         0.0230
@<TRIPOS>BOND
     1    1    2 1  
     2    1    3 1  
     3    1   12 1  
     4    2   13 1  
     5    3    4 1  
     6    3    5 1  
     7    5    6 1  
     8    5    7 1  
     9    7    8 1  
    10    7    9 1  
    11    9   10 1  
    12    9   12 2  
    13   10   11 1  
    14   13   14 1  
    15   14   15 1  
    16   15   16 1  
    17   16   17 1  
    18   17   18 1  
    19   18   19 1  
    20   19   20 1  
    21    1   21 1  
    22    2   22 1  
    23    2   23 1  
    24    3   24 1  
    25    4   25 1  
    26    5   26 1  
    27    6   27 1  
    28    7   28 1  
    29    8   29 1  
    30   10   30 1  
    31   10   31 1  
    32   11   32 1  
    33   12   33 1  
    34   13   34 1  
    35   13   35 1  
    36   14   36 1  
    37   14   37 1  
    38   15   38 1  
    39   15   39 1  
    40   16   40 1  
    41   16   41 1  
    42   17   42 1  
    43   17   43 1  
    44   18   44 1  
    45   18   45 1  
    46   19   46 1  
    47   19   47 1  
    48   20   48 1  
    49   20   49 1  
    50   20   50 1  
@<TRIPOS>SUBSTRUCTURE
     1 OEV         1

