### 
### Created by X-TOOL on Mon Sep 10 21:12:57 2018
### 

@<TRIPOS>MOLECULE
3d51_ligand
   25    25     1     0     0
SMALL
GAST_HUCK


@<TRIPOS>ATOM
      1 C1         30.8330   65.8530    9.7600 C.2       1 GOX         0.1322
      2 N1         30.7250   65.8020   11.0680 N.2       1 GOX        -0.2068
      3 C2         31.9830   65.2300    9.0090 C.3       1 GOX         0.1503
      4 N5         29.8530   66.4580    9.0170 N.pl3     1 GOX        -0.2990
      5 O7         29.6260   66.4080   11.6110 O.3       1 GOX        -0.3046
      6 O2         33.0870   64.8900    9.8330 O.3       1 GOX        -0.3713
      7 C3         32.4080   66.1970    7.9130 C.3       1 GOX         0.1233
      8 O3         33.5370   65.5880    7.2760 O.3       1 GOX        -0.3841
      9 C4         31.2630   66.2720    6.9030 C.3       1 GOX         0.1104
     10 O4         31.5320   67.2240    5.8920 O.3       1 GOX        -0.3866
     11 C5         29.9020   66.6560    7.5430 C.3       1 GOX         0.0898
     12 C6         28.7560   65.9480    6.8330 C.3       1 GOX         0.0694
     13 O6         27.5330   66.3900    7.4590 O.3       1 GOX        -0.3927
     14 H1         31.6216   64.3029    8.5400 H         1 GOX         0.0843
     15 H2         29.0201   66.8014    9.5164 H         1 GOX         0.1812
     16 H3         29.6473   66.3121   12.5559 H         1 GOX         0.2523
     17 H4         33.4174   65.6734   10.2570 H         1 GOX         0.2137
     18 H5         32.6544   67.1911    8.3144 H         1 GOX         0.0673
     19 H6         33.8474   66.1520    6.5774 H         1 GOX         0.2103
     20 H7         31.1618   65.2796    6.4394 H         1 GOX         0.0646
     21 H8         32.3264   66.9797    5.4319 H         1 GOX         0.2100
     22 H9         29.7677   67.7342    7.3716 H         1 GOX         0.0603
     23 H10        28.8619   64.8583    6.9390 H         1 GOX         0.0581
     24 H11        28.7513   66.2139    5.7656 H         1 GOX         0.0581
     25 H12        27.4541   67.3323    7.3671 H         1 GOX         0.2095
@<TRIPOS>BOND
     1    1    2 2  
     2    1    3 1  
     3    1    4 1  
     4    2    5 1  
     5    3    6 1  
     6    3    7 1  
     7    4   11 1  
     8    7    8 1  
     9    7    9 1  
    10    9   10 1  
    11    9   11 1  
    12   11   12 1  
    13   12   13 1  
    14    3   14 1  
    15    4   15 1  
    16    5   16 1  
    17    6   17 1  
    18    7   18 1  
    19    8   19 1  
    20    9   20 1  
    21   10   21 1  
    22   11   22 1  
    23   12   23 1  
    24   12   24 1  
    25   13   25 1  
@<TRIPOS>SUBSTRUCTURE
     1 GOX         1

