### 
### Created by X-TOOL on Mon Sep 10 21:12:59 2018
### 

@<TRIPOS>MOLECULE
3d52_ligand
   39    40     1     0     0
SMALL
GAST_HUCK


@<TRIPOS>ATOM
      1 C1         30.5980   65.1430   10.0330 C.2       1 GHR         0.1389
      2 N5         29.6260   65.8060    9.2940 N.pl3     1 GHR        -0.2969
      3 C5         29.6950   65.9730    7.8240 C.3       1 GHR         0.0904
      4 C6         28.5110   65.3100    7.1290 C.3       1 GHR         0.0695
      5 O6         27.3290   65.7390    7.7610 O.3       1 GHR        -0.3926
      6 C4         31.0410   65.5370    7.1970 C.3       1 GHR         0.1105
      7 O4         31.3380   66.4650    6.1820 O.3       1 GHR        -0.3866
      8 C3         32.1680   65.4450    8.2060 C.3       1 GHR         0.1238
      9 O3         33.3090   64.9260    7.5660 O.3       1 GHR        -0.3840
     10 C2         31.7360   64.4680    9.2740 C.3       1 GHR         0.1521
     11 O2         32.8110   64.1350   10.1190 O.3       1 GHR        -0.3708
     12 N1         30.5570   65.0900   11.3650 N.2       1 GHR        -0.1728
     13 CL12       31.3950   67.9590   17.8590 Cl        1 GHR        -0.0849
     14 C12        30.5630   67.8750   16.3350 C.ar      1 GHR         0.0238
     15 C11        31.2040   67.3920   15.2100 C.ar      1 GHR        -0.0617
     16 C10        30.5600   67.3110   13.9940 C.ar      1 GHR        -0.0406
     17 C13        29.2390   68.2830   16.2240 C.ar      1 GHR        -0.0617
     18 C14        28.5820   68.2050   14.9960 C.ar      1 GHR        -0.0406
     19 C9         29.2410   67.7200   13.8780 C.ar      1 GHR         0.0688
     20 N9         28.5980   67.6440   12.7150 N.am      1 GHR        -0.2055
     21 C8         28.7600   66.6360   11.8400 C.2       1 GHR         0.3775
     22 O8         28.0840   66.6080   10.8170 O.2       1 GHR        -0.3647
     23 O7         29.6010   65.6130   12.1990 O.3       1 GHR        -0.1565
     24 H1         28.8167   66.2013    9.7936 H         1 GHR         0.1823
     25 H2         29.6064   67.0530    7.6351 H         1 GHR         0.0604
     26 H3         28.5986   64.2163    7.2077 H         1 GHR         0.0581
     27 H4         28.4920   65.6010    6.0684 H         1 GHR         0.0581
     28 H5         27.2596   66.6840    7.6925 H         1 GHR         0.2095
     29 H6         30.9125   64.5419    6.7462 H         1 GHR         0.0646
     30 H7         32.1617   66.2302    5.7709 H         1 GHR         0.2100
     31 H8         32.3840   66.4318    8.6414 H         1 GHR         0.0674
     32 H9         33.5605   65.5018    6.8535 H         1 GHR         0.2103
     33 H10        31.3649   63.5459    8.8028 H         1 GHR         0.0850
     34 H11        33.1372   64.9219   10.5396 H         1 GHR         0.2138
     35 H12        32.2362   67.0697   15.2855 H         1 GHR         0.0584
     36 H13        31.0859   66.9269   13.1274 H         1 GHR         0.0503
     37 H14        28.7156   68.6628   17.0940 H         1 GHR         0.0584
     38 H15        27.5496   68.5258   14.9160 H         1 GHR         0.0503
     39 H16        27.9595   68.3766   12.4791 H         1 GHR         0.2279
@<TRIPOS>BOND
     1    1    2 1  
     2    1   10 1  
     3   12    1 2  
     4    2    3 1  
     5    3    4 1  
     6    3    6 1  
     7    4    5 1  
     8    6    7 1  
     9    8    6 1  
    10    8    9 1  
    11   10    8 1  
    12   10   11 1  
    13   23   12 1  
    14   14   13 1  
    15   15   14 ar 
    16   17   14 ar 
    17   16   15 ar 
    18   19   16 ar 
    19   18   17 ar 
    20   19   18 ar 
    21   20   19 1  
    22   21   20 am 
    23   21   22 2  
    24   21   23 1  
    25    2   24 1  
    26    3   25 1  
    27    4   26 1  
    28    4   27 1  
    29    5   28 1  
    30    6   29 1  
    31    7   30 1  
    32    8   31 1  
    33    9   32 1  
    34   10   33 1  
    35   11   34 1  
    36   15   35 1  
    37   16   36 1  
    38   17   37 1  
    39   18   38 1  
    40   20   39 1  
@<TRIPOS>SUBSTRUCTURE
     1 GHR         1

