### 
### Created by X-TOOL on Mon Sep 10 21:13:01 2018
### 

@<TRIPOS>MOLECULE
3d5m_ligand
   62    65     1     0     0
SMALL
GAST_HUCK


@<TRIPOS>ATOM
      1 C4         93.9240   63.8280   52.5060 C.ar      1 4MS        -0.0599
      2 C5         92.6050   63.5130   52.1630 C.ar      1 4MS        -0.0342
      3 C6         94.3780   64.6020   50.2760 C.ar      1 4MS        -0.0462
      4 C7         96.5650   62.5440   57.1740 C.ar      1 4MS         0.0248
      5 C8         94.8120   64.3810   51.5780 C.ar      1 4MS        -0.0240
      6 C10        92.1620   63.7460   50.8600 C.ar      1 4MS         0.1390
      7 C13        97.0750   61.7570   56.0270 C.2       1 4MS         0.0430
      8 C15        97.1160   61.4490   53.5310 C.2       1 4MS         0.1622
      9 C17        96.9690   62.2050   52.2390 C.3       1 4MS         0.1396
     10 C20        98.6450   60.8040   50.9240 C.3       1 4MS        -0.0545
     11 C21        98.8840   61.4870   63.6980 C.3       1 4MS         0.0734
     12 C22        96.2420   64.6780   51.9860 C.3       1 4MS         0.0683
     13 C24        98.3230   62.2230   51.4700 C.3       1 4MS         0.0079
     14 CL37       92.5580   64.6150   48.3060 Cl        1 4MS        -0.0739
     15 C12        93.0570   64.2950   49.9240 C.ar      1 4MS         0.0669
     16 F34        90.8860   63.4300   50.5460 F         1 4MS        -0.1884
     17 N26        96.6130   63.5230   52.7820 N.am      1 4MS        -0.2412
     18 C19        99.4910   62.7170   52.3670 C.3       1 4MS        -0.0545
     19 C18        98.3300   63.1600   50.2410 C.3       1 4MS        -0.0545
     20 O33        97.4580   60.1310   53.5190 O.3       1 4MS        -0.2870
     21 C16        96.5940   63.5530   54.1640 C.2       1 4MS         0.1871
     22 O28        96.3400   64.5140   54.8680 O.2       1 4MS        -0.4097
     23 C14        96.8900   62.1780   54.6350 C.2       1 4MS         0.1051
     24 C2         95.7860   63.6910   57.2610 C.ar      1 4MS        -0.0495
     25 N25        97.7880   60.7100   56.3330 N.2       1 4MS        -0.2464
     26 S35        97.9240   60.5160   57.9640 S.o2      1 4MS         0.0509
     27 O29        99.3150   60.7330   58.3250 O.2       1 4MS        -0.1599
     28 O30        97.1720   59.3680   58.4120 O.2       1 4MS        -0.1599
     29 C11        96.9850   61.9290   58.3490 C.ar      1 4MS         0.1183
     30 C9         96.6570   62.4080   59.6040 C.ar      1 4MS         0.0079
     31 C3         95.8720   63.5690   59.6960 C.ar      1 4MS        -0.0510
     32 C1         95.4420   64.2070   58.5210 C.ar      1 4MS        -0.0611
     33 C23        97.1320   61.7100   60.8150 C.3       1 4MS         0.0629
     34 N27        97.0610   62.4990   62.0140 N.am      1 4MS        -0.2407
     35 S36        97.1290   61.5700   63.4350 S.o2      1 4MS         0.0378
     36 O31        96.6860   60.2160   63.1350 O.2       1 4MS        -0.1556
     37 O32        96.5810   62.3050   64.5500 O.2       1 4MS        -0.1556
     38 H1         94.2665   63.6386   53.5169 H         1 4MS         0.0550
     39 H2         91.9332   63.0919   52.9022 H         1 4MS         0.0587
     40 H3         95.0581   65.0097   49.5369 H         1 4MS         0.0553
     41 H4         96.1770   61.7941   51.5956 H         1 4MS         0.0906
     42 H5         99.6025   60.8279   50.3830 H         1 4MS         0.0238
     43 H6         97.8453   60.4841   50.2398 H         1 4MS         0.0238
     44 H7         98.7153   60.0956   51.7626 H         1 4MS         0.0238
     45 H8         99.0914   60.9017   64.6060 H         1 4MS         0.0482
     46 H9         99.2854   62.5041   63.8178 H         1 4MS         0.0482
     47 H10        99.3619   61.0037   62.8332 H         1 4MS         0.0482
     48 H11        96.2974   65.6007   52.5822 H         1 4MS         0.0679
     49 H12        96.8914   64.7723   51.1032 H         1 4MS         0.0679
     50 H13        99.2589   63.7213   52.7511 H         1 4MS         0.0238
     51 H14       100.4171   62.7560   51.7747 H         1 4MS         0.0238
     52 H15        99.6242   62.0236   53.2105 H         1 4MS         0.0238
     53 H16        97.5221   62.8690   49.5535 H         1 4MS         0.0238
     54 H17        99.2978   63.0798   49.7243 H         1 4MS         0.0238
     55 H18        98.1750   64.1980   50.5704 H         1 4MS         0.0238
     56 H19        97.5075   59.8097   54.4117 H         1 4MS         0.2763
     57 H20        95.4447   64.1862   56.3591 H         1 4MS         0.0624
     58 H21        95.6002   63.9694   60.6660 H         1 4MS         0.0608
     59 H22        94.8393   65.1056   58.5873 H         1 4MS         0.0616
     60 H23        98.1803   61.4173   60.6560 H         1 4MS         0.0639
     61 H24        96.5173   60.8090   60.9577 H         1 4MS         0.0639
     62 H25        96.9797   63.4957   62.0122 H         1 4MS         0.1695
@<TRIPOS>BOND
     1    1    2 ar 
     2    5    1 ar 
     3    2    6 ar 
     4    5    3 ar 
     5    3   15 ar 
     6    4    7 1  
     7    4   24 ar 
     8   29    4 ar 
     9   12    5 1  
    10   15    6 ar 
    11    6   16 1  
    12    7   23 1  
    13   25    7 2  
    14    8    9 1  
    15    8   20 1  
    16   23    8 2  
    17    9   13 1  
    18   17    9 1  
    19   13   10 1  
    20   35   11 1  
    21   17   12 1  
    22   13   18 1  
    23   13   19 1  
    24   15   14 1  
    25   21   17 am 
    26   21   22 2  
    27   23   21 1  
    28   32   24 ar 
    29   26   25 1  
    30   26   27 2  
    31   26   28 2  
    32   29   26 1  
    33   30   29 ar 
    34   30   31 ar 
    35   33   30 1  
    36   31   32 ar 
    37   34   33 1  
    38   34   35 am 
    39   35   36 2  
    40   35   37 2  
    41    1   38 1  
    42    2   39 1  
    43    3   40 1  
    44    9   41 1  
    45   10   42 1  
    46   10   43 1  
    47   10   44 1  
    48   11   45 1  
    49   11   46 1  
    50   11   47 1  
    51   12   48 1  
    52   12   49 1  
    53   18   50 1  
    54   18   51 1  
    55   18   52 1  
    56   19   53 1  
    57   19   54 1  
    58   19   55 1  
    59   20   56 1  
    60   24   57 1  
    61   31   58 1  
    62   32   59 1  
    63   33   60 1  
    64   33   61 1  
    65   34   62 1  
@<TRIPOS>SUBSTRUCTURE
     1 4MS         1

