### 
### Created by X-TOOL on Mon Sep 10 21:12:59 2018
### 

@<TRIPOS>MOLECULE
3d62_ligand
   28    28     1     0     0
SMALL
GAST_HUCK


@<TRIPOS>ATOM
      1 O15        63.1580   41.9080   42.4120 O.2       1 959        -0.3897
      2 C13        64.2710   41.4650   42.3670 C.2       1 959         0.1240
      3 C16        64.3870   40.0400   41.7410 C.3       1 959         0.0115
      4 C12        65.4370   42.1920   42.9420 C.3       1 959         0.1055
      5 N10        66.4040   42.3210   41.6980 N.am      1 959        -0.2449
      6 C9         66.0210   42.7590   40.4410 C.2       1 959         0.3237
      7 O11        64.8420   43.1540   40.1450 O.2       1 959        -0.3773
      8 O8         67.0640   42.7750   39.3730 O.3       1 959        -0.2506
      9 C7         68.2960   43.5270   39.7830 C.3       1 959         0.1113
     10 C5         69.4740   42.9510   39.0340 C.ar      1 959        -0.0130
     11 C6         69.9220   43.5670   37.8660 C.ar      1 959        -0.0578
     12 C1         71.0110   43.0320   37.1780 C.ar      1 959        -0.0685
     13 C2         71.6440   41.8860   37.6600 C.ar      1 959        -0.0687
     14 C3         71.1950   41.2650   38.8230 C.ar      1 959        -0.0685
     15 C4         70.1070   41.8000   39.5120 C.ar      1 959        -0.0578
     16 H1         65.4402   39.7227   41.7443 H         1 959         0.0459
     17 H2         64.0142   40.0625   40.7064 H         1 959         0.0459
     18 H3         63.7885   39.3304   42.3311 H         1 959         0.0459
     19 H4         65.9059   41.6144   43.7522 H         1 959         0.0754
     20 H5         65.1416   43.1816   43.3206 H         1 959         0.0754
     21 H6         67.3626   42.0678   41.8282 H         1 959         0.1897
     22 H7         68.4548   43.4186   40.8661 H         1 959         0.0776
     23 H8         68.1817   44.5923   39.5339 H         1 959         0.0776
     24 H9         69.4266   44.4568   37.4947 H         1 959         0.0557
     25 H10        71.3651   43.5061   36.2698 H         1 959         0.0599
     26 H11        72.4925   41.4754   37.1248 H         1 959         0.0559
     27 H12        71.6879   40.3720   39.1900 H         1 959         0.0599
     28 H13        69.7521   41.3232   40.4185 H         1 959         0.0557
@<TRIPOS>BOND
     1    1    2 2  
     2    2    3 1  
     3    2    4 1  
     4    4    5 1  
     5    5    6 am 
     6    6    7 2  
     7    6    8 1  
     8    8    9 1  
     9    9   10 1  
    10   10   11 ar 
    11   10   15 ar 
    12   11   12 ar 
    13   12   13 ar 
    14   13   14 ar 
    15   14   15 ar 
    16    3   16 1  
    17    3   17 1  
    18    3   18 1  
    19    4   19 1  
    20    4   20 1  
    21    5   21 1  
    22    9   22 1  
    23    9   23 1  
    24   11   24 1  
    25   12   25 1  
    26   13   26 1  
    27   14   27 1  
    28   15   28 1  
@<TRIPOS>SUBSTRUCTURE
     1 959         1

