### 
### Created by X-TOOL on Mon Sep 10 21:13:00 2018
### 

@<TRIPOS>MOLECULE
3d6o_ligand
   44    46     1     0     0
SMALL
GAST_HUCK


@<TRIPOS>ATOM
      1 C4         34.9830   -4.6780   12.4760 C.2       1 U1S         0.1822
      2 C5         36.1580   -4.5630   13.2130 C.2       1 U1S         0.0062
      3 C6         36.9630   -3.4330   13.0620 C.2       1 U1S         0.0591
      4 N1         36.6020   -2.3900   12.1720 N.am      1 U1S        -0.1592
      5 N3         34.6140   -3.6620   11.5760 N.am      1 U1S        -0.1865
      6 CAV        43.6670   -1.7280   15.6860 C.3       1 U1S        -0.0434
      7 CAK        43.0740   -0.3290   15.4650 C.3       1 U1S        -0.0123
      8 CAM        42.3070   -0.2320   14.1260 C.3       1 U1S        -0.0318
      9 CAJ        43.1190   -2.7260   14.6560 C.3       1 U1S        -0.0123
     10 CAL        41.5970   -2.5850   14.4910 C.3       1 U1S        -0.0318
     11 NBA        41.2220   -1.2390   14.0040 N.4       1 U1S         0.2371
     12 C5'        40.0440   -0.7590   14.7480 C.3       1 U1S        -0.0023
     13 C4'        38.7520   -0.8450   13.9020 C.3       1 U1S         0.1300
     14 O4'        38.8130   -1.4260   12.5540 O.3       1 U1S        -0.3336
     15 C3'        38.2010    0.5180   13.5660 C.3       1 U1S         0.1174
     16 O3'        37.7400    1.2280   14.7060 O.3       1 U1S        -0.3863
     17 C2'        37.0080    0.1200   12.7250 C.3       1 U1S         0.1388
     18 O2'        36.8670    1.1950   11.8120 O.3       1 U1S        -0.3836
     19 C1'        37.4830   -1.1760   12.0090 C.3       1 U1S         0.2060
     20 O4         34.2750   -5.6740   12.6040 O.2       1 U1S        -0.4124
     21 C2         35.4160   -2.5160   11.4240 C.2       1 U1S         0.3328
     22 O2         35.0660   -1.6390   10.6350 O.2       1 U1S        -0.3815
     23 H1         36.4483   -5.3521   13.9051 H         1 U1S         0.0258
     24 H2         37.8839   -3.3510   13.6374 H         1 U1S         0.1178
     25 H3         33.7750   -3.7549   11.0399 H         1 U1S         0.2259
     26 H4         43.4055   -2.0741   16.6968 H         1 U1S         0.0269
     27 H5         44.7613   -1.6746   15.5883 H         1 U1S         0.0269
     28 H6         43.8915    0.4070   15.4605 H         1 U1S         0.0317
     29 H7         42.3811   -0.1024   16.2887 H         1 U1S         0.0317
     30 H8         43.0198   -0.3834   13.3020 H         1 U1S         0.0814
     31 H9         41.8639    0.7718   14.0478 H         1 U1S         0.0814
     32 H10        43.3492   -3.7482   14.9908 H         1 U1S         0.0317
     33 H11        43.6026   -2.5403   13.6856 H         1 U1S         0.0317
     34 H12        41.1152   -2.7589   15.4644 H         1 U1S         0.0814
     35 H13        41.2456   -3.3362   13.7684 H         1 U1S         0.0814
     36 H14        40.9807   -1.3196   13.0286 H         1 U1S         0.2034
     37 H15        40.2097    0.2890   15.0383 H         1 U1S         0.0841
     38 H16        39.9190   -1.3743   15.6512 H         1 U1S         0.0841
     39 H17        38.0250   -1.4138   14.5002 H         1 U1S         0.0678
     40 H18        38.9287    1.1272   13.0098 H         1 U1S         0.0649
     41 H19        37.4056    2.0753   14.4361 H         1 U1S         0.2100
     42 H20        36.0916   -0.0453   13.3105 H         1 U1S         0.0676
     43 H21        36.7163    2.0001   12.2933 H         1 U1S         0.2101
     44 H22        37.5587   -0.9703   10.9311 H         1 U1S         0.0997
@<TRIPOS>BOND
     1    2    1 1  
     2    5    1 am 
     3    1   20 2  
     4    3    2 2  
     5    4    3 1  
     6   19    4 1  
     7    4   21 am 
     8   21    5 am 
     9    7    6 1  
    10    9    6 1  
    11    8    7 1  
    12   11    8 1  
    13   10    9 1  
    14   11   10 1  
    15   12   11 1  
    16   13   12 1  
    17   14   13 1  
    18   13   15 1  
    19   14   19 1  
    20   15   16 1  
    21   15   17 1  
    22   17   18 1  
    23   17   19 1  
    24   21   22 2  
    25    2   23 1  
    26    3   24 1  
    27    5   25 1  
    28    6   26 1  
    29    6   27 1  
    30    7   28 1  
    31    7   29 1  
    32    8   30 1  
    33    8   31 1  
    34    9   32 1  
    35    9   33 1  
    36   10   34 1  
    37   10   35 1  
    38   11   36 1  
    39   12   37 1  
    40   12   38 1  
    41   13   39 1  
    42   15   40 1  
    43   16   41 1  
    44   17   42 1  
    45   18   43 1  
    46   19   44 1  
@<TRIPOS>SUBSTRUCTURE
     1 U1S         1

