### 
### Created by X-TOOL on Mon Sep 10 21:12:59 2018
### 

@<TRIPOS>MOLECULE
3d78_ligand
   29    29     1     0     0
SMALL
GAST_HUCK


@<TRIPOS>ATOM
      1 O1S        15.7640   16.5820    2.2820 O.2       1 NBB        -0.1503
      2 S          14.6900   17.5370    2.0290 S.o2      1 NBB         0.0682
      3 O2S        14.9500   17.9750    0.6140 O.2       1 NBB        -0.1503
      4 N10        14.6030   18.6870    3.1040 N.am      1 NBB        -0.2474
      5 C11        13.3370   19.3540    3.6400 C.3       1 NBB         0.0265
      6 C12        13.3130   19.8580    5.1230 C.3       1 NBB        -0.0364
      7 C13        11.9490   20.1580    5.8020 C.3       1 NBB        -0.0545
      8 C14        11.8010   21.3150    6.7910 C.3       1 NBB        -0.0652
      9 C4         13.2840   16.7420    2.1630 C.ar      1 NBB         0.1081
     10 C5         12.3770   16.6840    1.1190 C.ar      1 NBB        -0.0351
     11 C6         11.1630   16.0250    1.1880 C.ar      1 NBB        -0.0599
     12 C1         10.8280   15.3980    2.3690 C.ar      1 NBB        -0.0616
     13 C2         11.7040   15.4680    3.4480 C.ar      1 NBB        -0.0599
     14 C3         12.9320   16.1270    3.3550 C.ar      1 NBB        -0.0351
     15 H1         15.4712   19.0158    3.4757 H         1 NBB         0.1672
     16 H2         12.5195   18.6257    3.5340 H         1 NBB         0.0475
     17 H3         13.1366   20.2260    3.0001 H         1 NBB         0.0475
     18 H4         13.8989   20.7884    5.1552 H         1 NBB         0.0281
     19 H5         13.8119   19.0892    5.7313 H         1 NBB         0.0281
     20 H6         11.6611   19.2447    6.3433 H         1 NBB         0.0263
     21 H7         11.2300   20.3456    4.9909 H         1 NBB         0.0263
     22 H8         10.7637   21.3559    7.1549 H         1 NBB         0.0230
     23 H9         12.0508   22.2611    6.2886 H         1 NBB         0.0230
     24 H10        12.4819   21.1602    7.6410 H         1 NBB         0.0230
     25 H11        12.6334   17.1848    0.1924 H         1 NBB         0.0637
     26 H12        10.4929   16.0022    0.3362 H         1 NBB         0.0618
     27 H13         9.8929   14.8566    2.4562 H         1 NBB         0.0618
     28 H14        11.4261   14.9989    4.3849 H         1 NBB         0.0618
     29 H15        13.6030   16.1574    4.2058 H         1 NBB         0.0637
@<TRIPOS>BOND
     1    1    2 2  
     2    2    3 2  
     3    2    4 am 
     4    2    9 1  
     5    4    5 1  
     6    5    6 1  
     7    6    7 1  
     8    7    8 1  
     9    9   10 ar 
    10    9   14 ar 
    11   10   11 ar 
    12   11   12 ar 
    13   12   13 ar 
    14   13   14 ar 
    15    4   15 1  
    16    5   16 1  
    17    5   17 1  
    18    6   18 1  
    19    6   19 1  
    20    7   20 1  
    21    7   21 1  
    22    8   22 1  
    23    8   23 1  
    24    8   24 1  
    25   10   25 1  
    26   11   26 1  
    27   12   27 1  
    28   13   28 1  
    29   14   29 1  
@<TRIPOS>SUBSTRUCTURE
     1 NBB         1

