### 
### Created by X-TOOL on Fri Sep 26 17:34:43 2014
### 

@<TRIPOS>MOLECULE
3d7b_ligand
   41    43     1     0     0
SMALL
GAST_HUCK


@<TRIPOS>ATOM
      1 C4         34.7880   -4.5920   12.4660 C.2       1 U4S         0.1822
      2 C5         35.9710   -4.4960   13.1880 C.2       1 U4S         0.0062
      3 C6         36.7710   -3.3640   13.0400 C.2       1 U4S         0.0591
      4 N1         36.3910   -2.3050   12.1840 N.am      1 U4S        -0.1592
      5 N3         34.4070   -3.5580   11.6020 N.am      1 U4S        -0.1865
      6 CAJ        41.8210   -1.0330   13.6490 C.3       1 U4S        -0.0316
      7 C5'        39.7510   -0.6220   14.7610 C.3       1 U4S        -0.0023
      8 C4'        38.4620   -0.7610   13.9310 C.3       1 U4S         0.1300
      9 O4'        38.5660   -1.3530   12.5990 O.3       1 U4S        -0.3336
     10 C3'        37.9340    0.5980   13.5640 C.3       1 U4S         0.1174
     11 O3'        37.4460    1.3310   14.6780 O.3       1 U4S        -0.3863
     12 C2'        36.7750    0.2180   12.6760 C.3       1 U4S         0.1388
     13 O2'        36.7160    1.2770   11.7260 O.3       1 U4S        -0.3836
     14 C1'        37.2630   -1.0930   12.0120 C.3       1 U4S         0.2060
     15 O4         34.0700   -5.5840   12.5750 O.2       1 U4S        -0.4124
     16 C2         35.2020   -2.4120   11.4570 C.2       1 U4S         0.3328
     17 O2         34.8450   -1.5110   10.7030 O.2       1 U4S        -0.3815
     18 CAI        41.3370   -2.1220   15.7040 C.3       1 U4S        -0.0316
     19 CAG        42.8030   -1.6820   15.6860 C.3       1 U4S        -0.0077
     20 CAH        43.1050   -1.6430   14.1990 C.3       1 U4S        -0.0077
     21 NAT        40.7370   -1.6580   14.4320 N.4       1 U4S         0.2371
     22 H1         36.2703   -5.2968   13.8626 H         1 U4S         0.0258
     23 H2         37.7059   -3.2942   13.5940 H         1 U4S         0.1178
     24 H3         33.5568   -3.6379   11.0816 H         1 U4S         0.2259
     25 H4         41.7093   -1.2654   12.5797 H         1 U4S         0.0814
     26 H5         41.8200    0.0580   13.7892 H         1 U4S         0.0814
     27 H6         39.4957   -0.7022   15.8279 H         1 U4S         0.0841
     28 H7         40.1949    0.3649   14.5633 H         1 U4S         0.0841
     29 H8         37.7343   -1.3254   14.5325 H         1 U4S         0.0678
     30 H9         38.6908    1.1919   13.0307 H         1 U4S         0.0649
     31 H10        37.1276    2.1765   14.3844 H         1 U4S         0.2100
     32 H11        35.8245    0.0873   13.2141 H         1 U4S         0.0676
     33 H12        36.0034    1.1167   11.1186 H         1 U4S         0.2101
     34 H13        37.3697   -0.9133   10.9320 H         1 U4S         0.0997
     35 H14        40.8148   -1.6658   16.5579 H         1 U4S         0.0814
     36 H15        41.2710   -3.2176   15.7766 H         1 U4S         0.0814
     37 H16        43.4446   -2.4095   16.2047 H         1 U4S         0.0319
     38 H17        42.9279   -0.6901   16.1449 H         1 U4S         0.0319
     39 H18        43.9772   -1.0089   13.9818 H         1 U4S         0.0319
     40 H19        43.2760   -2.6523   13.7963 H         1 U4S         0.0319
     41 H20        40.3112   -2.4187   13.9260 H         1 U4S         0.2034
@<TRIPOS>BOND
     1    2    1 1  
     2    5    1 am 
     3    1   15 2  
     4    3    2 2  
     5    4    3 1  
     6   14    4 1  
     7    4   16 am 
     8   16    5 am 
     9    6   20 1  
    10   21    6 1  
    11    7    8 1  
    12   21    7 1  
    13    8    9 1  
    14    8   10 1  
    15    9   14 1  
    16   10   11 1  
    17   10   12 1  
    18   12   13 1  
    19   12   14 1  
    20   16   17 2  
    21   18   19 1  
    22   18   21 1  
    23   19   20 1  
    24    2   22 1  
    25    3   23 1  
    26    5   24 1  
    27    6   25 1  
    28    6   26 1  
    29    7   27 1  
    30    7   28 1  
    31    8   29 1  
    32   10   30 1  
    33   11   31 1  
    34   12   32 1  
    35   13   33 1  
    36   14   34 1  
    37   18   35 1  
    38   18   36 1  
    39   19   37 1  
    40   19   38 1  
    41   20   39 1  
    42   20   40 1  
    43   21   41 1  
@<TRIPOS>SUBSTRUCTURE
     1 U4S         1

