### 
### Created by X-TOOL on Mon Sep 10 21:12:57 2018
### 

@<TRIPOS>MOLECULE
3d7d_ligand
   43    43     1     0     0
SMALL
GAST_HUCK


@<TRIPOS>ATOM
      1 F21        23.3590   50.3460   47.3820 F         1 FBD        -0.1893
      2 C20        23.2990   49.5500   46.2740 C.ar      1 FBD         0.1248
      3 C22        23.8850   48.2920   46.3700 C.ar      1 FBD        -0.0349
      4 C23        23.8950   47.4320   45.2760 C.ar      1 FBD        -0.0612
      5 C19        22.7150   49.9690   45.0580 C.ar      1 FBD        -0.0349
      6 C18        22.7210   49.0930   43.9480 C.ar      1 FBD        -0.0612
      7 C17        23.3160   47.8160   44.0620 C.ar      1 FBD        -0.0370
      8 C16        23.3790   46.8260   42.8950 C.3       1 FBD         0.0258
      9 S15        22.5380   45.3090   43.2950 S.3       1 FBD        -0.1436
     10 C14        20.8500   45.8770   43.4020 C.3       1 FBD         0.0303
     11 C13        19.9710   45.0980   44.4060 C.3       1 FBD         0.1038
     12 C24        20.1220   45.7220   45.7830 C.2       1 FBD         0.0607
     13 O25        20.6320   45.0090   46.6720 O.co2     1 FBD        -0.5666
     14 O26        19.6860   46.8890   45.9740 O.co2     1 FBD        -0.5666
     15 N12        18.6570   45.4730   43.9010 N.am      1 FBD        -0.2568
     16 C11        17.9670   44.7330   43.0320 C.2       1 FBD         0.2608
     17 O27        18.4020   43.6600   42.5560 O.2       1 FBD        -0.4006
     18 N10        16.7240   45.1550   42.7020 N.am      1 FBD        -0.2575
     19 C6         16.0380   44.4360   41.6140 C.3       1 FBD         0.0962
     20 C7         17.0080   44.6360   40.4370 C.2       1 FBD         0.0600
     21 O8         17.9050   45.5240   40.4540 O.co2     1 FBD        -0.5666
     22 O9         16.9350   43.8740   39.4100 O.co2     1 FBD        -0.5666
     23 C5         14.7710   45.2090   41.1750 C.3       1 FBD        -0.0066
     24 C4         14.9850   46.7270   41.0920 C.3       1 FBD         0.0038
     25 C2         13.8570   47.4960   40.4060 C.2       1 FBD         0.0350
     26 O3         13.7890   48.7330   40.5830 O.co2     1 FBD        -0.5690
     27 O1         13.0100   46.8860   39.6980 O.co2     1 FBD        -0.5690
     28 H1         24.3373   47.9792   47.3042 H         1 FBD         0.0587
     29 H2         24.3560   46.4550   45.3655 H         1 FBD         0.0547
     30 H3         22.2666   50.9525   44.9765 H         1 FBD         0.0587
     31 H4         22.2701   49.4003   43.0113 H         1 FBD         0.0547
     32 H5         24.4323   46.6039   42.6688 H         1 FBD         0.0530
     33 H6         22.9023   47.2792   42.0133 H         1 FBD         0.0530
     34 H7         20.3939   45.7869   42.4051 H         1 FBD         0.0418
     35 H8         20.8624   46.9342   43.7054 H         1 FBD         0.0418
     36 H9         20.1591   44.0143   44.4164 H         1 FBD         0.0731
     37 H10        18.2517   46.3289   44.2223 H         1 FBD         0.1869
     38 H11        16.2901   45.9213   43.1759 H         1 FBD         0.1869
     39 H12        15.8298   43.3839   41.8584 H         1 FBD         0.0724
     40 H13        13.9701   45.0084   41.9018 H         1 FBD         0.0323
     41 H14        14.4657   44.8446   40.1830 H         1 FBD         0.0323
     42 H15        15.9143   46.9116   40.5332 H         1 FBD         0.0432
     43 H16        15.0898   47.1144   42.1162 H         1 FBD         0.0432
@<TRIPOS>BOND
     1    1    2 1  
     2    2    3 ar 
     3    2    5 ar 
     4    3    4 ar 
     5    4    7 ar 
     6    5    6 ar 
     7    6    7 ar 
     8    7    8 1  
     9    8    9 1  
    10    9   10 1  
    11   10   11 1  
    12   11   12 1  
    13   11   15 1  
    14   12   13 ar 
    15   12   14 ar 
    16   15   16 am 
    17   16   17 2  
    18   16   18 am 
    19   18   19 1  
    20   19   20 1  
    21   19   23 1  
    22   20   21 ar 
    23   20   22 ar 
    24   23   24 1  
    25   24   25 1  
    26   25   26 ar 
    27   25   27 ar 
    28    3   28 1  
    29    4   29 1  
    30    5   30 1  
    31    6   31 1  
    32    8   32 1  
    33    8   33 1  
    34   10   34 1  
    35   10   35 1  
    36   11   36 1  
    37   15   37 1  
    38   18   38 1  
    39   19   39 1  
    40   23   40 1  
    41   23   41 1  
    42   24   42 1  
    43   24   43 1  
@<TRIPOS>SUBSTRUCTURE
     1 FBD         1

