### 
### Created by X-TOOL on Mon Sep 10 21:12:57 2018
### 

@<TRIPOS>MOLECULE
3d7f_ligand
   40    40     1     0     0
SMALL
GAST_HUCK


@<TRIPOS>ATOM
      1 I18        24.5760   49.5590   43.6540 I         1 YBY        -0.0585
      2 C17        23.8790   47.5590   43.8950 C.ar      1 YBY         0.0308
      3 C16        22.6010   47.2390   43.4270 C.ar      1 YBY        -0.0576
      4 C19        24.6430   46.5490   44.5110 C.ar      1 YBY         0.0918
      5 O20        25.8970   46.8270   45.0130 O.3       1 YBY        -0.3354
      6 C21        24.1490   45.2570   44.6440 C.ar      1 YBY        -0.0368
      7 C22        22.8670   44.9620   44.1470 C.ar      1 YBY        -0.0660
      8 C15        22.0970   45.9470   43.5620 C.ar      1 YBY        -0.0470
      9 C14        20.7040   45.6460   43.0500 C.3       1 YBY         0.0112
     10 C13        19.8060   44.9950   44.1330 C.3       1 YBY         0.1028
     11 C23        20.0030   45.6210   45.4870 C.2       1 YBY         0.0616
     12 O25        19.5510   46.7840   45.6430 O.co2     1 YBY        -0.5665
     13 O24        20.5090   44.9200   46.3870 O.co2     1 YBY        -0.5665
     14 N12        18.4710   45.3440   43.6440 N.am      1 YBY        -0.2560
     15 C11        17.8270   44.5400   42.7970 C.2       1 YBY         0.2609
     16 O26        18.2340   43.4600   42.3330 O.2       1 YBY        -0.4006
     17 N10        16.5800   44.9500   42.4410 N.am      1 YBY        -0.2575
     18 C6         15.9050   44.2590   41.3530 C.3       1 YBY         0.0962
     19 C7         16.8580   44.4880   40.1630 C.2       1 YBY         0.0600
     20 O9         17.7830   45.3780   40.1410 O.co2     1 YBY        -0.5666
     21 O8         16.7740   43.7070   39.1590 O.co2     1 YBY        -0.5666
     22 C5         14.6180   45.0170   40.9100 C.3       1 YBY        -0.0066
     23 C4         14.8230   46.5510   40.8400 C.3       1 YBY         0.0038
     24 C2         13.6940   47.3310   40.1690 C.2       1 YBY         0.0350
     25 O1         12.9140   46.7320   39.3920 O.co2     1 YBY        -0.5690
     26 O3         13.6530   48.5760   40.4120 O.co2     1 YBY        -0.5690
     27 H1         21.9959   48.0041   42.9542 H         1 YBY         0.0558
     28 H2         26.2678   46.0380   45.3905 H         1 YBY         0.2470
     29 H3         24.7432   44.4878   45.1239 H         1 YBY         0.0533
     30 H4         22.4801   43.9523   44.2240 H         1 YBY         0.0551
     31 H5         20.7824   44.9579   42.1954 H         1 YBY         0.0446
     32 H6         20.2370   46.5864   42.7220 H         1 YBY         0.0446
     33 H7         19.9613   43.9075   44.1903 H         1 YBY         0.0744
     34 H8         18.0382   46.1928   43.9478 H         1 YBY         0.1870
     35 H9         16.1368   45.7098   42.9167 H         1 YBY         0.1869
     36 H10        15.7122   43.2006   41.5822 H         1 YBY         0.0724
     37 H11        13.8164   44.8015   41.6318 H         1 YBY         0.0323
     38 H12        14.3217   44.6556   39.9142 H         1 YBY         0.0323
     39 H13        15.7495   46.7447   40.2796 H         1 YBY         0.0432
     40 H14        14.9310   46.9266   41.8682 H         1 YBY         0.0432
@<TRIPOS>BOND
     1    1    2 1  
     2    2    3 ar 
     3    2    4 ar 
     4    3    8 ar 
     5    4    5 1  
     6    4    6 ar 
     7    6    7 ar 
     8    7    8 ar 
     9    8    9 1  
    10    9   10 1  
    11   10   11 1  
    12   10   14 1  
    13   11   12 ar 
    14   11   13 ar 
    15   14   15 am 
    16   15   16 2  
    17   15   17 am 
    18   17   18 1  
    19   18   19 1  
    20   18   22 1  
    21   19   20 ar 
    22   19   21 ar 
    23   22   23 1  
    24   23   24 1  
    25   24   25 ar 
    26   24   26 ar 
    27    3   27 1  
    28    5   28 1  
    29    6   29 1  
    30    7   30 1  
    31    9   31 1  
    32    9   32 1  
    33   10   33 1  
    34   14   34 1  
    35   17   35 1  
    36   18   36 1  
    37   22   37 1  
    38   22   38 1  
    39   23   39 1  
    40   23   40 1  
@<TRIPOS>SUBSTRUCTURE
     1 YBY         1

