### 
### Created by X-TOOL on Mon Sep 10 21:12:57 2018
### 

@<TRIPOS>MOLECULE
3d7g_ligand
   33    32     1     0     0
SMALL
GAST_HUCK


@<TRIPOS>ATOM
      1 O3         13.7490   48.4110   40.6760 O.co2     1 MUD        -0.5690
      2 C2         13.8020   47.1700   40.4630 C.2       1 MUD         0.0350
      3 O1         13.0090   46.5980   39.6810 O.co2     1 MUD        -0.5690
      4 C4         14.8920   46.3870   41.1760 C.3       1 MUD         0.0038
      5 C5         14.7250   44.8530   41.2340 C.3       1 MUD        -0.0066
      6 C6         16.0310   44.1220   41.6460 C.3       1 MUD         0.0962
      7 C7         16.9750   44.3140   40.4370 C.2       1 MUD         0.0600
      8 O8         16.8700   43.5680   39.3920 O.co2     1 MUD        -0.5666
      9 O9         17.8840   45.2060   40.4590 O.co2     1 MUD        -0.5666
     10 N10        16.7140   44.8350   42.7200 N.am      1 MUD        -0.2575
     11 C11        17.9450   44.4480   43.0600 C.2       1 MUD         0.2608
     12 O20        18.3930   43.4060   42.5490 O.2       1 MUD        -0.4006
     13 N12        18.6600   45.2230   43.8790 N.am      1 MUD        -0.2568
     14 C13        19.9690   44.8800   44.3990 C.3       1 MUD         0.1036
     15 C17        20.1230   45.4820   45.7790 C.2       1 MUD         0.0607
     16 O18        20.6490   44.7780   46.6720 O.co2     1 MUD        -0.5666
     17 O19        19.6700   46.6410   45.9760 O.co2     1 MUD        -0.5666
     18 C14        20.8720   45.6850   43.4530 C.3       1 MUD         0.0281
     19 S15        22.5840   45.5330   43.9370 S.3       1 MUD        -0.1601
     20 C16        23.0650   45.7260   42.2410 C.3       1 MUD        -0.0179
     21 H1         14.9429   46.7552   42.2113 H         1 MUD         0.0432
     22 H2         15.8424   46.5988   40.6643 H         1 MUD         0.0432
     23 H3         14.4201   44.4946   40.2397 H         1 MUD         0.0323
     24 H4         13.9410   44.6121   41.9670 H         1 MUD         0.0323
     25 H5         15.8492   43.0670   41.8987 H         1 MUD         0.0724
     26 H6         16.2695   45.5969   43.1910 H         1 MUD         0.1869
     27 H7         18.2655   46.1003   44.1525 H         1 MUD         0.1869
     28 H8         20.1718   43.7989   44.3935 H         1 MUD         0.0731
     29 H9         20.5791   46.7447   43.4884 H         1 MUD         0.0417
     30 H10        20.7512   45.3052   42.4277 H         1 MUD         0.0417
     31 H11        24.1612   45.6786   42.1631 H         1 MUD         0.0341
     32 H12        22.7128   46.6992   41.8684 H         1 MUD         0.0341
     33 H13        22.6195   44.9200   41.6395 H         1 MUD         0.0341
@<TRIPOS>BOND
     1    1    2 ar 
     2    2    3 ar 
     3    2    4 1  
     4    4    5 1  
     5    5    6 1  
     6    6    7 1  
     7    6   10 1  
     8    7    8 ar 
     9    7    9 ar 
    10   10   11 am 
    11   11   12 2  
    12   11   13 am 
    13   13   14 1  
    14   14   15 1  
    15   14   18 1  
    16   15   16 ar 
    17   15   17 ar 
    18   18   19 1  
    19   19   20 1  
    20    4   21 1  
    21    4   22 1  
    22    5   23 1  
    23    5   24 1  
    24    6   25 1  
    25   10   26 1  
    26   13   27 1  
    27   14   28 1  
    28   18   29 1  
    29   18   30 1  
    30   20   31 1  
    31   20   32 1  
    32   20   33 1  
@<TRIPOS>SUBSTRUCTURE
     1 MUD         1

