### 
### Created by X-TOOL on Mon Sep 10 21:12:57 2018
### 

@<TRIPOS>MOLECULE
3d7h_ligand
   52    52     1     0     0
SMALL
GAST_HUCK


@<TRIPOS>ATOM
      1 I24        23.7600   50.2890   51.1960 I         1 YC2        -0.0459
      2 C23        23.5690   50.0000   49.0670 C.ar      1 YC2         0.0137
      3 C22        23.6870   51.0340   48.1360 C.ar      1 YC2        -0.0453
      4 C21        23.5420   50.8600   46.7400 C.ar      1 YC2        -0.0391
      5 C25        23.3050   48.7450   48.4950 C.ar      1 YC2        -0.0453
      6 C26        23.1900   48.5610   47.0960 C.ar      1 YC2        -0.0391
      7 C20        23.3040   49.5940   46.1750 C.ar      1 YC2         0.0523
      8 C19        23.1030   49.3840   44.6770 C.2       1 YC2         0.2067
      9 O27        22.5410   50.2630   44.0150 O.2       1 YC2        -0.3836
     10 N18        23.4170   48.2670   44.0280 N.am      1 YC2        -0.2858
     11 C17        23.2190   47.9360   42.6190 C.3       1 YC2         0.0305
     12 C16        23.2710   46.4080   42.5100 C.3       1 YC2        -0.0326
     13 C15        22.4200   45.6140   43.5380 C.3       1 YC2        -0.0476
     14 C14        20.9060   45.7040   43.2820 C.3       1 YC2        -0.0181
     15 C13        19.9410   45.0280   44.2810 C.3       1 YC2         0.0947
     16 C28        20.1650   45.6410   45.6330 C.2       1 YC2         0.0599
     17 O30        20.7790   44.9610   46.4760 O.co2     1 YC2        -0.5666
     18 O29        19.6870   46.7980   45.8880 O.co2     1 YC2        -0.5666
     19 N12        18.6300   45.4440   43.7640 N.am      1 YC2        -0.2576
     20 C11        17.9310   44.7090   42.8680 C.2       1 YC2         0.2608
     21 O31        18.3220   43.6340   42.3640 O.2       1 YC2        -0.4006
     22 N10        16.7060   45.1940   42.5140 N.am      1 YC2        -0.2575
     23 C6         16.0570   44.5180   41.4150 C.3       1 YC2         0.0962
     24 C7         17.0230   44.7150   40.2500 C.2       1 YC2         0.0600
     25 O9         17.9670   45.5940   40.2700 O.co2     1 YC2        -0.5666
     26 O8         16.9600   43.9350   39.2550 O.co2     1 YC2        -0.5666
     27 C5         14.7590   45.2980   41.0660 C.3       1 YC2        -0.0066
     28 C4         15.0050   46.8050   40.8980 C.3       1 YC2         0.0038
     29 C2         13.8790   47.5820   40.1990 C.2       1 YC2         0.0350
     30 O1         13.1270   46.9880   39.3810 O.co2     1 YC2        -0.5690
     31 O3         13.8050   48.8030   40.4360 O.co2     1 YC2        -0.5690
     32 H1         23.9027   52.0300   48.5055 H         1 YC2         0.0657
     33 H2         23.6161   51.7237   46.0892 H         1 YC2         0.0675
     34 H3         23.1851   47.8875   49.1472 H         1 YC2         0.0657
     35 H4         23.0030   47.5602   46.7239 H         1 YC2         0.0675
     36 H5         23.8487   47.5545   44.5812 H         1 YC2         0.1845
     37 H6         24.0159   48.3862   42.0089 H         1 YC2         0.0519
     38 H7         22.2415   48.3067   42.2769 H         1 YC2         0.0519
     39 H8         24.3194   46.0990   42.6335 H         1 YC2         0.0285
     40 H9         22.9235   46.1321   41.5035 H         1 YC2         0.0285
     41 H10        22.6273   46.0115   44.5425 H         1 YC2         0.0268
     42 H11        22.7182   44.5561   43.4935 H         1 YC2         0.0268
     43 H12        20.7175   45.2545   42.2959 H         1 YC2         0.0305
     44 H13        20.6458   46.7724   43.2538 H         1 YC2         0.0305
     45 H14        20.0550   43.9344   44.3131 H         1 YC2         0.0723
     46 H15        18.2383   46.3054   44.0874 H         1 YC2         0.1869
     47 H16        16.2842   45.9684   42.9855 H         1 YC2         0.1869
     48 H17        15.8553   43.4581   41.6292 H         1 YC2         0.0724
     49 H18        14.0290   45.1479   41.8750 H         1 YC2         0.0323
     50 H19        14.3507   44.9003   40.1252 H         1 YC2         0.0323
     51 H20        15.9242   46.9352   40.3080 H         1 YC2         0.0432
     52 H21        15.1468   47.2395   41.8986 H         1 YC2         0.0432
@<TRIPOS>BOND
     1    1    2 1  
     2    2    3 ar 
     3    2    5 ar 
     4    3    4 ar 
     5    4    7 ar 
     6    5    6 ar 
     7    6    7 ar 
     8    7    8 1  
     9    8    9 2  
    10    8   10 am 
    11   10   11 1  
    12   11   12 1  
    13   12   13 1  
    14   13   14 1  
    15   14   15 1  
    16   15   16 1  
    17   15   19 1  
    18   16   17 ar 
    19   16   18 ar 
    20   19   20 am 
    21   20   21 2  
    22   20   22 am 
    23   22   23 1  
    24   23   24 1  
    25   23   27 1  
    26   24   25 ar 
    27   24   26 ar 
    28   27   28 1  
    29   28   29 1  
    30   29   30 ar 
    31   29   31 ar 
    32    3   32 1  
    33    4   33 1  
    34    5   34 1  
    35    6   35 1  
    36   10   36 1  
    37   11   37 1  
    38   11   38 1  
    39   12   39 1  
    40   12   40 1  
    41   13   41 1  
    42   13   42 1  
    43   14   43 1  
    44   14   44 1  
    45   15   45 1  
    46   19   46 1  
    47   22   47 1  
    48   23   48 1  
    49   27   49 1  
    50   27   50 1  
    51   28   51 1  
    52   28   52 1  
@<TRIPOS>SUBSTRUCTURE
     1 YC2         1

