### 
### Created by X-TOOL on Mon Sep 10 21:12:57 2018
### 

@<TRIPOS>MOLECULE
3d7z_ligand
   46    49     1     0     0
SMALL
GAST_HUCK


@<TRIPOS>ATOM
      1 C9         39.6300   32.3090   30.1810 C.3       1 GK5        -0.0272
      2 C22        36.9710   26.7190   36.5160 C.2       1 GK5        -0.0568
      3 C21        38.0580   27.4050   37.2550 C.2       1 GK5        -0.0568
      4 C18        38.3730   26.6660   35.9900 C.3       1 GK5         0.0782
      5 C26        49.0270   33.9270   30.3930 C.2       1 GK5        -0.0786
      6 C25        50.1850   34.2140   31.2830 C.2       1 GK5        -0.0786
      7 C24        48.8110   34.5300   31.7230 C.3       1 GK5         0.0153
      8 C4         39.5470   31.3350   31.3530 C.ar      1 GK5        -0.0311
      9 C8         38.4080   30.5250   31.5890 C.ar      1 GK5        -0.0528
     10 C13        38.3120   29.6390   32.6650 C.ar      1 GK5        -0.0476
     11 C7         39.3810   29.5090   33.5710 C.ar      1 GK5         0.0444
     12 C12        39.4050   28.5850   34.7640 C.2       1 GK5         0.2010
     13 O16        40.2860   28.7210   35.6310 O.2       1 GK5        -0.3876
     14 N15        38.4170   27.6230   34.9050 N.am      1 GK5        -0.2769
     15 C3         40.5060   30.3250   33.3110 C.ar      1 GK5        -0.0389
     16 C1         40.6100   31.2270   32.2260 C.ar      1 GK5        -0.0070
     17 C2         41.9110   31.9770   32.1760 C.ar      1 GK5        -0.0164
     18 C5         42.9870   31.5060   31.4480 C.ar      1 GK5        -0.0506
     19 C10        44.2120   32.1920   31.4660 C.ar      1 GK5        -0.0430
     20 C14        44.4000   33.3460   32.2420 C.ar      1 GK5         0.0482
     21 C11        43.3170   33.7730   33.0100 C.ar      1 GK5        -0.0430
     22 C6         42.0990   33.0920   32.9560 C.ar      1 GK5        -0.0506
     23 C17        45.6910   34.0920   32.3920 C.2       1 GK5         0.2037
     24 O20        45.7880   35.2700   32.7450 O.2       1 GK5        -0.3856
     25 N19        46.7910   33.2990   32.2650 N.am      1 GK5        -0.2856
     26 C23        48.1440   33.6290   32.7420 C.3       1 GK5         0.0400
     27 H1         38.6990   32.2603   29.5972 H         1 GK5         0.0408
     28 H2         40.4804   32.0377   29.5382 H         1 GK5         0.0408
     29 H3         39.7704   33.3310   30.5628 H         1 GK5         0.0408
     30 H4         35.9199   26.4499   36.4232 H         1 GK5         0.0596
     31 H5         38.3874   28.0070   38.1006 H         1 GK5         0.0596
     32 H6         39.0129   25.7754   35.9041 H         1 GK5         0.0645
     33 H7         48.6303   33.5494   29.4517 H         1 GK5         0.0576
     34 H8         51.2575   34.2007   31.4714 H         1 GK5         0.0576
     35 H9         48.4847   35.5738   31.8415 H         1 GK5         0.0405
     36 H10        37.5722   30.5963   30.9024 H         1 GK5         0.0571
     37 H11        37.4121   29.0504   32.8023 H         1 GK5         0.0658
     38 H12        37.6923   27.5881   34.2169 H         1 GK5         0.1852
     39 H13        41.3477   30.2546   33.9905 H         1 GK5         0.0665
     40 H14        42.8847   30.6014   30.8595 H         1 GK5         0.0623
     41 H15        45.0339   31.8205   30.8648 H         1 GK5         0.0665
     42 H16        43.4214   34.6393   33.6532 H         1 GK5         0.0665
     43 H17        41.2705   33.4571   33.5522 H         1 GK5         0.0623
     44 H18        46.6692   32.4175   31.8089 H         1 GK5         0.1844
     45 H19        48.0791   34.1485   33.7094 H         1 GK5         0.0528
     46 H20        48.7304   32.7058   32.8601 H         1 GK5         0.0528
@<TRIPOS>BOND
     1    8    1 1  
     2    3    2 2  
     3    4    2 1  
     4    4    3 1  
     5   14    4 1  
     6    6    5 2  
     7    7    5 1  
     8    7    6 1  
     9   26    7 1  
    10    8    9 ar 
    11   16    8 ar 
    12    9   10 ar 
    13   11   10 ar 
    14   11   12 1  
    15   15   11 ar 
    16   12   13 2  
    17   12   14 am 
    18   16   15 ar 
    19   17   16 1  
    20   18   17 ar 
    21   22   17 ar 
    22   19   18 ar 
    23   20   19 ar 
    24   20   21 ar 
    25   23   20 1  
    26   21   22 ar 
    27   23   24 2  
    28   25   23 am 
    29   25   26 1  
    30    1   27 1  
    31    1   28 1  
    32    1   29 1  
    33    2   30 1  
    34    3   31 1  
    35    4   32 1  
    36    5   33 1  
    37    6   34 1  
    38    7   35 1  
    39    9   36 1  
    40   10   37 1  
    41   14   38 1  
    42   15   39 1  
    43   18   40 1  
    44   19   41 1  
    45   21   42 1  
    46   22   43 1  
    47   25   44 1  
    48   26   45 1  
    49   26   46 1  
@<TRIPOS>SUBSTRUCTURE
     1 GK5         1

