### 
### Created by X-TOOL on Mon Sep 10 21:12:57 2018
### 

@<TRIPOS>MOLECULE
3d83_ligand
   65    69     1     0     0
SMALL
GAST_HUCK


@<TRIPOS>ATOM
      1 O3         46.2930   34.8180   30.9770 O.2       1 GK6        -0.3855
      2 C24        46.0010   33.6850   30.5740 C.2       1 GK6         0.2037
      3 N4         46.7750   33.0420   29.6770 N.am      1 GK6        -0.2862
      4 C25        47.9870   33.6210   29.0970 C.3       1 GK6         0.0332
      5 C26        49.0690   32.5610   28.8470 C.3       1 GK6        -0.0209
      6 C28        50.4230   33.1260   29.2810 C.3       1 GK6        -0.0481
      7 C27        49.7130   32.0970   30.1540 C.3       1 GK6        -0.0481
      8 C21        44.7130   33.0050   31.0550 C.ar      1 GK6         0.0482
      9 C20        44.3990   31.7120   30.6360 C.ar      1 GK6        -0.0430
     10 C19        43.2190   31.0710   31.0750 C.ar      1 GK6        -0.0509
     11 C22        43.8320   33.6670   31.9150 C.ar      1 GK6        -0.0430
     12 C23        42.6540   33.0280   32.3520 C.ar      1 GK6        -0.0509
     13 C18        42.3460   31.7220   31.9440 C.ar      1 GK6        -0.0210
     14 C17        41.1220   31.1280   32.3350 C.ar      1 GK6        -0.0259
     15 C2         39.9640   31.5260   31.6450 C.ar      1 GK6        -0.0499
     16 C1         40.0470   32.5660   30.5520 C.3       1 GK6        -0.0360
     17 C16        40.9900   30.1500   33.3360 C.ar      1 GK6        -0.0385
     18 C5         39.7240   29.6130   33.6760 C.ar      1 GK6         0.0609
     19 C4         38.5790   30.0370   32.9910 C.ar      1 GK6        -0.0459
     20 C3         38.7050   30.9950   31.9660 C.ar      1 GK6        -0.0708
     21 N1         39.5810   28.6850   34.6690 N.am      1 GK6        -0.2353
     22 C6         40.2020   28.7100   35.8760 C.2       1 GK6         0.2371
     23 O1         41.1200   29.4700   36.1680 O.2       1 GK6        -0.3689
     24 C7         39.7990   27.7130   36.9570 C.ar      1 GK6         0.0633
     25 C11        40.1000   27.9850   38.3110 C.ar      1 GK6         0.0038
     26 C10        39.7450   27.0410   39.2980 C.ar      1 GK6         0.1191
     27 N2         39.1500   25.8840   38.9140 N.ar      1 GK6        -0.2809
     28 C9         38.8610   25.5970   37.6230 C.ar      1 GK6         0.0010
     29 C8         39.1850   26.5000   36.6040 C.ar      1 GK6        -0.0284
     30 N3         40.0600   27.2770   40.6590 N.pl3     1 GK6        -0.2890
     31 C15        39.9840   26.1460   41.5840 C.3       1 GK6         0.0532
     32 C14        39.8540   26.6370   43.0270 C.3       1 GK6         0.0678
     33 O2         40.7740   27.6980   43.2700 O.3       1 GK6        -0.3758
     34 C13        40.3550   28.8400   42.5260 C.3       1 GK6         0.0678
     35 C12        40.5920   28.6050   41.0320 C.3       1 GK6         0.0532
     36 H1         46.5068   32.1214   29.3932 H         1 GK6         0.1844
     37 H2         48.3849   34.3781   29.7887 H         1 GK6         0.0522
     38 H3         47.7296   34.0980   28.1398 H         1 GK6         0.0522
     39 H4         48.9017   31.9135   27.9736 H         1 GK6         0.0320
     40 H5         50.5009   34.1709   29.6158 H         1 GK6         0.0269
     41 H6         51.3359   32.8470   28.7344 H         1 GK6         0.0269
     42 H7         50.1142   31.0762   30.2370 H         1 GK6         0.0269
     43 H8         49.2792   32.4000   31.1184 H         1 GK6         0.0269
     44 H9         45.0707   31.1911   29.9633 H         1 GK6         0.0665
     45 H10        42.9917   30.0675   30.7339 H         1 GK6         0.0623
     46 H11        44.0553   34.6745   32.2468 H         1 GK6         0.0665
     47 H12        41.9756   33.5542   33.0137 H         1 GK6         0.0623
     48 H13        39.0440   32.7412   30.1357 H         1 GK6         0.0372
     49 H14        40.7171   32.2089   29.7561 H         1 GK6         0.0372
     50 H15        40.4402   33.5051   30.9685 H         1 GK6         0.0372
     51 H16        41.8736   29.8002   33.8575 H         1 GK6         0.0493
     52 H17        37.6063   29.6326   33.2466 H         1 GK6         0.0500
     53 H18        37.8262   31.3234   31.4230 H         1 GK6         0.0524
     54 H19        38.9636   27.9189   34.4905 H         1 GK6         0.2233
     55 H20        40.5975   28.9075   38.5878 H         1 GK6         0.0660
     56 H21        38.3747   24.6601   37.3765 H         1 GK6         0.0791
     57 H22        38.9674   26.2689   35.5675 H         1 GK6         0.0644
     58 H23        40.8971   25.5399   41.4895 H         1 GK6         0.0542
     59 H24        39.1078   25.5309   41.3314 H         1 GK6         0.0542
     60 H25        40.0683   25.8056   43.7146 H         1 GK6         0.0580
     61 H26        38.8291   26.9986   43.1970 H         1 GK6         0.0580
     62 H27        40.9301   29.7190   42.8525 H         1 GK6         0.0580
     63 H28        39.2836   29.0167   42.7018 H         1 GK6         0.0580
     64 H29        40.0773   29.3842   40.4507 H         1 GK6         0.0542
     65 H30        41.6708   28.6420   40.8203 H         1 GK6         0.0542
@<TRIPOS>BOND
     1    1    2 2  
     2    2    3 am 
     3    2    8 1  
     4    3    4 1  
     5    4    5 1  
     6    5    6 1  
     7    5    7 1  
     8    6    7 1  
     9    8    9 ar 
    10    8   11 ar 
    11    9   10 ar 
    12   10   13 ar 
    13   11   12 ar 
    14   12   13 ar 
    15   13   14 1  
    16   14   15 ar 
    17   14   17 ar 
    18   15   16 1  
    19   15   20 ar 
    20   17   18 ar 
    21   18   19 ar 
    22   18   21 1  
    23   19   20 ar 
    24   21   22 am 
    25   22   23 2  
    26   22   24 1  
    27   24   25 ar 
    28   24   29 ar 
    29   25   26 ar 
    30   26   27 ar 
    31   26   30 1  
    32   27   28 ar 
    33   28   29 ar 
    34   30   31 1  
    35   30   35 1  
    36   31   32 1  
    37   32   33 1  
    38   33   34 1  
    39   34   35 1  
    40    3   36 1  
    41    4   37 1  
    42    4   38 1  
    43    5   39 1  
    44    6   40 1  
    45    6   41 1  
    46    7   42 1  
    47    7   43 1  
    48    9   44 1  
    49   10   45 1  
    50   11   46 1  
    51   12   47 1  
    52   16   48 1  
    53   16   49 1  
    54   16   50 1  
    55   17   51 1  
    56   19   52 1  
    57   20   53 1  
    58   21   54 1  
    59   25   55 1  
    60   28   56 1  
    61   29   57 1  
    62   31   58 1  
    63   31   59 1  
    64   32   60 1  
    65   32   61 1  
    66   34   62 1  
    67   34   63 1  
    68   35   64 1  
    69   35   65 1  
@<TRIPOS>SUBSTRUCTURE
     1 GK6         1

