### 
### Created by X-TOOL on Mon Sep 10 21:12:59 2018
### 

@<TRIPOS>MOLECULE
3d8w_ligand
   27    28     1     0     0
SMALL
GAST_HUCK


@<TRIPOS>ATOM
      1 C1         -3.7480    7.2170   14.9300 C.ar      1 D8W        -0.0344
      2 C2         -2.6520    8.0100   15.2590 C.ar      1 D8W        -0.0599
      3 C3         -1.8770    8.5300   14.2250 C.ar      1 D8W        -0.0616
      4 C4         -2.1710    8.2920   12.8860 C.ar      1 D8W        -0.0599
      5 C5         -3.2660    7.4850   12.5570 C.ar      1 D8W        -0.0344
      6 C6         -4.0140    6.9550   13.5950 C.ar      1 D8W         0.1159
      7 S1         -5.3140    6.0650   13.2440 S.o2      1 D8W         0.0983
      8 O1         -6.2340    6.2910   14.3440 O.2       1 D8W        -0.1429
      9 O2         -5.9170    6.5480   11.9750 O.2       1 D8W        -0.1429
     10 N1         -4.7700    4.6710   13.0150 N.am      1 D8W        -0.1424
     11 C7         -4.7940    3.6140   13.8680 C.2       1 D8W         0.2195
     12 S2         -5.9290    3.4400   15.1330 S.3       1 D8W         0.0830
     13 N2         -3.9190    2.5820   13.7980 N.2       1 D8W        -0.2658
     14 N3         -4.1670    1.6230   14.8170 N.2       1 D8W        -0.2520
     15 C8         -5.2090    1.9380   15.6060 C.2       1 D8W         0.2540
     16 S3         -5.9160    0.9030   16.7060 S.o2      1 D8W         0.0983
     17 O3         -5.3520    1.2210   17.9840 O.2       1 D8W        -0.1454
     18 O4         -7.3050    1.1480   16.6630 O.2       1 D8W        -0.1454
     19 N4         -5.5330   -0.5790   16.2990 N.am      1 D8W        -0.2566
     20 H1         -4.3847    6.8100   15.7072 H         1 D8W         0.0637
     21 H2         -2.4078    8.2177   16.2945 H         1 D8W         0.0618
     22 H3         -1.0160    9.1406   14.4718 H         1 D8W         0.0618
     23 H4         -1.5579    8.7274   12.1053 H         1 D8W         0.0618
     24 H5         -3.5204    7.2814   11.5231 H         1 D8W         0.0637
     25 H6         -4.3402    4.5083   12.1268 H         1 D8W         0.2341
     26 H7         -5.8661   -1.3489   16.8433 H         1 D8W         0.1638
     27 H8         -4.9581   -0.7448   15.4977 H         1 D8W         0.1638
@<TRIPOS>BOND
     1    1    2 ar 
     2    1    6 ar 
     3    2    3 ar 
     4    3    4 ar 
     5    4    5 ar 
     6    5    6 ar 
     7    6    7 1  
     8    7    8 2  
     9    7    9 2  
    10    7   10 am 
    11   10   11 1  
    12   11   12 1  
    13   11   13 2  
    14   12   15 1  
    15   13   14 1  
    16   14   15 2  
    17   15   16 1  
    18   16   17 2  
    19   16   18 2  
    20   16   19 am 
    21    1   20 1  
    22    2   21 1  
    23    3   22 1  
    24    4   23 1  
    25    5   24 1  
    26   10   25 1  
    27   19   26 1  
    28   19   27 1  
@<TRIPOS>SUBSTRUCTURE
     1 D8W         1

