### 
### Created by X-TOOL on Fri Sep 26 17:34:44 2014
### 

@<TRIPOS>MOLECULE
3d8y_ligand
   46    48     1     0     0
SMALL
GAST_HUCK


@<TRIPOS>ATOM
      1 C21        42.2270   -1.7160   14.7530 C.3       1 T3S        -0.0318
      2 C22        43.1250   -2.8800   15.2050 C.3       1 T3S        -0.0123
      3 C23        42.6620   -4.2360   14.6330 C.3       1 T3S        -0.0434
      4 C24        41.9140   -4.1070   13.2930 C.3       1 T3S        -0.0123
      5 C25        40.7510   -3.0930   13.3500 C.3       1 T3S        -0.0318
      6 N26        40.8450   -2.1940   14.5310 N.4       1 T3S         0.2371
      7 C5'        39.8820   -1.0510   14.5420 C.3       1 T3S        -0.0024
      8 C4'        39.4700   -0.4660   13.1450 C.3       1 T3S         0.1274
      9 O4'        38.7200   -1.3620   12.2590 O.3       1 T3S        -0.3368
     10 C3'        38.5110    0.6850   13.4210 C.3       1 T3S         0.0914
     11 O3'        38.5910    1.6270   12.3400 O.3       1 T3S        -0.3888
     12 C2'        37.1380    0.0070   13.3960 C.3       1 T3S         0.0309
     13 C1'        37.3150   -0.9370   12.2130 C.3       1 T3S         0.1758
     14 N1         36.4730   -2.1580   12.2900 N.am      1 T3S        -0.1736
     15 C6         36.8630   -3.2190   13.1310 C.2       1 T3S         0.0524
     16 C5         36.0960   -4.3810   13.2120 C.2       1 T3S         0.0225
     17 C5M        36.5530   -5.5170   14.1380 C.3       1 T3S        -0.0437
     18 C4         34.9300   -4.4880   12.4450 C.2       1 T3S         0.1930
     19 O4         34.2250   -5.4980   12.4940 O.2       1 T3S        -0.4079
     20 N3         34.5370   -3.4370   11.6020 N.am      1 T3S        -0.1859
     21 C2         35.3000   -2.2630   11.5130 C.2       1 T3S         0.3265
     22 O2         34.9280   -1.3460   10.7770 O.2       1 T3S        -0.3843
     23 H1         42.6210   -1.2956   13.8160 H         1 T3S         0.0814
     24 H2         42.2219   -0.9378   15.5304 H         1 T3S         0.0814
     25 H3         43.1061   -2.9350   16.3035 H         1 T3S         0.0317
     26 H4         44.1530   -2.6857   14.8652 H         1 T3S         0.0317
     27 H5         41.9912   -4.7125   15.3631 H         1 T3S         0.0269
     28 H6         43.5470   -4.8709   14.4793 H         1 T3S         0.0269
     29 H7         41.5076   -5.0924   13.0215 H         1 T3S         0.0317
     30 H8         42.6277   -3.7797   12.5226 H         1 T3S         0.0317
     31 H9         39.8014   -3.6459   13.4008 H         1 T3S         0.0814
     32 H10        40.7703   -2.4805   12.4365 H         1 T3S         0.0814
     33 H11        40.6063   -2.7642   15.3272 H         1 T3S         0.2034
     34 H12        40.3377   -0.2362   15.1238 H         1 T3S         0.0841
     35 H13        38.9649   -1.3920   15.0446 H         1 T3S         0.0841
     36 H14        40.3744   -0.1162   12.6257 H         1 T3S         0.0677
     37 H15        38.7147    1.1736   14.3852 H         1 T3S         0.0623
     38 H16        37.9952    2.3482   12.5052 H         1 T3S         0.2099
     39 H17        36.3302    0.7324   13.2192 H         1 T3S         0.0344
     40 H18        36.9397   -0.5428   14.3279 H         1 T3S         0.0344
     41 H19        37.0957   -0.4032   11.2766 H         1 T3S         0.0959
     42 H20        37.7724   -3.1309   13.7237 H         1 T3S         0.1011
     43 H21        37.4860   -5.2258   14.6426 H         1 T3S         0.0296
     44 H22        36.7257   -6.4269   13.5445 H         1 T3S         0.0296
     45 H23        35.7748   -5.7123   14.8905 H         1 T3S         0.0296
     46 H24        33.7027   -3.5260   11.0580 H         1 T3S         0.2259
@<TRIPOS>BOND
     1    1    2 1  
     2    1    6 1  
     3    2    3 1  
     4    3    4 1  
     5    4    5 1  
     6    5    6 1  
     7    6    7 1  
     8    7    8 1  
     9    8    9 1  
    10    8   10 1  
    11    9   13 1  
    12   10   11 1  
    13   10   12 1  
    14   12   13 1  
    15   13   14 1  
    16   14   15 1  
    17   14   21 am 
    18   15   16 2  
    19   16   17 1  
    20   16   18 1  
    21   18   19 2  
    22   18   20 am 
    23   20   21 am 
    24   21   22 2  
    25    1   23 1  
    26    1   24 1  
    27    2   25 1  
    28    2   26 1  
    29    3   27 1  
    30    3   28 1  
    31    4   29 1  
    32    4   30 1  
    33    5   31 1  
    34    5   32 1  
    35    6   33 1  
    36    7   34 1  
    37    7   35 1  
    38    8   36 1  
    39   10   37 1  
    40   11   38 1  
    41   12   39 1  
    42   12   40 1  
    43   13   41 1  
    44   15   42 1  
    45   17   43 1  
    46   17   44 1  
    47   17   45 1  
    48   20   46 1  
@<TRIPOS>SUBSTRUCTURE
     1 T3S         1

