### 
### Created by X-TOOL on Mon Sep 10 21:13:00 2018
### 

@<TRIPOS>MOLECULE
3d8z_ligand
   43    45     1     0     0
SMALL
GAST_HUCK


@<TRIPOS>ATOM
      1 C21        41.9880    0.3830   15.0870 C.3       1 TXS        -0.0316
      2 C22        42.9030   -0.4170   16.0330 C.3       1 TXS        -0.0077
      3 C23        42.6800   -1.8880   15.6540 C.3       1 TXS        -0.0077
      4 C24        41.8290   -1.8330   14.3850 C.3       1 TXS        -0.0316
      5 N25        41.0320   -0.6040   14.5520 N.4       1 TXS         0.2371
      6 C5'        40.5490   -0.1410   13.2450 C.3       1 TXS        -0.0024
      7 C4'        39.0590   -0.4750   13.1820 C.3       1 TXS         0.1274
      8 O4'        38.6530   -1.4030   12.1450 O.3       1 TXS        -0.3368
      9 C3'        38.1450    0.7510   12.9360 C.3       1 TXS         0.0914
     10 O3'        37.6880    1.2010   14.2160 O.3       1 TXS        -0.3888
     11 C2'        36.9720    0.1420   12.1460 C.3       1 TXS         0.0309
     12 C1'        37.2720   -1.3060   12.5220 C.3       1 TXS         0.1758
     13 N1         36.3800   -2.4790   12.3410 N.am      1 TXS        -0.1736
     14 C6         36.7350   -3.5750   13.1390 C.2       1 TXS         0.0524
     15 C5         35.9840   -4.7380   13.1210 C.2       1 TXS         0.0225
     16 C5M        36.4390   -5.8960   13.9990 C.3       1 TXS        -0.0437
     17 C4         34.8510   -4.8150   12.3110 C.2       1 TXS         0.1930
     18 O4         34.1760   -5.8420   12.2850 O.2       1 TXS        -0.4079
     19 N3         34.4710   -3.7170   11.5150 N.am      1 TXS        -0.1859
     20 C2         35.2290   -2.5290   11.5260 C.2       1 TXS         0.3265
     21 O2         34.8850   -1.5780   10.8300 O.2       1 TXS        -0.3843
     22 H1         42.5740    0.8338   14.2725 H         1 TXS         0.0814
     23 H2         41.4585    1.1736   15.6389 H         1 TXS         0.0814
     24 H3         42.6223   -0.2415   17.0820 H         1 TXS         0.0319
     25 H4         43.9555   -0.1347   15.8829 H         1 TXS         0.0319
     26 H5         42.1473   -2.4195   16.4563 H         1 TXS         0.0319
     27 H6         43.6396   -2.3883   15.4569 H         1 TXS         0.0319
     28 H7         41.1773   -2.7161   14.3111 H         1 TXS         0.0814
     29 H8         42.4641   -1.7699   13.4891 H         1 TXS         0.0814
     30 H9         40.2588   -0.7502   15.1819 H         1 TXS         0.2034
     31 H10        41.0876   -0.6581   12.4372 H         1 TXS         0.0841
     32 H11        40.6982    0.9446   13.1489 H         1 TXS         0.0841
     33 H12        38.8029   -0.9151   14.1570 H         1 TXS         0.0677
     34 H13        38.6487    1.5571   12.3824 H         1 TXS         0.0623
     35 H14        37.1222    1.9555   14.1017 H         1 TXS         0.2099
     36 H15        37.0460    0.3254   11.0639 H         1 TXS         0.0344
     37 H16        35.9911    0.4822   12.5094 H         1 TXS         0.0344
     38 H17        37.2947   -1.2691   13.6211 H         1 TXS         0.0959
     39 H18        37.6123   -3.5111   13.7811 H         1 TXS         0.1011
     40 H19        37.3495   -5.6069   14.5443 H         1 TXS         0.0296
     41 H20        36.6516   -6.7723   13.3690 H         1 TXS         0.0296
     42 H21        35.6446   -6.1452   14.7179 H         1 TXS         0.0296
     43 H22        33.6571   -3.7809   10.9376 H         1 TXS         0.2259
@<TRIPOS>BOND
     1    1    2 1  
     2    1    5 1  
     3    2    3 1  
     4    3    4 1  
     5    4    5 1  
     6    5    6 1  
     7    6    7 1  
     8    7    8 1  
     9    7    9 1  
    10    8   12 1  
    11    9   10 1  
    12    9   11 1  
    13   11   12 1  
    14   12   13 1  
    15   13   14 1  
    16   13   20 am 
    17   14   15 2  
    18   15   16 1  
    19   15   17 1  
    20   17   18 2  
    21   17   19 am 
    22   19   20 am 
    23   20   21 2  
    24    1   22 1  
    25    1   23 1  
    26    2   24 1  
    27    2   25 1  
    28    3   26 1  
    29    3   27 1  
    30    4   28 1  
    31    4   29 1  
    32    5   30 1  
    33    6   31 1  
    34    6   32 1  
    35    7   33 1  
    36    9   34 1  
    37   10   35 1  
    38   11   36 1  
    39   11   37 1  
    40   12   38 1  
    41   14   39 1  
    42   16   40 1  
    43   16   41 1  
    44   16   42 1  
    45   19   43 1  
@<TRIPOS>SUBSTRUCTURE
     1 TXS         1

