### 
### Created by X-TOOL on Mon Sep 10 21:12:58 2018
### 

@<TRIPOS>MOLECULE
3d91_ligand
   94    97     1     0     0
SMALL
GAST_HUCK


@<TRIPOS>ATOM
      1 O41        -0.7120    2.4160   -8.5340 O.2       1 REM        -0.1737
      2 S38         0.5450    2.8230   -7.9670 S.o2      1 REM        -0.0237
      3 O40         0.8920    1.9090   -6.9370 O.2       1 REM        -0.1737
      4 C39         1.8020    2.7610   -9.0760 C.3       1 REM         0.0796
      5 C44         3.1720    2.7680   -8.3870 C.3       1 REM        -0.0405
      6 C43         1.7560    3.9310  -10.0640 C.3       1 REM        -0.0405
      7 C42         1.6600    1.4730   -9.8610 C.3       1 REM        -0.0405
      8 C37         0.2970    4.3810   -7.4060 C.3       1 REM         0.0876
      9 C1         -0.8670    4.5970   -6.4120 C.3       1 REM         0.0776
     10 C4         -0.8190    6.0240   -5.8690 C.3       1 REM         0.0021
     11 C5          0.4240    6.2650   -5.0360 C.ar      1 REM        -0.0405
     12 C7          0.3630    6.1090   -3.6620 C.ar      1 REM        -0.0602
     13 C9          1.5000    6.3480   -2.9190 C.ar      1 REM        -0.0686
     14 C10         2.6800    6.7380   -3.5220 C.ar      1 REM        -0.0687
     15 C8          2.7450    6.8790   -4.8850 C.ar      1 REM        -0.0686
     16 C6          1.6100    6.6460   -5.6390 C.ar      1 REM        -0.0602
     17 C2         -2.2160    4.5790   -7.0220 C.2       1 REM         0.1849
     18 O3         -2.4010    4.9620   -8.1720 O.2       1 REM        -0.3964
     19 N11        -3.1750    4.1090   -6.2320 N.am      1 REM        -0.2640
     20 C12        -4.5450    4.0370   -6.7010 C.3       1 REM         0.1367
     21 C15        -4.7460    2.6420   -7.2460 C.3       1 REM         0.0145
     22 C16        -5.9630    2.5980   -8.1290 C.2       1 REM        -0.0027
     23 C18        -6.0110    2.5050   -9.4500 C.2       1 REM         0.0291
     24 N20        -7.2130    2.4700   -9.9470 N.pl3     1 REM        -0.2752
     25 C19        -8.0240    2.5580   -8.8550 C.2       1 REM         0.0907
     26 N17        -7.2360    2.6230   -7.7560 N.2       1 REM        -0.3252
     27 C13        -5.3800    4.2420   -5.5050 C.2       1 REM         0.2034
     28 O14        -5.5070    3.3220   -4.7110 O.2       1 REM        -0.3944
     29 N24        -5.9100    5.4730   -5.3510 N.am      1 REM        -0.2793
     30 C21        -6.6730    5.7840   -4.1590 C.3       1 REM         0.0706
     31 C22        -8.1830    5.7650   -4.4300 C.3       1 REM         0.1041
     32 O25        -8.4830    6.7330   -5.3880 O.3       1 REM        -0.3869
     33 C23        -8.7130    4.4200   -5.0160 C.3       1 REM         0.0860
     34 C34       -10.2300    4.2550   -4.9540 C.3       1 REM        -0.0124
     35 C36       -11.0300    4.9520   -6.0500 C.3       1 REM        -0.0475
     36 C35       -10.7920    3.4470   -6.1540 C.3       1 REM        -0.0475
     37 O26        -8.2020    3.5190   -4.0760 O.3       1 REM        -0.3889
     38 C27        -6.1200    7.1700   -3.8250 C.3       1 REM        -0.0245
     39 C28        -4.6950    7.1450   -3.2860 C.3       1 REM        -0.0389
     40 C33        -4.4040    8.5190   -2.6700 C.3       1 REM        -0.0501
     41 C32        -2.8840    8.6070   -2.5010 C.3       1 REM        -0.0528
     42 C31        -2.2990    7.4520   -1.6730 C.3       1 REM        -0.0530
     43 C30        -2.9480    6.0550   -1.8460 C.3       1 REM        -0.0528
     44 C29        -4.4390    6.0850   -2.1970 C.3       1 REM        -0.0501
     45 H1          3.9653    2.7265   -9.1479 H         1 REM         0.0251
     46 H2          3.2536    1.8939   -7.7242 H         1 REM         0.0251
     47 H3          3.2799    3.6886   -7.7947 H         1 REM         0.0251
     48 H4          2.5962    3.8486  -10.7692 H         1 REM         0.0251
     49 H5          1.8318    4.8798   -9.5126 H         1 REM         0.0251
     50 H6          0.8070    3.9046  -10.6197 H         1 REM         0.0251
     51 H7          2.4723    1.4022  -10.5993 H         1 REM         0.0251
     52 H8          0.6905    1.4653  -10.3807 H         1 REM         0.0251
     53 H9          1.7141    0.6164   -9.1730 H         1 REM         0.0251
     54 H10         0.1087    5.0215   -8.2802 H         1 REM         0.0529
     55 H11         1.2225    4.7043   -6.9071 H         1 REM         0.0529
     56 H12        -0.7941    3.8507   -5.6072 H         1 REM         0.0577
     57 H13        -1.7068    6.1974   -5.2430 H         1 REM         0.0454
     58 H14        -0.8234    6.7276   -6.7145 H         1 REM         0.0454
     59 H15        -0.5592    5.8053   -3.1800 H         1 REM         0.0557
     60 H16         1.4671    6.2276   -1.8422 H         1 REM         0.0599
     61 H17         3.5575    6.9333   -2.9162 H         1 REM         0.0559
     62 H18         3.6732    7.1690   -5.3640 H         1 REM         0.0599
     63 H19         1.6494    6.7632   -6.7159 H         1 REM         0.0557
     64 H20        -2.9503    3.8026   -5.3070 H         1 REM         0.1884
     65 H21        -4.7571    4.7946   -7.4698 H         1 REM         0.0817
     66 H22        -4.8793    1.9409   -6.4090 H         1 REM         0.0420
     67 H23        -3.8618    2.3501   -7.8317 H         1 REM         0.0420
     68 H24        -5.1166    2.4614  -10.0697 H         1 REM         0.0729
     69 H25        -7.4880    2.3935  -10.9367 H         1 REM         0.2361
     70 H26        -9.1129    2.5733   -8.8648 H         1 REM         0.1199
     71 H27        -5.7768    6.1685   -6.0571 H         1 REM         0.1856
     72 H28        -6.4536    5.0722   -3.3496 H         1 REM         0.0582
     73 H29        -8.7101    5.9825   -3.4893 H         1 REM         0.0642
     74 H30        -8.2253    7.5881   -5.0640 H         1 REM         0.2100
     75 H31        -8.3443    4.2482   -6.0380 H         1 REM         0.0622
     76 H32       -10.6073    4.1545   -3.9257 H         1 REM         0.0326
     77 H33       -10.5227    5.6353   -6.7469 H         1 REM         0.0269
     78 H34       -12.0390    5.3323   -5.8328 H         1 REM         0.0269
     79 H35       -11.6256    2.7450   -6.0045 H         1 REM         0.0269
     80 H36       -10.1093    3.0480   -6.9186 H         1 REM         0.0269
     81 H37        -8.4658    2.6366   -4.3088 H         1 REM         0.2099
     82 H38        -6.7704    7.6304   -3.0668 H         1 REM         0.0291
     83 H39        -6.1348    7.7801   -4.7402 H         1 REM         0.0291
     84 H40        -4.0083    6.9573   -4.1246 H         1 REM         0.0302
     85 H41        -4.9008    8.6103   -1.6929 H         1 REM         0.0268
     86 H42        -4.7589    9.3177   -3.3379 H         1 REM         0.0268
     87 H43        -2.6424    9.5550   -1.9981 H         1 REM         0.0265
     88 H44        -2.4199    8.5923   -3.4982 H         1 REM         0.0265
     89 H45        -2.3868    7.7282   -0.6119 H         1 REM         0.0265
     90 H46        -1.2362    7.3583   -1.9408 H         1 REM         0.0265
     91 H47        -2.8284    5.5016   -0.9029 H         1 REM         0.0265
     92 H48        -2.4163    5.5267   -2.6511 H         1 REM         0.0265
     93 H49        -4.7470    5.0967   -2.5691 H         1 REM         0.0268
     94 H50        -5.0212    6.3362   -1.2982 H         1 REM         0.0268
@<TRIPOS>BOND
     1    1    2 2  
     2    2    3 2  
     3    2    4 1  
     4    2    8 1  
     5    4    5 1  
     6    4    6 1  
     7    4    7 1  
     8    8    9 1  
     9    9   10 1  
    10    9   17 1  
    11   10   11 1  
    12   11   12 ar 
    13   11   16 ar 
    14   12   13 ar 
    15   13   14 ar 
    16   14   15 ar 
    17   15   16 ar 
    18   17   18 2  
    19   17   19 am 
    20   19   20 1  
    21   20   21 1  
    22   20   27 1  
    23   21   22 1  
    24   22   23 2  
    25   22   26 1  
    26   23   24 1  
    27   24   25 1  
    28   25   26 2  
    29   27   28 2  
    30   27   29 am 
    31   29   30 1  
    32   30   31 1  
    33   30   38 1  
    34   31   32 1  
    35   31   33 1  
    36   33   34 1  
    37   33   37 1  
    38   34   35 1  
    39   34   36 1  
    40   35   36 1  
    41   38   39 1  
    42   39   40 1  
    43   39   44 1  
    44   40   41 1  
    45   41   42 1  
    46   42   43 1  
    47   43   44 1  
    48    5   45 1  
    49    5   46 1  
    50    5   47 1  
    51    6   48 1  
    52    6   49 1  
    53    6   50 1  
    54    7   51 1  
    55    7   52 1  
    56    7   53 1  
    57    8   54 1  
    58    8   55 1  
    59    9   56 1  
    60   10   57 1  
    61   10   58 1  
    62   12   59 1  
    63   13   60 1  
    64   14   61 1  
    65   15   62 1  
    66   16   63 1  
    67   19   64 1  
    68   20   65 1  
    69   21   66 1  
    70   21   67 1  
    71   23   68 1  
    72   24   69 1  
    73   25   70 1  
    74   29   71 1  
    75   30   72 1  
    76   31   73 1  
    77   32   74 1  
    78   33   75 1  
    79   34   76 1  
    80   35   77 1  
    81   35   78 1  
    82   36   79 1  
    83   36   80 1  
    84   37   81 1  
    85   38   82 1  
    86   38   83 1  
    87   39   84 1  
    88   40   85 1  
    89   40   86 1  
    90   41   87 1  
    91   41   88 1  
    92   42   89 1  
    93   42   90 1  
    94   43   91 1  
    95   43   92 1  
    96   44   93 1  
    97   44   94 1  
@<TRIPOS>SUBSTRUCTURE
     1 REM         1

