### 
### Created by X-TOOL on Mon Sep 10 21:12:58 2018
### 

@<TRIPOS>MOLECULE
3d94_ligand
   70    76     1     0     0
SMALL
GAST_HUCK


@<TRIPOS>ATOM
      1 N5         25.4110   13.5940   -7.6470 N.pl3     1 D94        -0.3130
      2 C3         24.5920   13.5810   -6.5360 C.2       1 D94         0.1438
      3 C4         24.2220   14.8190   -5.8410 C.2       1 D94         0.1532
      4 N2         23.4050   14.7300   -4.7190 N.pl3     1 D94        -0.1937
      5 C2         22.9520   13.4880   -4.2750 C.2       1 D94         0.0753
      6 C1         23.3360   12.3950   -4.9700 C.2       1 D94         0.0057
      7 N1         24.1530   12.4190   -6.0860 N.2       1 D94        -0.3050
      8 C5         23.1950   16.0030   -4.2520 C.2       1 D94         0.1406
      9 C22        22.3500   16.3460   -3.0250 C.3       1 D94         0.0478
     10 C23        22.1470   17.8370   -2.6380 C.3       1 D94         0.0087
     11 C24        22.1160   17.2840   -1.1870 C.3       1 D94        -0.0155
     12 N6         22.4270   18.2710   -0.1040 N.4       1 D94         0.2451
     13 C26        22.2820   19.7040   -0.4220 C.3       1 D94         0.0097
     14 C27        22.3280   20.5830    0.8250 C.3       1 D94         0.0092
     15 N7         23.6150   20.3230    1.5740 N.4       1 D94         0.2405
     16 C30        23.6940   21.1880    2.8030 C.3       1 D94        -0.0427
     17 C28        23.8600   18.8530    1.8580 C.3       1 D94         0.0092
     18 C29        23.7000   17.9910    0.5990 C.3       1 D94         0.0097
     19 C25        23.1790   16.2950   -1.7100 C.3       1 D94         0.0087
     20 N3         23.8300   16.8880   -5.0040 N.2       1 D94        -0.3181
     21 C6         24.4580   16.1760   -6.0040 C.2       1 D94         0.0364
     22 C7         25.3340   16.8980   -6.8990 C.ar      1 D94        -0.0277
     23 C8         25.0300   18.1480   -7.4770 C.ar      1 D94        -0.0461
     24 C12        25.9680   18.8360   -8.2660 C.ar      1 D94         0.0337
     25 C11        27.2750   18.2740   -8.4140 C.ar      1 D94         0.0008
     26 C9         27.6120   17.0500   -7.7860 C.ar      1 D94        -0.0496
     27 C10        26.6420   16.4030   -7.0190 C.ar      1 D94        -0.0556
     28 N4         25.6130   20.0080   -8.8560 N.ar      1 D94        -0.2992
     29 C13        26.5490   20.6850   -9.6020 C.ar      1 D94         0.0462
     30 C14        27.8420   20.1790   -9.7920 C.ar      1 D94        -0.0289
     31 C15        28.2070   18.9680   -9.1950 C.ar      1 D94        -0.0384
     32 C16        26.0940   21.9370  -10.2520 C.ar      1 D94         0.0010
     33 C17        26.8600   23.1160  -10.2980 C.ar      1 D94        -0.0493
     34 C18        26.3910   24.2580  -10.9590 C.ar      1 D94        -0.0583
     35 C19        25.1430   24.2420  -11.5940 C.ar      1 D94        -0.0591
     36 C20        24.3670   23.0950  -11.5630 C.ar      1 D94        -0.0583
     37 C21        24.8490   21.9580  -10.9160 C.ar      1 D94        -0.0493
     38 H1         25.6558   12.7106   -8.1167 H         1 D94         0.1807
     39 H2         25.7774   14.4871   -8.0063 H         1 D94         0.1807
     40 H3         22.3111   13.4022   -3.3987 H         1 D94         0.1020
     41 H4         22.9767   11.4258   -4.6272 H         1 D94         0.0649
     42 H5         21.4262   15.7491   -3.0409 H         1 D94         0.0530
     43 H6         21.2098   18.2930   -2.9898 H         1 D94         0.0349
     44 H7         22.9897   18.5045   -2.8712 H         1 D94         0.0349
     45 H8         21.1722   16.7900   -0.9128 H         1 D94         0.0855
     46 H9         21.7106   18.1015    0.5846 H         1 D94         0.2041
     47 H10        21.3173   19.8581   -0.9276 H         1 D94         0.0868
     48 H11        23.1001   20.0014   -1.0945 H         1 D94         0.0868
     49 H12        21.4716   20.3458    1.4733 H         1 D94         0.0868
     50 H13        22.2824   21.6417    0.5299 H         1 D94         0.0868
     51 H14        24.3643   20.6171    0.9673 H         1 D94         0.2035
     52 H15        24.6357   20.9852    3.3342 H         1 D94         0.0778
     53 H16        22.8443   20.9637    3.4645 H         1 D94         0.0778
     54 H17        23.6599   22.2473    2.5086 H         1 D94         0.0778
     55 H18        23.1389   18.5125    2.6157 H         1 D94         0.0868
     56 H19        24.8827   18.7313    2.2442 H         1 D94         0.0868
     57 H20        24.5367   18.2001   -0.0837 H         1 D94         0.0868
     58 H21        23.7200   16.9302    0.8895 H         1 D94         0.0868
     59 H22        24.2009   16.6957   -1.7812 H         1 D94         0.0349
     60 H23        23.2025   15.3179   -1.2052 H         1 D94         0.0349
     61 H24        24.0532   18.5871   -7.3094 H         1 D94         0.0540
     62 H25        28.6027   16.6246   -7.8988 H         1 D94         0.0645
     63 H26        26.9071   15.4893   -6.4995 H         1 D94         0.0615
     64 H27        28.5561   20.7238  -10.3990 H         1 D94         0.0672
     65 H28        29.2051   18.5693   -9.3361 H         1 D94         0.0754
     66 H29        27.8295   23.1409   -9.8137 H         1 D94         0.0648
     67 H30        26.9960   25.1573  -10.9792 H         1 D94         0.0625
     68 H31        24.7847   25.1260  -12.1091 H         1 D94         0.0639
     69 H32        23.3927   23.0816  -12.0380 H         1 D94         0.0625
     70 H33        24.2456   21.0575  -10.9233 H         1 D94         0.0648
@<TRIPOS>BOND
     1    1    2 1  
     2    2    3 1  
     3    2    7 2  
     4    3    4 1  
     5    3   21 2  
     6    4    5 1  
     7    4    8 1  
     8    5    6 2  
     9    6    7 1  
    10    8    9 1  
    11    8   20 2  
    12    9   10 1  
    13    9   19 1  
    14   10   11 1  
    15   11   12 1  
    16   11   19 1  
    17   12   13 1  
    18   12   18 1  
    19   13   14 1  
    20   14   15 1  
    21   15   16 1  
    22   15   17 1  
    23   17   18 1  
    24   20   21 1  
    25   21   22 1  
    26   22   23 ar 
    27   22   27 ar 
    28   23   24 ar 
    29   24   25 ar 
    30   24   28 ar 
    31   25   26 ar 
    32   25   31 ar 
    33   26   27 ar 
    34   28   29 ar 
    35   29   30 ar 
    36   29   32 1  
    37   30   31 ar 
    38   32   33 ar 
    39   32   37 ar 
    40   33   34 ar 
    41   34   35 ar 
    42   35   36 ar 
    43   36   37 ar 
    44    1   38 1  
    45    1   39 1  
    46    5   40 1  
    47    6   41 1  
    48    9   42 1  
    49   10   43 1  
    50   10   44 1  
    51   11   45 1  
    52   12   46 1  
    53   13   47 1  
    54   13   48 1  
    55   14   49 1  
    56   14   50 1  
    57   15   51 1  
    58   16   52 1  
    59   16   53 1  
    60   16   54 1  
    61   17   55 1  
    62   17   56 1  
    63   18   57 1  
    64   18   58 1  
    65   19   59 1  
    66   19   60 1  
    67   23   61 1  
    68   26   62 1  
    69   27   63 1  
    70   30   64 1  
    71   31   65 1  
    72   33   66 1  
    73   34   67 1  
    74   35   68 1  
    75   36   69 1  
    76   37   70 1  
@<TRIPOS>SUBSTRUCTURE
     1 D94         1

