### 
### Created by X-TOOL on Mon Sep 10 21:12:59 2018
### 

@<TRIPOS>MOLECULE
3d9v_ligand
   44    46     1     0     0
SMALL
GAST_HUCK


@<TRIPOS>ATOM
      1 O1         53.4870  101.2470   30.0680 O.2       1 H52        -0.1497
      2 S5         52.2480  101.9000   30.4060 S.o2      1 H52         0.0732
      3 O2         51.1900  101.2480   31.1400 O.2       1 H52        -0.1497
      4 N21        52.7040  103.2520   31.2790 N.am      1 H52        -0.2257
      5 C22        54.0830  103.7440   31.1800 C.3       1 H52         0.0778
      6 C2M        54.4110  104.3480   29.8060 C.3       1 H52        -0.0402
      7 C23        54.6270  104.7030   32.2660 C.3       1 H52        -0.0136
      8 N24        54.3810  104.1290   33.6210 N.4       1 H52         0.2284
      9 C25        53.1150  104.5420   34.1740 C.3       1 H52        -0.0321
     10 C26        52.0800  103.5830   33.5880 C.3       1 H52         0.0045
     11 C27        51.6870  103.9220   32.2070 C.3       1 H52         0.0350
     12 C5         51.5610  102.4130   28.8340 C.ar      1 H52         0.1228
     13 C10        51.2790  101.4510   27.7520 C.ar      1 H52         0.0294
     14 C4         51.5120   99.9720   27.8050 C.ar      1 H52        -0.0110
     15 CM         52.0450   99.1860   29.0090 C.3       1 H52        -0.0231
     16 C9         50.7400  102.0040   26.4730 C.ar      1 H52         0.0043
     17 C8         50.4960  103.4160   26.3280 C.ar      1 H52        -0.0481
     18 C7         50.7670  104.2770   27.3880 C.ar      1 H52        -0.0552
     19 C6         51.2940  103.7870   28.6220 C.ar      1 H52        -0.0302
     20 C1         50.4690  101.0950   25.4020 C.ar      1 H52         0.0104
     21 N2         50.7220   99.7750   25.5500 N.ar      1 H52        -0.3085
     22 C3         51.2050   99.2280   26.6890 C.ar      1 H52         0.0074
     23 H1         54.6966  102.8356   31.2705 H         1 H52         0.0564
     24 H2         55.4544  104.6961   29.7982 H         1 H52         0.0250
     25 H3         53.7398  105.1969   29.6089 H         1 H52         0.0250
     26 H4         54.2737  103.5835   29.0271 H         1 H52         0.0250
     27 H5         54.1170  105.6741   32.1834 H         1 H52         0.0832
     28 H6         55.7083  104.8430   32.1203 H         1 H52         0.0832
     29 H7         55.1177  104.4315   34.2389 H         1 H52         0.2014
     30 H8         54.3913  103.1234   33.5529 H         1 H52         0.2014
     31 H9         52.8877  105.5779   33.8819 H         1 H52         0.0814
     32 H10        53.1317  104.4656   35.2712 H         1 H52         0.0814
     33 H11        51.1819  103.6080   34.2227 H         1 H52         0.0333
     34 H12        52.5033  102.5677   33.5913 H         1 H52         0.0333
     35 H13        50.6760  103.5426   31.9974 H         1 H52         0.0480
     36 H14        51.7062  105.0126   32.0650 H         1 H52         0.0480
     37 H15        52.1099   98.1188   28.7505 H         1 H52         0.0421
     38 H16        51.3633   99.3157   29.8625 H         1 H52         0.0421
     39 H17        53.0441   99.5596   29.2776 H         1 H52         0.0421
     40 H18        50.1027  103.8071   25.3966 H         1 H52         0.0643
     41 H19        50.5747  105.3378   27.2749 H         1 H52         0.0642
     42 H20        51.4960  104.4900   29.4220 H         1 H52         0.0657
     43 H21        50.0597  101.4656   24.4692 H         1 H52         0.0786
     44 H22        51.3570   98.1553   26.7241 H         1 H52         0.0687
@<TRIPOS>BOND
     1    1    2 2  
     2    2    3 2  
     3    2    4 am 
     4    2   12 1  
     5    4    5 1  
     6    4   11 1  
     7    5    6 1  
     8    5    7 1  
     9    7    8 1  
    10    8    9 1  
    11    9   10 1  
    12   10   11 1  
    13   12   13 ar 
    14   12   19 ar 
    15   13   14 ar 
    16   13   16 ar 
    17   14   15 1  
    18   14   22 ar 
    19   16   17 ar 
    20   16   20 ar 
    21   17   18 ar 
    22   18   19 ar 
    23   20   21 ar 
    24   21   22 ar 
    25    5   23 1  
    26    6   24 1  
    27    6   25 1  
    28    6   26 1  
    29    7   27 1  
    30    7   28 1  
    31    8   29 1  
    32    8   30 1  
    33    9   31 1  
    34    9   32 1  
    35   10   33 1  
    36   10   34 1  
    37   11   35 1  
    38   11   36 1  
    39   15   37 1  
    40   15   38 1  
    41   15   39 1  
    42   17   40 1  
    43   18   41 1  
    44   19   42 1  
    45   20   43 1  
    46   22   44 1  
@<TRIPOS>SUBSTRUCTURE
     1 H52         1

