### 
### Created by X-TOOL on Mon Sep 10 21:12:59 2018
### 

@<TRIPOS>MOLECULE
3d9z_ligand
   22    23     1     0     0
SMALL
GAST_HUCK


@<TRIPOS>ATOM
      1 O2         -7.4330    0.6790   16.6650 O.2       1 D9Z        -0.1434
      2 S1         -6.0400    0.4340   16.8960 S.o2      1 D9Z         0.1053
      3 O1         -5.6600    0.5280   18.2670 O.2       1 D9Z        -0.1434
      4 N3         -5.6170   -0.9840   16.3240 N.am      1 D9Z        -0.2550
      5 C8         -5.2560    1.6870   16.1700 C.2       1 D9Z         0.2691
      6 S2         -5.8450    2.9550   15.1770 S.3       1 D9Z         0.0659
      7 N2         -3.9180    1.6980   16.3110 N.2       1 D9Z        -0.2135
      8 N1         -3.3600    2.6980   15.5570 N.2       1 D9Z        -0.2363
      9 C7         -4.2210    3.4800   14.8850 C.2       1 D9Z         0.1362
     10 C1         -3.7710    4.5600   14.1230 C.ar      1 D9Z         0.0386
     11 C6         -2.4180    4.8460   14.0190 C.ar      1 D9Z        -0.0448
     12 C2         -4.6800    5.3520   13.4860 C.ar      1 D9Z         0.0574
     13 C3         -4.3390    6.4230   12.6900 C.ar      1 D9Z        -0.0428
     14 C4         -2.9740    6.7100   12.5720 C.ar      1 D9Z        -0.0574
     15 C5         -2.0270    5.9450   13.2300 C.ar      1 D9Z        -0.0566
     16 CL1        -6.3760    5.3160   13.4270 Cl        1 D9Z        -0.0648
     17 H1         -5.8106   -1.2167   15.3709 H         1 D9Z         0.1640
     18 H2         -5.1568   -1.6451   16.9165 H         1 D9Z         0.1640
     19 H3         -1.6804    4.2393   14.5318 H         1 D9Z         0.0663
     20 H4         -5.0907    7.0146   12.1800 H         1 D9Z         0.0634
     21 H5         -2.6543    7.5431   11.9566 H         1 D9Z         0.0649
     22 H6         -0.9760    6.1936   13.1374 H         1 D9Z         0.0629
@<TRIPOS>BOND
     1    1    2 2  
     2    2    3 2  
     3    2    4 am 
     4    2    5 1  
     5    5    6 1  
     6    5    7 2  
     7    6    9 1  
     8    7    8 1  
     9    8    9 2  
    10    9   10 1  
    11   10   11 ar 
    12   10   12 ar 
    13   11   15 ar 
    14   12   13 ar 
    15   12   16 1  
    16   13   14 ar 
    17   14   15 ar 
    18    4   17 1  
    19    4   18 1  
    20   11   19 1  
    21   13   20 1  
    22   14   21 1  
    23   15   22 1  
@<TRIPOS>SUBSTRUCTURE
     1 D9Z         1

