### 
### Created by X-TOOL on Mon Sep 10 21:13:02 2018
### 

@<TRIPOS>MOLECULE
3da6_ligand
   59    64     1     0     0
SMALL
GAST_HUCK


@<TRIPOS>ATOM
      1 N1        -19.2570   17.1450  -33.1670 N.2       1 BZ9        -0.3083
      2 C4        -17.5010   18.3170  -33.8350 C.ar      1 BZ9         0.0758
      3 C5        -16.8280   19.3150  -34.5840 C.ar      1 BZ9        -0.0445
      4 C6        -17.5670   20.2010  -35.3850 C.ar      1 BZ9        -0.0785
      5 C7        -18.9820   20.0290  -35.4140 C.ar      1 BZ9        -0.0807
      6 C8        -19.6400   19.0140  -34.7280 C.ar      1 BZ9        -0.0688
      7 C10       -19.7590   12.6610  -33.0490 C.ar      1 BZ9         0.0076
      8 C13       -18.4510   13.2750  -35.3900 C.ar      1 BZ9        -0.0680
      9 C15       -19.9060   11.8580  -34.1710 C.ar      1 BZ9        -0.0605
     10 C17       -20.4450   12.3340  -31.8800 C.ar      1 BZ9         0.1197
     11 C20       -18.8540   14.5980  -31.9150 C.ar      1 BZ9         0.0661
     12 C21       -22.8340    9.6020  -31.7690 C.ar      1 BZ9         0.0653
     13 C22       -24.2200    9.3610  -31.7680 C.ar      1 BZ9        -0.0367
     14 C24       -24.5270   11.7490  -31.6190 C.ar      1 BZ9         0.0033
     15 C26       -22.4140   10.9190  -31.7430 C.ar      1 BZ9         0.2013
     16 C28       -22.0180    8.5020  -31.9280 C.ar      1 BZ9         0.0570
     17 C35       -23.8990    4.8560  -30.7440 C.3       1 BZ9         0.0194
     18 N34       -22.5790    4.9760  -31.3970 N.pl3     1 BZ9        -0.2927
     19 C32       -21.9780    6.1320  -31.7390 C.ar      1 BZ9         0.1870
     20 N27       -22.5580    7.3150  -31.5900 N.ar      1 BZ9        -0.2533
     21 N31       -20.7910    6.1080  -32.3360 N.ar      1 BZ9        -0.2578
     22 C30       -20.1910    7.2220  -32.6380 C.ar      1 BZ9         0.0112
     23 C29       -20.7130    8.5020  -32.4940 C.ar      1 BZ9        -0.0192
     24 C23       -25.0600   10.4790  -31.6710 C.ar      1 BZ9        -0.0414
     25 N25       -23.1970   11.9400  -31.6790 N.ar      1 BZ9        -0.2655
     26 O33       -21.1250   11.1470  -31.8350 O.3       1 BZ9        -0.2447
     27 C18       -20.3490   13.1240  -30.7350 C.ar      1 BZ9        -0.0239
     28 C36       -21.1060   12.7550  -29.4500 C.3       1 BZ9        -0.0368
     29 C19       -19.5770   14.2830  -30.7760 C.ar      1 BZ9        -0.0447
     30 C14       -19.2190   12.1410  -35.3690 C.ar      1 BZ9        -0.0683
     31 C12       -18.2620   14.0740  -34.2710 C.ar      1 BZ9        -0.0601
     32 C11       -18.9370   13.7900  -33.0770 C.ar      1 BZ9         0.0029
     33 N16       -18.1020   15.6920  -31.7760 N.pl3     1 BZ9        -0.2309
     34 C9        -18.1350   16.6910  -32.6180 C.2       1 BZ9         0.2328
     35 N2        -17.0420   17.3740  -33.0030 N.pl3     1 BZ9        -0.2277
     36 C3        -18.8990   18.1720  -33.9210 C.ar      1 BZ9         0.0133
     37 H1        -15.7478   19.3939  -34.5387 H         1 BZ9         0.0533
     38 H2        -17.0816   20.9832  -35.9574 H         1 BZ9         0.0514
     39 H3        -19.5738   20.7233  -35.9994 H         1 BZ9         0.0509
     40 H4        -20.7121   18.8860  -34.8244 H         1 BZ9         0.0518
     41 H5        -17.9709   13.5602  -36.3191 H         1 BZ9         0.0569
     42 H6        -20.5620   10.9962  -34.1254 H         1 BZ9         0.0588
     43 H7        -24.6203    8.3561  -31.8390 H         1 BZ9         0.0741
     44 H8        -25.1874   12.6038  -31.5287 H         1 BZ9         0.0815
     45 H9        -24.1343    3.7932  -30.5853 H         1 BZ9         0.0488
     46 H10       -24.6683    5.3100  -31.3859 H         1 BZ9         0.0488
     47 H11       -23.8771    5.3753  -29.7746 H         1 BZ9         0.0488
     48 H12       -22.0761    4.1023  -31.6085 H         1 BZ9         0.1858
     49 H13       -19.1875    7.1445  -33.0406 H         1 BZ9         0.0884
     50 H14       -20.1831    9.4028  -32.7818 H         1 BZ9         0.0655
     51 H15       -26.1350   10.3440  -31.6367 H         1 BZ9         0.0625
     52 H16       -20.8948   13.5036  -28.6722 H         1 BZ9         0.0363
     53 H17       -20.7786   11.7638  -29.1033 H         1 BZ9         0.0363
     54 H18       -22.1866   12.7335  -29.6543 H         1 BZ9         0.0363
     55 H19       -19.5420   14.9400  -29.9145 H         1 BZ9         0.0429
     56 H20       -19.2950   11.4914  -36.2334 H         1 BZ9         0.0584
     57 H21       -17.5887   14.9220  -34.3213 H         1 BZ9         0.0606
     58 H22       -17.4663   15.7516  -30.9678 H         1 BZ9         0.2210
     59 H23       -16.0658   17.2078  -32.7197 H         1 BZ9         0.2312
@<TRIPOS>BOND
     1   34    1 2  
     2    1   36 1  
     3    2    3 ar 
     4    2   35 1  
     5   36    2 ar 
     6    3    4 ar 
     7    5    4 ar 
     8    6    5 ar 
     9   36    6 ar 
    10    7    9 ar 
    11    7   10 ar 
    12   32    7 ar 
    13    8   30 ar 
    14   31    8 ar 
    15    9   30 ar 
    16   10   26 1  
    17   27   10 ar 
    18   11   29 ar 
    19   11   32 ar 
    20   33   11 1  
    21   12   13 ar 
    22   15   12 ar 
    23   12   16 1  
    24   13   24 ar 
    25   14   24 ar 
    26   25   14 ar 
    27   15   25 ar 
    28   26   15 1  
    29   16   20 ar 
    30   16   23 ar 
    31   18   17 1  
    32   19   18 1  
    33   20   19 ar 
    34   19   21 ar 
    35   22   21 ar 
    36   23   22 ar 
    37   27   28 1  
    38   29   27 ar 
    39   32   31 ar 
    40   33   34 1  
    41   34   35 1  
    42    3   37 1  
    43    4   38 1  
    44    5   39 1  
    45    6   40 1  
    46    8   41 1  
    47    9   42 1  
    48   13   43 1  
    49   14   44 1  
    50   17   45 1  
    51   17   46 1  
    52   17   47 1  
    53   18   48 1  
    54   22   49 1  
    55   23   50 1  
    56   24   51 1  
    57   28   52 1  
    58   28   53 1  
    59   28   54 1  
    60   29   55 1  
    61   30   56 1  
    62   31   57 1  
    63   33   58 1  
    64   35   59 1  
@<TRIPOS>SUBSTRUCTURE
     1 BZ9         1

