### 
### Created by X-TOOL on Mon Sep 10 21:13:00 2018
### 

@<TRIPOS>MOLECULE
3da9_ligand
   58    60     1     0     0
SMALL
GAST_HUCK


@<TRIPOS>ATOM
      1 C1         12.3680   -9.6120   20.9670 C.3       1 44U        -0.0635
      2 C2         13.8190   -9.7540   21.4300 C.3       1 44U        -0.0356
      3 C3         14.6080  -10.5260   20.3690 C.3       1 44U         0.0307
      4 C7         18.0940  -11.9150   21.1850 C.3       1 44U         0.1338
      5 C9         19.1180  -11.9150   20.0260 C.3       1 44U        -0.0104
      6 C10        20.2430  -12.8380   20.5760 C.3       1 44U        -0.0281
      7 C11        19.4040  -13.9100   21.3130 C.3       1 44U         0.0371
      8 C13        17.4560  -13.6380   22.9020 C.2       1 44U         0.2336
      9 C15        17.7290  -14.9700   23.5520 C.3       1 44U         0.0866
     10 C19        18.6010  -17.2540   25.3790 C.ar      1 44U        -0.0577
     11 C20        18.5180  -18.3870   26.1880 C.ar      1 44U        -0.0682
     12 C21        17.9700  -18.2900   27.4660 C.ar      1 44U        -0.0685
     13 C22        17.5220  -17.0590   27.9360 C.ar      1 44U        -0.0682
     14 C24        19.6440  -14.1980   25.0770 C.ar      1 44U        -0.0211
     15 C27        22.2420  -13.1420   25.2250 C.ar      1 44U        -0.0685
     16 N4         15.9920  -10.6640   20.8190 N.am      1 44U        -0.2851
     17 C5         16.6700  -11.8280   20.6760 C.2       1 44U         0.2019
     18 O6         16.1580  -12.8160   20.1620 O.2       1 44U        -0.3945
     19 N12        18.2500  -13.1920   21.9080 N.am      1 44U        -0.2468
     20 O14        16.5110  -12.9810   23.3160 O.2       1 44U        -0.3901
     21 C17        18.2290  -14.7630   25.0000 C.3       1 44U         0.0858
     22 C18        18.1420  -16.0200   25.8480 C.ar      1 44U        -0.0211
     23 C23        17.6130  -15.9280   27.1250 C.ar      1 44U        -0.0577
     24 C25        20.6890  -14.7470   24.3330 C.ar      1 44U        -0.0577
     25 C26        21.9760  -14.2260   24.4040 C.ar      1 44U        -0.0682
     26 C28        21.2100  -12.5910   25.9820 C.ar      1 44U        -0.0682
     27 C29        19.9220  -13.1170   25.9120 C.ar      1 44U        -0.0577
     28 N30        16.4940  -15.7640   23.4780 N.4       1 44U         0.2410
     29 H1         11.7940   -9.0580   21.7244 H         1 44U         0.0230
     30 H2         11.9272  -10.6105   20.8308 H         1 44U         0.0230
     31 H3         12.3394   -9.0653   20.0129 H         1 44U         0.0230
     32 H4         13.8499  -10.3017   22.3835 H         1 44U         0.0282
     33 H5         14.2621   -8.7564   21.5656 H         1 44U         0.0282
     34 H6         14.5820   -9.9766   19.4164 H         1 44U         0.0520
     35 H7         14.1634  -11.5225   20.2299 H         1 44U         0.0520
     36 H8         18.2955  -11.0677   21.8569 H         1 44U         0.0802
     37 H9         19.4959  -10.9010   19.8286 H         1 44U         0.0313
     38 H10        18.6783  -12.3280   19.1062 H         1 44U         0.0313
     39 H11        20.9076  -12.2986   21.2669 H         1 44U         0.0287
     40 H12        20.8388  -13.2786   19.7631 H         1 44U         0.0287
     41 H13        20.0035  -14.3885   22.1014 H         1 44U         0.0524
     42 H14        19.0535  -14.6745   20.6039 H         1 44U         0.0524
     43 H15        18.5166  -15.4925   22.9893 H         1 44U         0.1149
     44 H16        19.0228  -17.3307   24.3834 H         1 44U         0.0561
     45 H17        18.8792  -19.3418   25.8234 H         1 44U         0.0600
     46 H18        17.8930  -19.1714   28.0924 H         1 44U         0.0561
     47 H19        17.1024  -16.9793   28.9323 H         1 44U         0.0600
     48 H20        23.2421  -12.7271   25.2778 H         1 44U         0.0561
     49 H21        16.4486   -9.8813   21.2420 H         1 44U         0.1851
     50 H22        17.5590  -14.0187   25.4550 H         1 44U         0.0701
     51 H23        17.2673  -14.9701   27.4966 H         1 44U         0.0561
     52 H24        20.4937  -15.5957   23.6875 H         1 44U         0.0561
     53 H25        22.7723  -14.6683   23.8164 H         1 44U         0.0600
     54 H26        21.4111  -11.7461   26.6307 H         1 44U         0.0600
     55 H27        19.1301  -12.6825   26.5113 H         1 44U         0.0561
     56 H28        16.2171  -15.8655   22.5141 H         1 44U         0.2018
     57 H29        15.7626  -15.2962   23.9902 H         1 44U         0.2018
     58 H30        16.6555  -16.6746   23.8789 H         1 44U         0.2018
@<TRIPOS>BOND
     1    2    1 1  
     2    3    2 1  
     3   16    3 1  
     4    4    5 1  
     5    4   17 1  
     6   19    4 1  
     7    6    5 1  
     8    7    6 1  
     9   19    7 1  
    10    9    8 1  
    11    8   19 am 
    12    8   20 2  
    13   21    9 1  
    14    9   28 1  
    15   10   11 ar 
    16   22   10 ar 
    17   11   12 ar 
    18   13   12 ar 
    19   23   13 ar 
    20   14   21 1  
    21   24   14 ar 
    22   14   27 ar 
    23   25   15 ar 
    24   15   26 ar 
    25   17   16 am 
    26   17   18 2  
    27   21   22 1  
    28   22   23 ar 
    29   24   25 ar 
    30   26   27 ar 
    31    1   29 1  
    32    1   30 1  
    33    1   31 1  
    34    2   32 1  
    35    2   33 1  
    36    3   34 1  
    37    3   35 1  
    38    4   36 1  
    39    5   37 1  
    40    5   38 1  
    41    6   39 1  
    42    6   40 1  
    43    7   41 1  
    44    7   42 1  
    45    9   43 1  
    46   10   44 1  
    47   11   45 1  
    48   12   46 1  
    49   13   47 1  
    50   15   48 1  
    51   16   49 1  
    52   21   50 1  
    53   23   51 1  
    54   24   52 1  
    55   25   53 1  
    56   26   54 1  
    57   27   55 1  
    58   28   56 1  
    59   28   57 1  
    60   28   58 1  
@<TRIPOS>SUBSTRUCTURE
     1 44U         1

