### 
### Created by X-TOOL on Mon Sep 10 21:12:59 2018
### 

@<TRIPOS>MOLECULE
3daj_ligand
   54    56     1     0     0
SMALL
GAST_HUCK


@<TRIPOS>ATOM
      1 O18        73.1820   22.8950    7.8020 O.2       1 FXG        -0.3849
      2 C16        72.5920   22.0780    7.1100 C.2       1 FXG         0.2036
      3 C15        71.2610   21.5100    7.5540 C.3       1 FXG         0.0432
      4 C14        70.4200   22.5610    8.2730 C.3       1 FXG        -0.0355
      5 C13        69.3260   23.1030    7.3630 C.3       1 FXG        -0.0491
      6 C12        69.7120   24.4670    6.8050 C.3       1 FXG        -0.0322
      7 C11        68.5820   25.0450    5.9640 C.3       1 FXG         0.0297
      8 N10        68.9530   24.7540    4.5850 N.pl3     1 FXG        -0.3012
      9 C6         68.1410   25.0770    3.5450 C.ar      1 FXG         0.1323
     10 C1         68.5330   24.7830    2.2450 C.ar      1 FXG         0.1044
     11 C2         67.6800   25.1320    1.2210 C.ar      1 FXG         0.1567
     12 N9         68.2170   24.7710    0.0430 N.pl3     1 FXG        -0.2361
     13 C8         69.4120   24.1980    0.3300 C.2       1 FXG         0.1072
     14 N7         69.6080   24.2030    1.6740 N.2       1 FXG        -0.2960
     15 N3         66.4880   25.7390    1.4390 N.ar      1 FXG        -0.2715
     16 C4         66.1390   26.0100    2.7080 C.ar      1 FXG         0.0533
     17 N5         66.9440   25.6890    3.7390 N.ar      1 FXG        -0.2696
     18 N17        73.0500   21.6220    5.9420 N.am      1 FXG        -0.2331
     19 C19        74.2710   22.0190    5.3660 C.ar      1 FXG         0.0715
     20 C20        74.6090   23.3650    5.2020 C.ar      1 FXG        -0.0370
     21 C21        75.8290   23.7220    4.6240 C.ar      1 FXG        -0.0700
     22 C22        76.7150   22.7300    4.2020 C.ar      1 FXG        -0.0583
     23 C23        76.3820   21.3830    4.3620 C.ar      1 FXG         0.0300
     24 C24        75.1600   21.0330    4.9400 C.ar      1 FXG        -0.0226
     25 C25        77.3270   20.3060    3.9100 C.2       1 FXG         0.2091
     26 O27        78.6230   20.3940    4.2070 O.2       1 FXG        -0.3624
     27 N26        76.8770   19.3250    3.2500 N.2       1 FXG        -0.1971
     28 C28        77.5900   18.4270    2.8590 C.1       1 FXG        -0.0035
     29 C29        78.3080   17.4760    2.4630 C.2       1 FXG         0.0255
     30 C30        78.3650   16.2320    3.2270 C.2       1 FXG        -0.0307
     31 C31        77.4470   15.2980    3.0480 C.2       1 FXG        -0.0723
     32 H1         71.4414   20.6671    8.2373 H         1 FXG         0.0508
     33 H2         70.7108   21.1544    6.6704 H         1 FXG         0.0508
     34 H3         71.0714   23.3905    8.5852 H         1 FXG         0.0290
     35 H4         69.9563   22.1050    9.1601 H         1 FXG         0.0290
     36 H5         68.3935   23.1997    7.9384 H         1 FXG         0.0267
     37 H6         69.1713   22.4029    6.5288 H         1 FXG         0.0267
     38 H7         70.6097   24.3597    6.1784 H         1 FXG         0.0285
     39 H8         69.9268   25.1507    7.6395 H         1 FXG         0.0285
     40 H9         68.4988   26.1305    6.1214 H         1 FXG         0.0525
     41 H10        67.6260   24.5635    6.2172 H         1 FXG         0.0525
     42 H11        69.8535   24.2918    4.3942 H         1 FXG         0.1856
     43 H12        67.8035   24.9032   -0.8911 H         1 FXG         0.2393
     44 H13        70.1079   23.7955   -0.4046 H         1 FXG         0.1346
     45 H14        65.1908   26.4966    2.9059 H         1 FXG         0.0996
     46 H15        72.4911   20.9575    5.4459 H         1 FXG         0.2256
     47 H16        73.9199   24.1367    5.5255 H         1 FXG         0.0537
     48 H17        76.0873   24.7678    4.5034 H         1 FXG         0.0589
     49 H18        77.6613   23.0047    3.7502 H         1 FXG         0.0538
     50 H19        74.9007   19.9872    5.0584 H         1 FXG         0.0550
     51 H20        78.8895   17.5787    1.5480 H         1 FXG         0.0872
     52 H21        79.1668   16.0737    3.9467 H         1 FXG         0.0734
     53 H22        77.4934   14.3723    3.6197 H         1 FXG         0.0775
     54 H23        76.6443   15.4542    2.3289 H         1 FXG         0.0775
@<TRIPOS>BOND
     1    1    2 2  
     2    2    3 1  
     3    2   18 am 
     4    3    4 1  
     5    4    5 1  
     6    5    6 1  
     7    6    7 1  
     8    7    8 1  
     9    8    9 1  
    10    9   10 ar 
    11    9   17 ar 
    12   10   11 ar 
    13   10   14 1  
    14   11   12 1  
    15   11   15 ar 
    16   12   13 1  
    17   13   14 2  
    18   15   16 ar 
    19   16   17 ar 
    20   18   19 1  
    21   19   20 ar 
    22   19   24 ar 
    23   20   21 ar 
    24   21   22 ar 
    25   22   23 ar 
    26   23   24 ar 
    27   23   25 1  
    28   25   26 2  
    29   25   27 1  
    30   27   28 2  
    31   28   29 2  
    32   29   30 1  
    33   30   31 2  
    34    3   32 1  
    35    3   33 1  
    36    4   34 1  
    37    4   35 1  
    38    5   36 1  
    39    5   37 1  
    40    6   38 1  
    41    6   39 1  
    42    7   40 1  
    43    7   41 1  
    44    8   42 1  
    45   12   43 1  
    46   13   44 1  
    47   16   45 1  
    48   18   46 1  
    49   20   47 1  
    50   21   48 1  
    51   22   49 1  
    52   24   50 1  
    53   29   51 1  
    54   30   52 1  
    55   31   53 1  
    56   31   54 1  
@<TRIPOS>SUBSTRUCTURE
     1 FXG         1

