### 
### Created by X-TOOL on Mon Sep 10 21:12:59 2018
### 

@<TRIPOS>MOLECULE
3daz_ligand
   23    23     1     0     0
SMALL
GAST_HUCK


@<TRIPOS>ATOM
      1 N1         -5.5550   -0.4510   16.4680 N.am      1 MZM        -0.2493
      2 S1         -6.0000    0.5600   16.8090 S.o2      1 MZM         0.1310
      3 O1         -7.1860    0.6660   16.6850 O.2       1 MZM        -0.1365
      4 O2         -5.5980    0.6550   17.8500 O.2       1 MZM        -0.1365
      5 C1         -5.1700    1.7910   15.9800 C.2       1 MZM         0.3379
      6 S2         -6.1000    2.9520   15.1060 S.3       1 MZM         0.1839
      7 C2         -4.6230    3.6330   14.5910 C.2       1 MZM         0.3501
      8 N2         -3.5950    3.0800   15.0830 N.2       1 MZM        -0.1996
      9 C5         -2.2030    3.5200   14.8140 C.3       1 MZM         0.0349
     10 N3         -3.8850    1.9760   15.8510 N.2       1 MZM        -0.1220
     11 N4         -4.7950    4.7370   13.7670 N.am      1 MZM        -0.1240
     12 C3         -5.6410    5.4330   13.2030 C.2       1 MZM         0.2781
     13 O3         -5.5900    6.4180   12.4610 O.2       1 MZM        -0.3375
     14 C4         -6.8890    4.9640   13.5470 C.3       1 MZM         0.0502
     15 H1         -5.7522   -0.8006   15.5521 H         1 MZM         0.1646
     16 H2         -4.9729   -0.9760   17.0890 H         1 MZM         0.1646
     17 H3         -1.5017    2.8732   15.3617 H         1 MZM         0.0456
     18 H4         -2.0769    4.5612   15.1458 H         1 MZM         0.0456
     19 H5         -1.9988    3.4516   13.7353 H         1 MZM         0.0456
     20 H6         -3.8918    5.1068   13.5490 H         1 MZM         0.3258
     21 H7         -7.6591    5.5740   13.0522 H         1 MZM         0.0490
     22 H8         -7.0165    5.0268   14.6378 H         1 MZM         0.0490
     23 H9         -6.9885    3.9167   13.2258 H         1 MZM         0.0490
@<TRIPOS>BOND
     1    1    2 am 
     2    2    3 2  
     3    2    4 2  
     4    2    5 1  
     5    5    6 1  
     6    5   10 2  
     7    6    7 1  
     8    7    8 2  
     9    7   11 1  
    10    8    9 1  
    11    8   10 1  
    12   11   12 am 
    13   12   13 2  
    14   12   14 1  
    15    1   15 1  
    16    1   16 1  
    17    9   17 1  
    18    9   18 1  
    19    9   19 1  
    20   11   20 1  
    21   14   21 1  
    22   14   22 1  
    23   14   23 1  
@<TRIPOS>SUBSTRUCTURE
     1 MZM         1

