### 
### Created by X-TOOL on Mon Sep 10 21:12:59 2018
### 

@<TRIPOS>MOLECULE
3db6_ligand
   51    54     1     0     0
SMALL
GAST_HUCK


@<TRIPOS>ATOM
      1 N33        86.2890   78.3940   18.5340 N.2       1 FRS        -0.2104
      2 N29        89.2510   80.1200   17.9930 N.pl3     1 FRS        -0.2080
      3 C30        88.2350   79.3040   18.4100 C.2       1 FRS         0.2590
      4 C28        90.4220   80.3810   18.6430 C.ar      1 FRS         0.1414
      5 C27        90.7750   79.8200   19.8710 C.ar      1 FRS         0.0275
      6 C23        92.0110   80.1580   20.4340 C.ar      1 FRS         0.1149
      7 C20        92.1640   77.3390   22.2990 C.3       1 FRS         0.0053
      8 C15        90.3260   75.5460   25.2250 C.2       1 FRS         0.1994
      9 C12        88.2600   75.5800   26.4120 C.2       1 FRS         0.3493
     10 C10        86.3050   75.4140   27.7290 C.2       1 FRS         0.1331
     11 C5         85.8570   75.8370   28.9540 C.2       1 FRS         0.1795
     12 C6         86.4260   76.0560   30.3080 C.3       1 FRS         0.3228
     13 C3         85.2990   75.3730   26.7510 C.2       1 FRS         0.0349
     14 C2         84.1890   75.7950   27.4610 C.2       1 FRS         0.1462
     15 C1         82.7730   75.9970   27.0830 C.3       1 FRS         0.0279
     16 O13        87.8120   76.4930   25.7380 O.2       1 FRS        -0.3666
     17 N11        87.5460   75.0300   27.4020 N.am      1 FRS        -0.1829
     18 F9         87.5920   76.6660   30.2360 F         1 FRS        -0.2999
     19 F8         86.5840   74.8820   30.8820 F         1 FRS        -0.2999
     20 F7         85.6070   76.7890   31.0380 F         1 FRS        -0.2999
     21 O4         84.5100   76.0680   28.7700 O.3       1 FRS        -0.2309
     22 N14        89.4840   75.0890   26.1930 N.am      1 FRS        -0.1744
     23 N17        91.5070   74.9660   25.1240 N.2       1 FRS        -0.3387
     24 C18        92.2380   75.5470   24.0930 C.2       1 FRS        -0.0516
     25 C19        91.5860   76.5610   23.4310 C.2       1 FRS         0.0145
     26 S16        90.0110   76.8190   24.0970 S.3       1 FRS         0.0180
     27 C21        91.5570   78.7310   22.3600 C.3       1 FRS         0.0374
     28 N22        92.4160   79.6420   21.6230 N.pl3     1 FRS        -0.3025
     29 N26        91.2900   81.2320   18.0460 N.ar      1 FRS        -0.2642
     30 C25        92.4670   81.5440   18.6070 C.ar      1 FRS         0.0590
     31 N24        92.8300   81.0160   19.7840 N.ar      1 FRS        -0.2678
     32 N35        87.0260   79.3680   17.8390 N.pl3     1 FRS        -0.1732
     33 C32        87.1080   77.8230   19.4590 C.2       1 FRS         0.0411
     34 N31        88.3400   78.3900   19.3880 N.2       1 FRS        -0.2838
     35 H1         89.1168   80.5902   17.0864 H         1 FRS         0.2266
     36 H2         90.1050   79.1358   20.3790 H         1 FRS         0.0572
     37 H3         91.9112   76.8584   21.3424 H         1 FRS         0.0436
     38 H4         93.2576   77.3991   22.4015 H         1 FRS         0.0436
     39 H5         85.3731   75.0837   25.7037 H         1 FRS         0.0421
     40 H6         82.2062   76.3469   27.9584 H         1 FRS         0.0556
     41 H7         82.3491   75.0462   26.7278 H         1 FRS         0.0556
     42 H8         82.7109   76.7482   26.2819 H         1 FRS         0.0556
     43 H9         87.9635   74.2892   27.9282 H         1 FRS         0.2547
     44 H10        89.8007   74.3404   26.7755 H         1 FRS         0.2398
     45 H11        93.2449   75.2251   23.8313 H         1 FRS         0.0346
     46 H12        91.4824   79.0575   23.4077 H         1 FRS         0.0543
     47 H13        90.5545   78.7187   21.9074 H         1 FRS         0.0543
     48 H14        93.3378   79.8980   22.0047 H         1 FRS         0.1836
     49 H15        93.1342   82.2328   18.1016 H         1 FRS         0.1047
     50 H16        86.7117   79.9828   17.0747 H         1 FRS         0.2564
     51 H17        86.8195   77.0325   20.1502 H         1 FRS         0.0814
@<TRIPOS>BOND
     1   32    1 1  
     2    1   33 2  
     3    2    3 1  
     4    4    2 1  
     5    3   32 1  
     6    3   34 2  
     7    5    4 ar 
     8    4   29 ar 
     9    6    5 ar 
    10   28    6 1  
    11    6   31 ar 
    12    7   25 1  
    13   27    7 1  
    14    8   22 1  
    15    8   23 2  
    16   26    8 1  
    17    9   16 2  
    18    9   17 am 
    19   22    9 am 
    20   10   11 2  
    21   10   13 1  
    22   17   10 1  
    23   11   12 1  
    24   11   21 1  
    25   12   18 1  
    26   12   19 1  
    27   12   20 1  
    28   13   14 2  
    29   14   15 1  
    30   14   21 1  
    31   24   23 1  
    32   25   24 2  
    33   25   26 1  
    34   27   28 1  
    35   29   30 ar 
    36   30   31 ar 
    37   33   34 1  
    38    2   35 1  
    39    5   36 1  
    40    7   37 1  
    41    7   38 1  
    42   13   39 1  
    43   15   40 1  
    44   15   41 1  
    45   15   42 1  
    46   17   43 1  
    47   22   44 1  
    48   24   45 1  
    49   27   46 1  
    50   27   47 1  
    51   28   48 1  
    52   30   49 1  
    53   32   50 1  
    54   33   51 1  
@<TRIPOS>SUBSTRUCTURE
     1 FRS         1

