### 
### Created by X-TOOL on Mon Sep 10 21:12:59 2018
### 

@<TRIPOS>MOLECULE
3db8_ligand
   51    54     1     0     0
SMALL
GAST_HUCK


@<TRIPOS>ATOM
      1 C28       118.7340   57.0660   42.6340 C.ar      1 1FR        -0.0582
      2 C27       119.0730   58.3360   43.1060 C.ar      1 1FR        -0.0685
      3 C26       119.8180   58.4830   44.2760 C.ar      1 1FR        -0.0687
      4 C24       119.8760   56.0900   44.5140 C.ar      1 1FR        -0.0582
      5 C23       119.1340   55.9260   43.3380 C.ar      1 1FR        -0.0189
      6 C22       118.8000   54.5410   42.8860 C.3       1 1FR         0.0667
      7 C17       117.7010   58.7540   47.1490 C.3       1 1FR        -0.0174
      8 C15       115.7900   57.7220   45.8320 C.ar      1 1FR        -0.0537
      9 C12       114.2060   57.6080   48.1150 C.ar      1 1FR         0.0333
     10 C13       115.4990   58.1240   48.1880 C.ar      1 1FR        -0.0476
     11 C14       116.2980   58.1870   47.0470 C.ar      1 1FR        -0.0435
     12 C11       113.6970   57.1510   46.9020 C.ar      1 1FR        -0.0478
     13 C10       114.4930   57.2010   45.7580 C.ar      1 1FR        -0.0127
     14 C8        113.9500   56.7110   44.4570 C.2       1 1FR         0.0862
     15 C4        114.7160   55.9710   43.4040 C.ar      1 1FR         0.0377
     16 C5        113.8300   55.7250   42.3920 C.ar      1 1FR         0.1765
     17 C6        114.2100   55.0470   41.2380 C.ar      1 1FR         0.0393
     18 C3        116.0270   55.5400   43.3050 C.ar      1 1FR        -0.0200
     19 C2        116.4010   54.8600   42.1390 C.ar      1 1FR         0.1008
     20 CL        113.1970   57.5350   49.5950 Cl        1 1FR        -0.0728
     21 C18       117.7890   60.1280   46.4830 C.3       1 1FR        -0.0200
     22 C19       117.3250   61.2490   47.4050 C.3       1 1FR         0.0460
     23 O20       116.1840   61.9040   46.8310 O.3       1 1FR        -0.3948
     24 O21       112.5670   56.2490   42.7240 O.3       1 1FR        -0.1581
     25 N9        112.6620   56.8650   44.0230 N.2       1 1FR        -0.1191
     26 N1        115.4890   54.6320   41.1470 N.ar      1 1FR        -0.2906
     27 N7        117.6750   54.4160   41.9540 N.pl3     1 1FR        -0.3012
     28 C29       120.0120   53.9160   42.2000 C.3       1 1FR        -0.0326
     29 C25       120.2210   57.3570   44.9880 C.ar      1 1FR        -0.0685
     30 H1        118.1598   56.9639   41.7203 H         1 1FR         0.0557
     31 H2        118.7543   59.2154   42.5581 H         1 1FR         0.0599
     32 H3        120.0827   59.4727   44.6302 H         1 1FR         0.0559
     33 H4        120.1897   55.2133   45.0690 H         1 1FR         0.0557
     34 H5        118.5559   53.9565   43.7853 H         1 1FR         0.0709
     35 H6        118.4028   58.0682   46.6519 H         1 1FR         0.0426
     36 H7        117.9730   58.8511   48.2104 H         1 1FR         0.0426
     37 H8        116.4045   57.7649   44.9400 H         1 1FR         0.0549
     38 H9        115.8853   58.4782   49.1369 H         1 1FR         0.0553
     39 H10       112.6880   56.7587   46.8473 H         1 1FR         0.0562
     40 H11       113.5015   54.8590   40.4394 H         1 1FR         0.0770
     41 H12       116.7394   55.7221   44.1015 H         1 1FR         0.0554
     42 H13       117.1566   60.1259   45.5829 H         1 1FR         0.0309
     43 H14       118.8343   60.3158   46.1964 H         1 1FR         0.0309
     44 H15       118.1389   61.9776   47.5336 H         1 1FR         0.0559
     45 H16       117.0514   60.8282   48.3838 H         1 1FR         0.0559
     46 H17       115.8974   62.6020   47.4081 H         1 1FR         0.2094
     47 H18       117.8697   53.9402   41.0615 H         1 1FR         0.1792
     48 H19       120.8860   53.9862   42.8643 H         1 1FR         0.0274
     49 H20       120.2199   54.4526   41.2625 H         1 1FR         0.0274
     50 H21       119.8036   52.8588   41.9789 H         1 1FR         0.0274
     51 H22       120.7964   57.4627   45.9006 H         1 1FR         0.0599
@<TRIPOS>BOND
     1    1    2 ar 
     2    5    1 ar 
     3    2    3 ar 
     4   29    3 ar 
     5    5    4 ar 
     6    4   29 ar 
     7    6    5 1  
     8   27    6 1  
     9    6   28 1  
    10   11    7 1  
    11    7   21 1  
    12    8   11 ar 
    13   13    8 ar 
    14    9   10 ar 
    15   12    9 ar 
    16    9   20 1  
    17   11   10 ar 
    18   13   12 ar 
    19   14   13 1  
    20   15   14 1  
    21   14   25 2  
    22   15   16 ar 
    23   18   15 ar 
    24   17   16 ar 
    25   16   24 1  
    26   26   17 ar 
    27   19   18 ar 
    28   19   26 ar 
    29   19   27 1  
    30   21   22 1  
    31   22   23 1  
    32   24   25 1  
    33    1   30 1  
    34    2   31 1  
    35    3   32 1  
    36    4   33 1  
    37    6   34 1  
    38    7   35 1  
    39    7   36 1  
    40    8   37 1  
    41   10   38 1  
    42   12   39 1  
    43   17   40 1  
    44   18   41 1  
    45   21   42 1  
    46   21   43 1  
    47   22   44 1  
    48   22   45 1  
    49   23   46 1  
    50   27   47 1  
    51   28   48 1  
    52   28   49 1  
    53   28   50 1  
    54   29   51 1  
@<TRIPOS>SUBSTRUCTURE
     1 1FR         1

