### 
### Created by X-TOOL on Mon Sep 10 21:12:59 2018
### 

@<TRIPOS>MOLECULE
3dbd_ligand
   59    63     1     0     0
SMALL
GAST_HUCK


@<TRIPOS>ATOM
      1 C31        60.0740   14.7270   48.1870 C.ar      1 3FR        -0.0563
      2 C30        58.8380   15.0890   48.7180 C.ar      1 3FR        -0.0571
      3 C28        59.0490   17.2880   47.7210 C.ar      1 3FR        -0.0008
      4 C26        57.1640   23.3860   42.1510 C.3       1 3FR        -0.0216
      5 C24        53.7330   15.1370   42.8240 C.3       1 3FR        -0.0322
      6 C23        58.1150   19.0960   46.2260 C.ar      1 3FR        -0.0210
      7 C22        58.4740   18.6480   47.5030 C.ar      1 3FR        -0.0201
      8 C17        57.1230   22.2720   43.1610 C.2       1 3FR         0.0354
      9 C20        57.7570   20.7440   48.4090 C.ar      1 3FR         0.0357
     10 C12        56.3810   21.0380   42.7810 C.ar      1 3FR         0.0348
     11 C13        55.6840   20.6850   41.6280 C.ar      1 3FR         0.0001
     12 C11        56.4860   20.1720   43.8610 C.ar      1 3FR         0.1093
     13 C10        55.8690   18.9280   43.7710 C.ar      1 3FR         0.0077
     14 C9         55.1740   18.5920   42.6000 C.ar      1 3FR         0.1022
     15 C7         54.5130   16.3070   43.4200 C.3       1 3FR         0.0681
     16 C4         55.9990   15.2720   45.1260 C.ar      1 3FR        -0.0582
     17 C5         55.8600   15.8380   43.8570 C.ar      1 3FR        -0.0186
     18 C6         56.9870   15.9540   43.0360 C.ar      1 3FR        -0.0582
     19 C3         57.2440   14.8240   45.5650 C.ar      1 3FR        -0.0685
     20 C2         58.3630   14.9440   44.7430 C.ar      1 3FR        -0.0687
     21 C1         58.2340   15.5120   43.4770 C.ar      1 3FR        -0.0685
     22 O36        61.6730   18.8090   46.9240 O.2       1 3FR        -0.3855
     23 C34        61.1000   17.8840   46.3720 C.2       1 3FR         0.2022
     24 N35        61.1700   17.6980   45.0550 N.am      1 3FR        -0.3003
     25 C33        60.2890   16.9240   47.1950 C.ar      1 3FR         0.0563
     26 C32        60.7970   15.6450   47.4270 C.ar      1 3FR        -0.0418
     27 C29        58.3300   16.3660   48.4870 C.ar      1 3FR        -0.0490
     28 C21        58.2920   19.4790   48.6030 C.ar      1 3FR        -0.0478
     29 CL         57.5070   21.8430   49.8060 Cl        1 3FR        -0.0728
     30 C19        57.4110   21.1600   47.1260 C.ar      1 3FR        -0.0150
     31 C18        57.5640   20.3660   45.9850 C.ar      1 3FR         0.1034
     32 N15        57.2190   20.8380   44.7730 N.pl3     1 3FR        -0.1628
     33 N16        57.6340   22.1270   44.3980 N.2       1 3FR        -0.2033
     34 N14        55.1020   19.4760   41.5690 N.ar      1 3FR        -0.2932
     35 N8         54.5580   17.3900   42.4410 N.pl3     1 3FR        -0.2985
     36 H1         60.4723   13.7345   48.3643 H         1 3FR         0.0628
     37 H2         58.2723   14.3786   49.3099 H         1 3FR         0.0652
     38 H3         57.7401   24.2297   42.5589 H         1 3FR         0.0393
     39 H4         56.1388   23.7161   41.9274 H         1 3FR         0.0393
     40 H5         57.6431   23.0269   41.2282 H         1 3FR         0.0393
     41 H6         52.7401   15.4843   42.5022 H         1 3FR         0.0274
     42 H7         53.6177   14.3488   43.5826 H         1 3FR         0.0274
     43 H8         54.2793   14.7353   41.9579 H         1 3FR         0.0274
     44 H9         58.2694   18.4317   45.3834 H         1 3FR         0.0576
     45 H10        55.6126   21.3733   40.7936 H         1 3FR         0.0802
     46 H11        55.9248   18.2270   44.5960 H         1 3FR         0.0523
     47 H12        53.9788   16.6741   44.3088 H         1 3FR         0.0713
     48 H13        55.1342   15.1805   45.7732 H         1 3FR         0.0557
     49 H14        56.8900   16.3911   42.0488 H         1 3FR         0.0557
     50 H15        57.3421   14.3807   46.5493 H         1 3FR         0.0599
     51 H16        59.3304   14.5967   45.0872 H         1 3FR         0.0559
     52 H17        59.1023   15.6102   42.8355 H         1 3FR         0.0599
     53 H18        60.6888   16.9301   44.6322 H         1 3FR         0.1807
     54 H19        61.7037   18.3263   44.4890 H         1 3FR         0.1807
     55 H20        61.7590   15.3639   47.0140 H         1 3FR         0.0670
     56 H21        57.3698   16.6465   48.9046 H         1 3FR         0.0635
     57 H22        58.5641   19.1433   49.5971 H         1 3FR         0.0561
     58 H23        56.9998   22.1556   47.0048 H         1 3FR         0.0578
     59 H24        54.0773   17.2279   41.5446 H         1 3FR         0.1819
@<TRIPOS>BOND
     1    2    1 ar 
     2   26    1 ar 
     3   27    2 ar 
     4    7    3 1  
     5    3   25 ar 
     6    3   27 ar 
     7    8    4 1  
     8   15    5 1  
     9    6    7 ar 
    10   31    6 ar 
    11    7   28 ar 
    12   10    8 1  
    13    8   33 2  
    14    9   28 ar 
    15    9   29 1  
    16   30    9 ar 
    17   10   11 ar 
    18   12   10 ar 
    19   11   34 ar 
    20   12   13 ar 
    21   32   12 1  
    22   13   14 ar 
    23   14   34 ar 
    24   14   35 1  
    25   15   17 1  
    26   35   15 1  
    27   17   16 ar 
    28   16   19 ar 
    29   17   18 ar 
    30   18   21 ar 
    31   19   20 ar 
    32   21   20 ar 
    33   23   22 2  
    34   23   24 am 
    35   25   23 1  
    36   25   26 ar 
    37   31   30 ar 
    38   31   32 1  
    39   32   33 1  
    40    1   36 1  
    41    2   37 1  
    42    4   38 1  
    43    4   39 1  
    44    4   40 1  
    45    5   41 1  
    46    5   42 1  
    47    5   43 1  
    48    6   44 1  
    49   11   45 1  
    50   13   46 1  
    51   15   47 1  
    52   16   48 1  
    53   18   49 1  
    54   19   50 1  
    55   20   51 1  
    56   21   52 1  
    57   24   53 1  
    58   24   54 1  
    59   26   55 1  
    60   27   56 1  
    61   28   57 1  
    62   30   58 1  
    63   35   59 1  
@<TRIPOS>SUBSTRUCTURE
     1 3FR         1

