### 
### Created by X-TOOL on Mon Sep 10 21:12:58 2018
### 

@<TRIPOS>MOLECULE
3dbs_ligand
   63    68     1     0     0
SMALL
GAST_HUCK


@<TRIPOS>ATOM
      1 O3         19.6860   59.5250   24.4390 O.3       1 GD9        -0.3757
      2 C4         22.2550   61.7810   22.1080 C.ar      1 GD9         0.1353
      3 C5         21.3750   65.3980   21.3670 C.2       1 GD9         0.0737
      4 C6         22.5920   65.2050   20.8630 C.2       1 GD9        -0.0389
      5 N1         24.1570   63.2850   20.7550 N.ar      1 GD9        -0.3055
      6 C7         20.6910   66.7430   21.2780 C.3       1 GD9         0.0228
      7 C8         25.6090   61.4690   20.6670 C.ar      1 GD9         0.0069
      8 N2         23.4480   61.2570   21.7200 N.ar      1 GD9        -0.2693
      9 C9         19.9210   68.3930   19.6720 C.3       1 GD9        -0.0124
     10 C10        19.5300   68.5240   18.1960 C.3       1 GD9         0.0695
     11 C11        18.8850   66.2070   18.2080 C.3       1 GD9         0.0695
     12 C12        18.9810   66.1720   19.7140 C.3       1 GD9        -0.0124
     13 N3         21.3800   60.9900   22.8100 N.pl3     1 GD9        -0.2855
     14 C13        17.2570   69.1770   15.8700 C.3       1 GD9         0.0734
     15 C14        21.9500   59.8880   23.5830 C.3       1 GD9         0.0548
     16 C15        21.0620   59.6020   24.7890 C.3       1 GD9         0.0681
     17 N4         20.1610   66.9800   19.9550 N.4       1 GD9         0.2545
     18 O2         19.2330   67.3420   15.4530 O.2       1 GD9        -0.1556
     19 S2         18.0130   67.5640   16.2420 S.o2      1 GD9         0.0388
     20 O1         17.0380   66.4970   15.9810 O.2       1 GD9        -0.1556
     21 N5         18.4720   67.5550   17.8980 N.am      1 GD9        -0.2285
     22 S1         20.6610   64.0680   22.1100 S.3       1 GD9        -0.0086
     23 C2         22.9930   63.8290   21.1100 C.ar      1 GD9         0.0272
     24 C1         22.0320   63.1230   21.7860 C.ar      1 GD9         0.0992
     25 C3         24.3750   61.9890   21.0520 C.ar      1 GD9         0.0833
     26 C18        26.2540   61.9140   19.5170 C.ar      1 GD9        -0.0580
     27 C19        27.4900   61.3820   19.1820 C.ar      1 GD9        -0.0653
     28 C20        28.0880   60.4370   19.9900 C.ar      1 GD9        -0.0314
     29 C21        27.4540   60.0120   21.1410 C.ar      1 GD9         0.0913
     30 N6         27.8630   59.0900   22.0790 N.pl3     1 GD9        -0.2116
     31 C22        26.2510   60.5350   21.4380 C.ar      1 GD9         0.0214
     32 C23        25.8280   59.9200   22.6520 C.2       1 GD9         0.0236
     33 N7         26.8030   59.0610   23.0310 N.2       1 GD9        -0.2040
     34 C16        19.2500   60.7430   23.8500 C.3       1 GD9         0.0681
     35 C17        19.9550   60.8890   22.5000 C.3       1 GD9         0.0548
     36 H1         23.1903   65.9558   20.3490 H         1 GD9         0.0317
     37 H2         21.4197   67.5314   21.5178 H         1 GD9         0.1055
     38 H3         19.8656   66.7733   22.0045 H         1 GD9         0.1055
     39 H4         19.1055   68.7672   20.3083 H         1 GD9         0.0831
     40 H5         20.8349   68.9729   19.8684 H         1 GD9         0.0831
     41 H6         20.4060   68.3209   17.5624 H         1 GD9         0.0531
     42 H7         19.1638   69.5425   17.9999 H         1 GD9         0.0531
     43 H8         18.1401   65.4811   17.8499 H         1 GD9         0.0531
     44 H9         19.8612   65.9859   17.7519 H         1 GD9         0.0531
     45 H10        19.1169   65.1447   20.0829 H         1 GD9         0.0831
     46 H11        18.0898   66.6150   20.1825 H         1 GD9         0.0831
     47 H12        17.9860   69.9773   16.0650 H         1 GD9         0.0482
     48 H13        16.3727   69.3233   16.5076 H         1 GD9         0.0482
     49 H14        16.9554   69.2055   14.8126 H         1 GD9         0.0482
     50 H15        22.9579   60.1637   23.9267 H         1 GD9         0.0547
     51 H16        22.0110   58.9897   22.9511 H         1 GD9         0.0547
     52 H17        21.3680   58.6439   25.2344 H         1 GD9         0.0580
     53 H18        21.1952   60.4080   25.5256 H         1 GD9         0.0580
     54 H19        20.8653   66.6731   19.3024 H         1 GD9         0.2056
     55 H20        25.7948   62.6691   18.8893 H         1 GD9         0.0577
     56 H21        27.9902   61.7111   18.2784 H         1 GD9         0.0590
     57 H22        29.0554   60.0281   19.7215 H         1 GD9         0.0593
     58 H23        28.7369   58.5450   22.0899 H         1 GD9         0.2461
     59 H24        24.8928   60.1067   23.1778 H         1 GD9         0.0718
     60 H25        19.5123   61.5890   24.5024 H         1 GD9         0.0580
     61 H26        18.1603   60.7180   23.7021 H         1 GD9         0.0580
     62 H27        19.7608   60.0097   21.8683 H         1 GD9         0.0547
     63 H28        19.6093   61.7960   21.9824 H         1 GD9         0.0547
@<TRIPOS>BOND
     1   16    1 1  
     2    1   34 1  
     3    8    2 ar 
     4    2   13 1  
     5    2   24 ar 
     6    3    4 2  
     7    6    3 1  
     8    3   22 1  
     9    4   23 1  
    10   23    5 ar 
    11    5   25 ar 
    12   17    6 1  
    13   25    7 1  
    14    7   26 ar 
    15    7   31 ar 
    16   25    8 ar 
    17   10    9 1  
    18    9   17 1  
    19   21   10 1  
    20   11   12 1  
    21   21   11 1  
    22   12   17 1  
    23   13   15 1  
    24   13   35 1  
    25   19   14 1  
    26   15   16 1  
    27   19   18 2  
    28   19   20 2  
    29   19   21 am 
    30   22   24 1  
    31   23   24 ar 
    32   26   27 ar 
    33   27   28 ar 
    34   28   29 ar 
    35   29   30 1  
    36   29   31 ar 
    37   30   33 1  
    38   31   32 1  
    39   32   33 2  
    40   34   35 1  
    41    4   36 1  
    42    6   37 1  
    43    6   38 1  
    44    9   39 1  
    45    9   40 1  
    46   10   41 1  
    47   10   42 1  
    48   11   43 1  
    49   11   44 1  
    50   12   45 1  
    51   12   46 1  
    52   14   47 1  
    53   14   48 1  
    54   14   49 1  
    55   15   50 1  
    56   15   51 1  
    57   16   52 1  
    58   16   53 1  
    59   17   54 1  
    60   26   55 1  
    61   27   56 1  
    62   28   57 1  
    63   30   58 1  
    64   32   59 1  
    65   34   60 1  
    66   34   61 1  
    67   35   62 1  
    68   35   63 1  
@<TRIPOS>SUBSTRUCTURE
     1 GD9         1

