### 
### Created by X-TOOL on Mon Sep 10 21:12:59 2018
### 

@<TRIPOS>MOLECULE
3dbu_ligand
   27    28     1     0     0
SMALL
GAST_HUCK


@<TRIPOS>ATOM
      1 C1         -3.7420    7.3070   14.8980 C.ar      1 D8W        -0.0344
      2 C2         -2.6920    8.1510   15.2590 C.ar      1 D8W        -0.0599
      3 C3         -1.8840    8.6900   14.2660 C.ar      1 D8W        -0.0616
      4 C4         -2.1030    8.4210   12.9200 C.ar      1 D8W        -0.0599
      5 C5         -3.1460    7.5680   12.5600 C.ar      1 D8W        -0.0344
      6 C6         -3.9410    7.0250   13.5560 C.ar      1 D8W         0.1159
      7 S1         -5.1670    6.0530   13.1690 S.o2      1 D8W         0.0983
      8 O1         -6.1580    6.2660   14.2320 O.2       1 D8W        -0.1429
      9 O2         -5.7080    6.4880   11.8610 O.2       1 D8W        -0.1429
     10 N1         -4.5820    4.6730   13.0350 N.am      1 D8W        -0.1424
     11 C7         -4.5930    3.6580   13.9330 C.2       1 D8W         0.2195
     12 S2         -5.8540    3.4340   15.0680 S.3       1 D8W         0.0830
     13 N2         -3.6410    2.6990   14.0260 N.2       1 D8W        -0.2658
     14 N3         -3.9230    1.7500   15.0500 N.2       1 D8W        -0.2520
     15 C8         -5.0860    2.0190   15.6820 C.2       1 D8W         0.2540
     16 S3         -5.8550    0.9830   16.7270 S.o2      1 D8W         0.0983
     17 O3         -5.2900    1.2210   18.0210 O.2       1 D8W        -0.1454
     18 O4         -7.2460    1.2080   16.6850 O.2       1 D8W        -0.1454
     19 N4         -5.5030   -0.5170   16.2880 N.am      1 D8W        -0.2566
     20 H1         -4.3908    6.8793   15.6537 H         1 D8W         0.0637
     21 H2         -2.5087    8.3835   16.3018 H         1 D8W         0.0618
     22 H3         -1.0614    9.3371   14.5481 H         1 D8W         0.0618
     23 H4         -1.4718    8.8681   12.1605 H         1 D8W         0.0618
     24 H5         -3.3315    7.3338   11.5180 H         1 D8W         0.0637
     25 H6         -4.1240    4.4790   12.1675 H         1 D8W         0.2341
     26 H7         -5.8771   -1.2891   16.8017 H         1 D8W         0.1638
     27 H8         -4.9092   -0.6811   15.5003 H         1 D8W         0.1638
@<TRIPOS>BOND
     1    1    2 ar 
     2    1    6 ar 
     3    2    3 ar 
     4    3    4 ar 
     5    4    5 ar 
     6    5    6 ar 
     7    6    7 1  
     8    7    8 2  
     9    7    9 2  
    10    7   10 am 
    11   10   11 1  
    12   11   12 1  
    13   11   13 2  
    14   12   15 1  
    15   13   14 1  
    16   14   15 2  
    17   15   16 1  
    18   16   17 2  
    19   16   18 2  
    20   16   19 am 
    21    1   20 1  
    22    2   21 1  
    23    3   22 1  
    24    4   23 1  
    25    5   24 1  
    26   10   25 1  
    27   19   26 1  
    28   19   27 1  
@<TRIPOS>SUBSTRUCTURE
     1 D8W         1

