### 
### Created by X-TOOL on Mon Sep 10 21:12:58 2018
### 

@<TRIPOS>MOLECULE
3dc2_ligand
   14    13     1     0     0
SMALL
GAST_HUCK


@<TRIPOS>ATOM
      1 O1         26.9070   79.3440   46.9410 O.co2     1 TLA        -0.5662
      2 O11        28.3660   80.8900   47.5810 O.co2     1 TLA        -0.5662
      3 C1         27.1350   80.3900   47.5300 C.2       1 TLA         0.0677
      4 C2         26.0060   81.1200   48.1940 C.3       1 TLA         0.1445
      5 O2         26.4920   82.3430   48.7610 O.3       1 TLA        -0.3733
      6 C3         25.2990   80.2000   49.2160 C.3       1 TLA         0.1445
      7 O3         26.2400   79.5370   50.0710 O.3       1 TLA        -0.3733
      8 C4         24.2620   81.0020   49.9820 C.2       1 TLA         0.0677
      9 O4         23.7920   82.0150   49.4790 O.co2     1 TLA        -0.5662
     10 O41        23.8510   80.6430   51.2010 O.co2     1 TLA        -0.5662
     11 H1         25.2669   81.3833   47.4230 H         1 TLA         0.0809
     12 H2         25.7747   82.8031   49.1808 H         1 TLA         0.2126
     13 H3         24.7659   79.4189   48.6541 H         1 TLA         0.0809
     14 H4         25.7726   78.9820   50.6842 H         1 TLA         0.2126
@<TRIPOS>BOND
     1    1    3 ar 
     2    3    2 ar 
     3    3    4 1  
     4    4    5 1  
     5    4    6 1  
     6    6    7 1  
     7    6    8 1  
     8    8    9 ar 
     9    8   10 ar 
    10    4   11 1  
    11    5   12 1  
    12    6   13 1  
    13    7   14 1  
@<TRIPOS>SUBSTRUCTURE
     1 TLA         1

