### 
### Created by X-TOOL on Mon Sep 10 21:12:59 2018
### 

@<TRIPOS>MOLECULE
3dc3_ligand
   19    19     1     0     0
SMALL
GAST_HUCK


@<TRIPOS>ATOM
      1 C1         -5.1710    2.0530   15.9880 C.2       1 AZM         0.2562
      2 C2         -4.7260    3.8470   14.5620 C.2       1 AZM         0.2252
      3 C3         -5.5320    5.7530   13.2640 C.2       1 AZM         0.2120
      4 C4         -5.2070    6.6980   12.4970 C.3       1 AZM         0.0337
      5 N1         -5.4920   -0.5860   16.3150 N.am      1 AZM        -0.2565
      6 N2         -3.5950    3.2790   15.0570 N.2       1 AZM        -0.2573
      7 N3         -3.8530    2.1680   15.9320 N.2       1 AZM        -0.2476
      8 N4         -4.6410    5.0950   13.9610 N.am      1 AZM        -0.1925
      9 O1         -5.4940    0.9270   18.2800 O.2       1 AZM        -0.1452
     10 O2         -7.3740    1.0210   16.7110 O.2       1 AZM        -0.1452
     11 O3         -6.9800    5.6060   13.5770 O.2       1 AZM        -0.3804
     12 S1         -5.9630    0.8210   16.9040 S.o2      1 AZM         0.0991
     13 S2         -6.0650    3.3190   15.2400 S.3       1 AZM         0.0874
     14 H1         -6.1079    7.1052   12.0147 H         1 AZM         0.0474
     15 H2         -4.5161    6.3242   11.7270 H         1 AZM         0.0474
     16 H3         -4.7133    7.4898   13.0795 H         1 AZM         0.0474
     17 H4         -5.8401   -1.4357   16.7112 H         1 AZM         0.1638
     18 H5         -4.8489   -0.6177   15.5499 H         1 AZM         0.1638
     19 H6         -3.7651    5.5630   14.0785 H         1 AZM         0.2411
@<TRIPOS>BOND
     1    1    7 2  
     2    1   12 1  
     3   13    1 1  
     4    2    6 2  
     5    8    2 1  
     6    2   13 1  
     7    3    4 1  
     8    3    8 am 
     9    3   11 2  
    10   12    5 am 
    11    6    7 1  
    12   12    9 2  
    13   12   10 2  
    14    4   14 1  
    15    4   15 1  
    16    4   16 1  
    17    5   17 1  
    18    5   18 1  
    19    8   19 1  
@<TRIPOS>SUBSTRUCTURE
     1 AZM         1

