### 
### Created by X-TOOL on Mon Sep 10 21:12:59 2018
### 

@<TRIPOS>MOLECULE
3dcc_ligand
   22    23     1     0     0
SMALL
GAST_HUCK


@<TRIPOS>ATOM
      1 O2         -7.4220    0.6900   16.6380 O.2       1 D9Z        -0.1434
      2 S1         -6.0670    0.4700   16.9070 S.o2      1 D9Z         0.1053
      3 O1         -5.6890    0.5920   18.2890 O.2       1 D9Z        -0.1434
      4 N3         -5.4780   -0.9040   16.3560 N.am      1 D9Z        -0.2550
      5 C8         -5.2280    1.6920   16.1710 C.2       1 D9Z         0.2691
      6 S2         -5.8660    2.9570   15.2040 S.3       1 D9Z         0.0659
      7 N2         -3.8990    1.7000   16.3010 N.2       1 D9Z        -0.2135
      8 N1         -3.3540    2.7480   15.5640 N.2       1 D9Z        -0.2363
      9 C7         -4.2460    3.5270   14.9250 C.2       1 D9Z         0.1362
     10 C1         -3.8240    4.6320   14.1700 C.ar      1 D9Z         0.0386
     11 C6         -2.4790    4.9340   14.0500 C.ar      1 D9Z        -0.0448
     12 C2         -4.7470    5.4240   13.5430 C.ar      1 D9Z         0.0574
     13 C3         -4.4270    6.5050   12.7520 C.ar      1 D9Z        -0.0428
     14 C4         -3.0580    6.8110   12.6290 C.ar      1 D9Z        -0.0574
     15 C5         -2.1000    6.0540   13.2730 C.ar      1 D9Z        -0.0566
     16 CL1        -6.4460    5.3330   13.5050 Cl        1 D9Z        -0.0648
     17 H1         -5.6363   -1.1703   15.4052 H         1 D9Z         0.1640
     18 H2         -4.9501   -1.5001   16.9610 H         1 D9Z         0.1640
     19 H3         -1.7300    4.3241   14.5419 H         1 D9Z         0.0663
     20 H4         -5.1893    7.0899   12.2502 H         1 D9Z         0.0634
     21 H5         -2.7519    7.6536   12.0195 H         1 D9Z         0.0649
     22 H6         -1.0527    6.3188   13.1830 H         1 D9Z         0.0629
@<TRIPOS>BOND
     1    1    2 2  
     2    2    3 2  
     3    2    4 am 
     4    2    5 1  
     5    5    6 1  
     6    5    7 2  
     7    6    9 1  
     8    7    8 1  
     9    8    9 2  
    10    9   10 1  
    11   10   11 ar 
    12   10   12 ar 
    13   11   15 ar 
    14   12   13 ar 
    15   12   16 1  
    16   13   14 ar 
    17   14   15 ar 
    18    4   17 1  
    19    4   18 1  
    20   11   19 1  
    21   13   20 1  
    22   14   21 1  
    23   15   22 1  
@<TRIPOS>SUBSTRUCTURE
     1 D9Z         1

