### 
### Created by X-TOOL on Mon Sep 10 21:13:00 2018
### 

@<TRIPOS>MOLECULE
3dcq_ligand
   75    76     1     0     0
SMALL
GAST_HUCK


@<TRIPOS>ATOM
      1 C1         12.1660   45.1090    8.7210 C.3       1 2G0         0.1040
      2 C2         13.0920   44.9160    7.5060 C.3       1 2G0         0.1117
      3 O2         12.4110   44.2120    6.4830 O.3       1 2G0        -0.3864
      4 C3         13.5170   46.3010    6.9930 C.3       1 2G0         0.1118
      5 O3         14.4430   46.1830    5.9230 O.3       1 2G0        -0.3865
      6 C4         14.1670   47.0880    8.0960 C.3       1 2G0         0.1093
      7 O4         15.3930   46.4780    8.4470 O.3       1 2G0        -0.3866
      8 C5         13.2630   47.1590    9.3190 C.3       1 2G0         0.0849
      9 O5         12.8990   45.8220    9.7410 O.3       1 2G0        -0.3660
     10 C6         13.9590   47.8450   10.4830 C.3       1 2G0        -0.0361
     11 C7         10.8310   45.7700    8.3240 C.3       1 2G0         0.0661
     12 C8         10.2380   46.0930    9.6930 C.2       1 2G0         0.1808
     13 O6          9.9270   45.1920   10.4700 O.2       1 2G0        -0.3968
     14 N1         10.0630   47.3750    9.9860 N.am      1 2G0        -0.2656
     15 C9          9.5800   47.7950   11.2940 C.3       1 2G0         0.1308
     16 C10         8.4540   46.9920   11.9220 C.2       1 2G0         0.2064
     17 O7          8.5590   46.5800   13.0850 O.2       1 2G0        -0.3942
     18 C11         9.1960   49.2830   11.2720 C.3       1 2G0        -0.0152
     19 C12        10.4040   50.2090   11.3840 C.3       1 2G0        -0.0610
     20 N3          7.3570   46.7630   11.1720 N.am      1 2G0        -0.2498
     21 C15         6.2200   45.9980   11.7060 C.3       1 2G0         0.1338
     22 C16         6.5030   44.5480   12.0990 C.2       1 2G0         0.2041
     23 O8          5.6520   43.8960   12.7090 O.2       1 2G0        -0.3944
     24 C17         5.1690   46.1070   10.6020 C.3       1 2G0        -0.0104
     25 C18         5.9800   46.3640    9.3530 C.3       1 2G0        -0.0281
     26 C19         7.0720   47.2830    9.8230 C.3       1 2G0         0.0369
     27 N4          7.6820   44.0460   11.7340 N.am      1 2G0        -0.2637
     28 C20         8.0880   42.6830   12.0620 C.3       1 2G0         0.1309
     29 C21         8.7000   42.6690   13.4660 C.2       1 2G0         0.1992
     30 O9          9.0700   43.7670   13.9380 O.2       1 2G0        -0.3947
     31 C22         9.1310   42.1970   11.0470 C.3       1 2G0        -0.0101
     32 C23         8.7330   41.3920    9.8020 C.3       1 2G0        -0.0425
     33 C24         7.2990   41.6060    9.4060 C.3       1 2G0        -0.0625
     34 C25         9.6810   41.7540    8.6820 C.3       1 2G0        -0.0625
     35 N5          8.8320   41.5750   14.0710 N.am      1 2G0        -0.2990
     36 H1         11.9217   44.1147    9.1232 H         1 2G0         0.0648
     37 H2         13.9825   44.3455    7.8086 H         1 2G0         0.0648
     38 H3         12.1430   43.3613    6.8100 H         1 2G0         0.2100
     39 H4         12.6239   46.8379    6.6406 H         1 2G0         0.0647
     40 H5         14.6907   47.0496    5.6231 H         1 2G0         0.2100
     41 H6         14.3614   48.1098    7.7380 H         1 2G0         0.0646
     42 H7         15.8045   46.9750    9.1443 H         1 2G0         0.2100
     43 H8         12.3549   47.7219    9.0574 H         1 2G0         0.0620
     44 H9         13.2798   47.8793   11.3476 H         1 2G0         0.0255
     45 H10        14.2352   48.8695   10.1929 H         1 2G0         0.0255
     46 H11        14.8656   47.2828   10.7510 H         1 2G0         0.0255
     47 H12        10.1897   45.0758    7.7611 H         1 2G0         0.0529
     48 H13        10.9939   46.6817    7.7306 H         1 2G0         0.0529
     49 H14        10.2671   48.0675    9.2941 H         1 2G0         0.1883
     50 H15        10.4382   47.6898   11.9740 H         1 2G0         0.0800
     51 H16         8.5202   49.4838   12.1164 H         1 2G0         0.0310
     52 H17         8.6757   49.4974   10.3269 H         1 2G0         0.0310
     53 H18        10.0667   51.2558   11.3627 H         1 2G0         0.0232
     54 H19        11.0857   50.0262   10.5403 H         1 2G0         0.0232
     55 H20        10.9302   50.0125   12.3298 H         1 2G0         0.0232
     56 H21         5.8519   46.5057   12.6097 H         1 2G0         0.0802
     57 H22         4.4791   46.9408   10.7992 H         1 2G0         0.0313
     58 H23         4.5974   45.1715   10.5119 H         1 2G0         0.0313
     59 H24         5.3661   46.8474    8.5788 H         1 2G0         0.0287
     60 H25         6.3987   45.4271    8.9570 H         1 2G0         0.0287
     61 H26         7.9575   47.2149    9.1739 H         1 2G0         0.0524
     62 H27         6.7257   48.3263    9.8626 H         1 2G0         0.0524
     63 H28         8.3121   44.6246   11.2161 H         1 2G0         0.1883
     64 H29         7.2109   42.0198   12.0340 H         1 2G0         0.0800
     65 H30         9.8388   41.5689   11.6078 H         1 2G0         0.0315
     66 H31         9.6486   43.0960   10.6812 H         1 2G0         0.0315
     67 H32         8.8574   40.3231   10.0301 H         1 2G0         0.0298
     68 H33         7.0722   41.0067    8.5119 H         1 2G0         0.0232
     69 H34         7.1346   42.6709    9.1849 H         1 2G0         0.0232
     70 H35         6.6406   41.2969   10.2312 H         1 2G0         0.0232
     71 H36        10.7173   41.5843    9.0096 H         1 2G0         0.0232
     72 H37         9.5489   42.8136    8.4178 H         1 2G0         0.0232
     73 H38         9.4669   41.1276    7.8035 H         1 2G0         0.0232
     74 H39         9.2305   41.5556   14.9880 H         1 2G0         0.1815
     75 H40         8.5385   40.7241   13.6353 H         1 2G0         0.1815
@<TRIPOS>BOND
     1    1    2 1  
     2    1    9 1  
     3    1   11 1  
     4    2    3 1  
     5    2    4 1  
     6    4    5 1  
     7    4    6 1  
     8    6    7 1  
     9    6    8 1  
    10    8    9 1  
    11    8   10 1  
    12   11   12 1  
    13   12   13 2  
    14   12   14 am 
    15   14   15 1  
    16   15   16 1  
    17   15   18 1  
    18   16   17 2  
    19   16   20 am 
    20   18   19 1  
    21   20   21 1  
    22   20   26 1  
    23   21   22 1  
    24   21   24 1  
    25   22   23 2  
    26   22   27 am 
    27   24   25 1  
    28   25   26 1  
    29   27   28 1  
    30   28   29 1  
    31   28   31 1  
    32   29   30 2  
    33   29   35 am 
    34   31   32 1  
    35   32   33 1  
    36   32   34 1  
    37    1   36 1  
    38    2   37 1  
    39    3   38 1  
    40    4   39 1  
    41    5   40 1  
    42    6   41 1  
    43    7   42 1  
    44    8   43 1  
    45   10   44 1  
    46   10   45 1  
    47   10   46 1  
    48   11   47 1  
    49   11   48 1  
    50   14   49 1  
    51   15   50 1  
    52   18   51 1  
    53   18   52 1  
    54   19   53 1  
    55   19   54 1  
    56   19   55 1  
    57   21   56 1  
    58   24   57 1  
    59   24   58 1  
    60   25   59 1  
    61   25   60 1  
    62   26   61 1  
    63   26   62 1  
    64   27   63 1  
    65   28   64 1  
    66   31   65 1  
    67   31   66 1  
    68   32   67 1  
    69   33   68 1  
    70   33   69 1  
    71   33   70 1  
    72   34   71 1  
    73   34   72 1  
    74   34   73 1  
    75   35   74 1  
    76   35   75 1  
@<TRIPOS>SUBSTRUCTURE
     1 2G0         1

