### 
### Created by X-TOOL on Mon Sep 10 21:12:59 2018
### 

@<TRIPOS>MOLECULE
3dcs_ligand
   23    23     1     0     0
SMALL
GAST_HUCK


@<TRIPOS>ATOM
      1 N1         -5.5360   -0.6590   16.3410 N.am      1 MZM        -0.2493
      2 S1         -5.9500    0.5660   16.8850 S.o2      1 MZM         0.1310
      3 O1         -7.2680    0.7150   16.6740 O.2       1 MZM        -0.1365
      4 O2         -5.5680    0.5850   18.2600 O.2       1 MZM        -0.1365
      5 C1         -5.1200    1.8240   16.0980 C.2       1 MZM         0.3379
      6 S2         -6.1150    2.9700   15.2190 S.3       1 MZM         0.1839
      7 C2         -4.6820    3.7210   14.6590 C.2       1 MZM         0.3501
      8 N2         -3.6080    3.1390   15.0580 N.2       1 MZM        -0.1996
      9 C5         -2.1610    3.4230   14.8250 C.3       1 MZM         0.0349
     10 N3         -3.8790    2.0620   15.8980 N.2       1 MZM        -0.1220
     11 N4         -5.0590    4.7620   13.8650 N.am      1 MZM        -0.1240
     12 C3         -5.8440    5.5350   13.2150 C.2       1 MZM         0.2781
     13 O3         -5.6100    6.4700   12.4320 O.2       1 MZM        -0.3375
     14 C4         -7.2690    5.2790   13.4120 C.3       1 MZM         0.0502
     15 H1         -5.7142   -0.8644   15.3787 H         1 MZM         0.1646
     16 H2         -5.0627   -1.3268   16.9155 H         1 MZM         0.1646
     17 H3         -1.5510    2.6751   15.3527 H         1 MZM         0.0456
     18 H4         -1.9187    4.4270   15.2036 H         1 MZM         0.0456
     19 H5         -1.9470    3.3761   13.7470 H         1 MZM         0.0456
     20 H6         -4.1730    5.1821   13.6688 H         1 MZM         0.3258
     21 H7         -7.8557    5.9919   12.8140 H         1 MZM         0.0490
     22 H8         -7.5196    5.3998   14.4762 H         1 MZM         0.0490
     23 H9         -7.5046    4.2527   13.0940 H         1 MZM         0.0490
@<TRIPOS>BOND
     1    1    2 am 
     2    2    3 2  
     3    2    4 2  
     4    2    5 1  
     5    5    6 1  
     6    5   10 2  
     7    6    7 1  
     8    7    8 2  
     9    7   11 1  
    10    8    9 1  
    11    8   10 1  
    12   11   12 am 
    13   12   13 2  
    14   12   14 1  
    15    1   15 1  
    16    1   16 1  
    17    9   17 1  
    18    9   18 1  
    19    9   19 1  
    20   11   20 1  
    21   14   21 1  
    22   14   22 1  
    23   14   23 1  
@<TRIPOS>SUBSTRUCTURE
     1 MZM         1

