### 
### Created by X-TOOL on Mon Sep 10 21:12:59 2018
### 

@<TRIPOS>MOLECULE
3dct_ligand
   57    60     1     0     0
SMALL
GAST_HUCK


@<TRIPOS>ATOM
      1 C1        133.8530   24.0310   81.1410 C.2       1 064         0.0511
      2 N4        133.1810   23.2660   82.0760 N.2       1 064        -0.1561
      3 C5        135.2800   22.8710   82.3680 C.2       1 064         0.1409
      4 C6        136.4630   24.3460   80.5860 C.3       1 064         0.0909
      5 C7        133.0800   24.3840   78.8280 C.ar      1 064         0.0466
      6 C8        132.8300   26.2210   80.5290 C.ar      1 064         0.0466
      7 C10       136.5360   22.2080   82.9850 C.3       1 064         0.0217
      8 C16       136.8400   22.7410   84.4170 C.3       1 064        -0.0499
      9 C17       136.3630   20.6920   83.0290 C.3       1 064        -0.0499
     10 C18       137.3120   26.4580   79.6020 C.ar      1 064         0.0968
     11 C19       132.0890   26.5190   78.1800 C.ar      1 064        -0.0622
     12 C20       137.6010   27.8520   79.6350 C.ar      1 064        -0.0158
     13 C21       137.8010   25.6440   78.4990 C.ar      1 064        -0.0294
     14 C22       138.3860   28.4320   78.6360 C.ar      1 064         0.0419
     15 C23       138.6080   26.2290   77.4660 C.ar      1 064        -0.0602
     16 C24       138.8830   27.6620   77.5440 C.ar      1 064        -0.0197
     17 C26       139.7290   28.4220   76.5550 C.2       1 064        -0.0608
     18 C27       140.8180   27.9740   76.0280 C.2       1 064        -0.0590
     19 C28       141.8180   28.6860   75.1910 C.ar      1 064        -0.0262
     20 C29       142.0820   29.9970   75.5650 C.ar      1 064        -0.0424
     21 C30       142.5450   28.0700   74.0940 C.ar      1 064        -0.0543
     22 C32       143.4990   28.8840   73.3890 C.ar      1 064        -0.0594
     23 C2        135.2230   23.7870   81.3270 C.2       1 064         0.0217
     24 C3        133.2780   24.8700   80.1890 C.ar      1 064         0.0116
     25 O9        134.0020   22.5760   82.8100 O.3       1 064        -0.1757
     26 O11       136.5630   25.8240   80.6050 O.3       1 064        -0.3103
     27 C12       132.5030   25.2140   77.8420 C.ar      1 064        -0.0487
     28 CL13      133.5930   22.7630   78.2920 Cl        1 064        -0.0709
     29 C14       132.2690   27.0290   79.5200 C.ar      1 064        -0.0487
     30 CL15      133.0010   26.9620   82.1240 Cl        1 064        -0.0709
     31 CL25      138.6910   30.1380   78.7530 Cl        1 064        -0.0706
     32 C31       143.0110   30.8040   74.8920 C.ar      1 064         0.0093
     33 C33       143.7260   30.2440   73.7940 C.ar      1 064        -0.0491
     34 C34       143.2710   32.2290   75.3400 C.2       1 064         0.0627
     35 O35       144.1910   32.9830   74.6680 O.co2     1 064        -0.5606
     36 O36       142.6680   32.7210   76.3160 O.co2     1 064        -0.5606
     37 H1        136.4168   24.0163   79.5376 H         1 064         0.0693
     38 H2        137.3649   23.9326   81.0610 H         1 064         0.0693
     39 H3        137.3965   22.4437   82.3417 H         1 064         0.0488
     40 H4        137.7375   22.2419   84.8111 H         1 064         0.0256
     41 H5        135.9845   22.5308   85.0758 H         1 064         0.0256
     42 H6        137.0127   23.8266   84.3752 H         1 064         0.0256
     43 H7        136.1485   20.3179   82.0170 H         1 064         0.0256
     44 H8        135.5282   20.4375   83.6986 H         1 064         0.0256
     45 H9        137.2876   20.2281   83.4030 H         1 064         0.0256
     46 H10       131.6301   27.1473   77.4253 H         1 064         0.0606
     47 H11       137.2101   28.4655   80.4387 H         1 064         0.0559
     48 H12       137.5542   24.5893   78.4573 H         1 064         0.0556
     49 H13       139.0007   25.6272   76.6544 H         1 064         0.0608
     50 H14       139.3982   29.4182   76.2652 H         1 064         0.0613
     51 H15       141.0351   26.9251   76.2245 H         1 064         0.0571
     52 H16       141.5484   30.4137   76.4116 H         1 064         0.0646
     53 H17       142.3749   27.0358   73.8172 H         1 064         0.0630
     54 H18       144.0477   28.4706   72.5505 H         1 064         0.0620
     55 H19       132.3787   24.8493   76.8288 H         1 064         0.0621
     56 H20       131.9691   28.0446   79.7516 H         1 064         0.0621
     57 H21       144.4483   30.8498   73.2589 H         1 064         0.0638
@<TRIPOS>BOND
     1    1    2 2  
     2   23    1 1  
     3    1   24 1  
     4   25    2 1  
     5    3    7 1  
     6   23    3 2  
     7    3   25 1  
     8    4   23 1  
     9   26    4 1  
    10   24    5 ar 
    11    5   27 ar 
    12    5   28 1  
    13   24    6 ar 
    14    6   29 ar 
    15    6   30 1  
    16    7    8 1  
    17    7    9 1  
    18   10   12 ar 
    19   10   13 ar 
    20   10   26 1  
    21   27   11 ar 
    22   11   29 ar 
    23   12   14 ar 
    24   13   15 ar 
    25   14   16 ar 
    26   14   31 1  
    27   15   16 ar 
    28   16   17 1  
    29   17   18 2  
    30   18   19 1  
    31   19   20 ar 
    32   19   21 ar 
    33   20   32 ar 
    34   21   22 ar 
    35   22   33 ar 
    36   32   33 ar 
    37   32   34 1  
    38   34   35 ar 
    39   34   36 ar 
    40    4   37 1  
    41    4   38 1  
    42    7   39 1  
    43    8   40 1  
    44    8   41 1  
    45    8   42 1  
    46    9   43 1  
    47    9   44 1  
    48    9   45 1  
    49   11   46 1  
    50   12   47 1  
    51   13   48 1  
    52   15   49 1  
    53   17   50 1  
    54   18   51 1  
    55   20   52 1  
    56   21   53 1  
    57   22   54 1  
    58   27   55 1  
    59   29   56 1  
    60   33   57 1  
@<TRIPOS>SUBSTRUCTURE
     1 064         1

