### 
### Created by X-TOOL on Mon Sep 10 21:12:57 2018
### 

@<TRIPOS>MOLECULE
3dcv_ligand
   35    37     1     0     0
SMALL
GAST_HUCK


@<TRIPOS>ATOM
      1 O3         15.6870   33.5600   -0.3660 O.2       1 55E        -0.4033
      2 C2         16.3220   34.3240    0.3920 C.2       1 55E         0.2532
      3 N4         17.2490   35.1470   -0.1400 N.2       1 55E        -0.2816
      4 C5         17.9630   35.9790    0.6450 C.2       1 55E         0.0177
      5 C6         18.9470   36.9030    0.0370 C.ar      1 55E        -0.0113
      6 C21        19.7620   37.7010    0.8270 C.ar      1 55E        -0.0511
      7 C19        20.6520   38.5900    0.2310 C.ar      1 55E        -0.0085
      8 C20        21.5540   39.4460    1.0830 C.3       1 55E        -0.0314
      9 C17        20.7100   38.6860   -1.1500 C.ar      1 55E         0.0978
     10 O18        21.5760   39.5480   -1.7550 O.3       1 55E        -0.3311
     11 C16        19.8770   37.9000   -1.9370 C.ar      1 55E        -0.0306
     12 C15        18.9910   37.0130   -1.3450 C.ar      1 55E        -0.0587
     13 C7         17.7250   36.0130    2.0040 C.2       1 55E        -0.0085
     14 C8         16.7730   35.1560    2.5420 C.2       1 55E         0.1108
     15 N1         16.0820   34.3260    1.7250 N.am      1 55E        -0.2062
     16 C9         16.5200   35.1890    4.0120 C.ar      1 55E         0.0327
     17 C14        17.5440   34.9210    4.9160 C.ar      1 55E        -0.0417
     18 C13        17.2890   34.9680    6.2880 C.ar      1 55E        -0.0544
     19 C12        16.0190   35.2930    6.7630 C.ar      1 55E        -0.0558
     20 C11        14.9980   35.5670    5.8570 C.ar      1 55E        -0.0544
     21 C10        15.2510   35.5200    4.4860 C.ar      1 55E        -0.0417
     22 H1         19.7057   37.6322    1.9074 H         1 55E         0.0586
     23 H2         21.3660   39.2322    2.1455 H         1 55E         0.0369
     24 H3         21.3499   40.5078    0.8810 H         1 55E         0.0369
     25 H4         22.6043   39.2226    0.8443 H         1 55E         0.0369
     26 H5         21.4803   39.4816   -2.6979 H         1 55E         0.2490
     27 H6         19.9201   37.9806   -3.0171 H         1 55E         0.0546
     28 H7         18.3350   36.4076   -1.9600 H         1 55E         0.0602
     29 H8         18.2748   36.7009    2.6447 H         1 55E         0.0407
     30 H9         15.3916   33.7120    2.1075 H         1 55E         0.2541
     31 H10        18.5367   34.6765    4.5558 H         1 55E         0.0683
     32 H11        18.0855   34.7499    6.9902 H         1 55E         0.0634
     33 H12        15.8281   35.3320    7.8293 H         1 55E         0.0667
     34 H13        14.0065   35.8168    6.2170 H         1 55E         0.0634
     35 H14        14.4555   35.7424    3.7840 H         1 55E         0.0683
@<TRIPOS>BOND
     1    1    2 2  
     2    2    3 1  
     3    2   15 am 
     4    3    4 2  
     5    4    5 1  
     6    4   13 1  
     7    5    6 ar 
     8    5   12 ar 
     9    6    7 ar 
    10    7    8 1  
    11    7    9 ar 
    12    9   10 1  
    13    9   11 ar 
    14   11   12 ar 
    15   13   14 2  
    16   14   15 1  
    17   14   16 1  
    18   16   17 ar 
    19   16   21 ar 
    20   17   18 ar 
    21   18   19 ar 
    22   19   20 ar 
    23   20   21 ar 
    24    6   22 1  
    25    8   23 1  
    26    8   24 1  
    27    8   25 1  
    28   10   26 1  
    29   11   27 1  
    30   12   28 1  
    31   13   29 1  
    32   15   30 1  
    33   17   31 1  
    34   18   32 1  
    35   19   33 1  
    36   20   34 1  
    37   21   35 1  
@<TRIPOS>SUBSTRUCTURE
     1 55E         1

