### 
### Created by X-TOOL on Mon Sep 10 21:12:59 2018
### 

@<TRIPOS>MOLECULE
3dcw_ligand
   26    27     1     0     0
SMALL
GAST_HUCK


@<TRIPOS>ATOM
      1 N1         -5.4350   -0.3930   16.2740 N.am      1 EZL        -0.2548
      2 C2         -3.6220    3.6100   15.2860 C.ar      1 EZL         0.0296
      3 C3         -4.7550    4.2550   14.8040 C.ar      1 EZL         0.0510
      4 C4         -4.6560    5.4720   14.0860 C.ar      1 EZL        -0.0189
      5 C5         -3.3160    5.8910   13.8480 C.ar      1 EZL         0.0844
      6 C8         -1.8810    7.8730   13.1870 C.3       1 EZL         0.0670
      7 O1         -5.4950    1.0490   18.3050 O.2       1 EZL        -0.1431
      8 O2         -7.3680    1.1190   16.7460 O.2       1 EZL        -0.1431
      9 S1         -5.9750    0.9350   16.9030 S.o2      1 EZL         0.1041
     10 C1         -5.2300    2.2940   16.0620 C.2       1 EZL         0.2500
     11 N2         -3.9160    2.4640   15.9490 N.2       1 EZL        -0.2771
     12 S2         -6.1370    3.4830   15.3160 S.3       1 EZL         0.0259
     13 C6         -2.1750    5.2170   14.2850 C.ar      1 EZL        -0.0391
     14 C7         -2.2870    4.0090   14.9960 C.ar      1 EZL        -0.0596
     15 O3         -3.1140    7.0290   13.0770 O.3       1 EZL        -0.3212
     16 C9         -1.6970    8.4610   14.6020 C.3       1 EZL        -0.0372
     17 H1         -4.4616   -0.6144   16.3327 H         1 EZL         0.1640
     18 H2         -6.0635   -1.0199   15.8135 H         1 EZL         0.1640
     19 H3         -5.5204    6.0326   13.7489 H         1 EZL         0.0487
     20 H4         -1.9540    8.7012   12.4667 H         1 EZL         0.0610
     21 H5         -1.0053    7.2528   12.9452 H         1 EZL         0.0610
     22 H6         -1.1942    5.6280   14.0747 H         1 EZL         0.0502
     23 H7         -1.4241    3.4272   15.2994 H         1 EZL         0.0565
     24 H8         -0.7814    9.0700   14.6298 H         1 EZL         0.0255
     25 H9         -1.6148    7.6419   15.3316 H         1 EZL         0.0255
     26 H10        -2.5636    9.0903   14.8531 H         1 EZL         0.0255
@<TRIPOS>BOND
     1    9    1 am 
     2    2    3 ar 
     3   11    2 1  
     4    2   14 ar 
     5    3    4 ar 
     6    3   12 1  
     7    4    5 ar 
     8    5   13 ar 
     9    5   15 1  
    10   15    6 1  
    11    6   16 1  
    12    9    7 2  
    13    9    8 2  
    14   10    9 1  
    15   10   11 2  
    16   10   12 1  
    17   13   14 ar 
    18    1   17 1  
    19    1   18 1  
    20    4   19 1  
    21    6   20 1  
    22    6   21 1  
    23   13   22 1  
    24   14   23 1  
    25   16   24 1  
    26   16   25 1  
    27   16   26 1  
@<TRIPOS>SUBSTRUCTURE
     1 EZL         1

