### 
### Created by X-TOOL on Mon Sep 10 21:12:59 2018
### 

@<TRIPOS>MOLECULE
3dd0_ligand
   26    27     1     0     0
SMALL
GAST_HUCK


@<TRIPOS>ATOM
      1 N1         -5.4650   -0.6060   16.2520 N.am      1 EZL        -0.2548
      2 C2         -3.6850    3.3930   15.2430 C.ar      1 EZL         0.0296
      3 C3         -4.8450    4.0640   14.8540 C.ar      1 EZL         0.0510
      4 C4         -4.7370    5.2650   14.1050 C.ar      1 EZL        -0.0189
      5 C5         -3.3640    5.6120   13.8750 C.ar      1 EZL         0.0844
      6 C8         -1.9210    7.5120   13.0240 C.3       1 EZL         0.0670
      7 O1         -5.6250    0.8590   18.2690 O.2       1 EZL        -0.1431
      8 O2         -7.4470    0.8910   16.6670 O.2       1 EZL        -0.1431
      9 S1         -6.0450    0.7020   16.9090 S.o2      1 EZL         0.1041
     10 C1         -5.2880    2.0820   16.0560 C.2       1 EZL         0.2500
     11 N2         -3.9690    2.2590   15.9940 N.2       1 EZL        -0.2771
     12 S2         -6.2190    3.2530   15.3190 S.3       1 EZL         0.0259
     13 C6         -2.1720    4.9870   14.2630 C.ar      1 EZL        -0.0391
     14 C7         -2.3270    3.7790   15.0230 C.ar      1 EZL        -0.0596
     15 O3         -3.2050    6.7660   13.0960 O.3       1 EZL        -0.3212
     16 C9         -1.7510    8.4140   14.2560 C.3       1 EZL        -0.0372
     17 H1         -4.4970   -0.8328   16.3598 H         1 EZL         0.1640
     18 H2         -6.0646   -1.2100   15.7269 H         1 EZL         0.1640
     19 H3         -5.5824    5.8448   13.7525 H         1 EZL         0.0487
     20 H4         -1.9144    8.1340   12.1168 H         1 EZL         0.0610
     21 H5         -1.0879    6.7949   12.9831 H         1 EZL         0.0610
     22 H6         -1.1982    5.3884   14.0067 H         1 EZL         0.0502
     23 H7         -1.4853    3.2082   15.3981 H         1 EZL         0.0565
     24 H8         -0.7968    8.9566   14.1843 H         1 EZL         0.0255
     25 H9         -1.7539    7.7961   15.1661 H         1 EZL         0.0255
     26 H10        -2.5805    9.1352   14.2997 H         1 EZL         0.0255
@<TRIPOS>BOND
     1    9    1 am 
     2    2    3 ar 
     3   11    2 1  
     4    2   14 ar 
     5    3    4 ar 
     6    3   12 1  
     7    4    5 ar 
     8    5   13 ar 
     9    5   15 1  
    10   15    6 1  
    11    6   16 1  
    12    9    7 2  
    13    9    8 2  
    14   10    9 1  
    15   10   11 2  
    16   10   12 1  
    17   13   14 ar 
    18    1   17 1  
    19    1   18 1  
    20    4   19 1  
    21    6   20 1  
    22    6   21 1  
    23   13   22 1  
    24   14   23 1  
    25   16   24 1  
    26   16   25 1  
    27   16   26 1  
@<TRIPOS>SUBSTRUCTURE
     1 EZL         1

