### 
### Created by X-TOOL on Mon Sep 10 21:12:58 2018
### 

@<TRIPOS>MOLECULE
3dd8_ligand
   45    47     1     0     0
SMALL
GAST_HUCK


@<TRIPOS>ATOM
      1 CAE        -1.2860    9.8490   12.4120 C.3       1 2C7        -0.0480
      2 CAA         0.0250   10.6530   12.3690 C.3       1 2C7        -0.0526
      3 CAB         0.4180   11.2100   13.7510 C.3       1 2C7        -0.0530
      4 CAC         0.6120   10.0830   14.7850 C.3       1 2C7        -0.0530
      5 CAD        -0.7320    9.5540   15.3220 C.3       1 2C7        -0.0526
      6 CAG        -1.3660    8.4160   14.4930 C.3       1 2C7        -0.0480
      7 CAF        -1.0740    8.4340   12.9740 C.3       1 2C7        -0.0285
      8 CAH        -1.9950    7.5080   12.1680 C.3       1 2C7         0.0031
      9 CAI        -2.7500    6.3640   12.8850 C.2       1 2C7         0.0750
     10 CAJ        -4.0600    6.2410   13.1690 C.2       1 2C7        -0.0478
     11 SAP        -1.9980    4.9250   13.4130 S.o2      1 2C7         0.0225
     12 OAO        -1.3820    4.2290   12.2230 O.2       1 2C7        -0.1636
     13 OAW        -1.0200    5.1620   14.5250 O.2       1 2C7        -0.1636
     14 CAQ        -3.4190    4.1590   13.9810 C.ar      1 2C7         0.0885
     15 CAR        -3.6610    2.9100   14.5680 C.ar      1 2C7        -0.0077
     16 CAK        -4.4500    5.0870   13.7630 C.ar      1 2C7        -0.0231
     17 CAL        -5.7400    4.6980   14.1370 C.ar      1 2C7        -0.0666
     18 CAM        -5.9870    3.4520   14.7130 C.ar      1 2C7        -0.0329
     19 CAS        -4.9560    2.5520   14.9620 C.ar      1 2C7         0.1244
     20 OAT        -5.1820    1.2980   15.4940 O.3       1 2C7        -0.1555
     21 SAU        -5.8730    0.9500   16.7490 S.o2      1 2C7         0.1784
     22 OAA        -5.1280    1.4430   17.9490 O.2       1 2C7        -0.1229
     23 OAN        -7.2650    1.4680   16.7630 O.2       1 2C7        -0.1229
     24 NAV        -5.8480   -0.6380   16.7830 N.am      1 2C7        -0.2381
     25 H1         -1.6877    9.7694   11.3911 H         1 2C7         0.0270
     26 H2         -2.0079   10.3802   13.0497 H         1 2C7         0.0270
     27 H3         -0.0993   11.4943   11.6714 H         1 2C7         0.0265
     28 H4          0.8310    9.9957   12.0109 H         1 2C7         0.0265
     29 H5         -0.3768   11.8840   14.1031 H         1 2C7         0.0265
     30 H6          1.3590   11.7715   13.6548 H         1 2C7         0.0265
     31 H7          1.2026   10.4720   15.6276 H         1 2C7         0.0265
     32 H8          1.1551    9.2536   14.3085 H         1 2C7         0.0265
     33 H9         -1.4426   10.3932   15.3482 H         1 2C7         0.0265
     34 H10        -0.5677    9.1806   16.3436 H         1 2C7         0.0265
     35 H11        -2.4565    8.4712   14.6259 H         1 2C7         0.0270
     36 H12        -0.9955    7.4614   14.8947 H         1 2C7         0.0270
     37 H13        -0.0296    8.1256   12.8189 H         1 2C7         0.0328
     38 H14        -1.3750    7.0413   11.3884 H         1 2C7         0.0473
     39 H15        -2.7567    8.1468   11.6972 H         1 2C7         0.0473
     40 H16        -4.7719    7.0305   12.9329 H         1 2C7         0.0434
     41 H17        -2.8411    2.2170   14.7179 H         1 2C7         0.0559
     42 H18        -6.5668    5.3803   13.9756 H         1 2C7         0.0561
     43 H19        -7.0036    3.1793   14.9720 H         1 2C7         0.0539
     44 H20        -6.2625   -1.1283   17.5497 H         1 2C7         0.1658
     45 H21        -5.4178   -1.1474   16.0377 H         1 2C7         0.1658
@<TRIPOS>BOND
     1    1    2 1  
     2    1    7 1  
     3    2    3 1  
     4    3    4 1  
     5    4    5 1  
     6    5    6 1  
     7    6    7 1  
     8    7    8 1  
     9    8    9 1  
    10    9   10 2  
    11    9   11 1  
    12   10   16 1  
    13   11   12 2  
    14   11   13 2  
    15   11   14 1  
    16   14   15 ar 
    17   14   16 ar 
    18   15   19 ar 
    19   16   17 ar 
    20   17   18 ar 
    21   18   19 ar 
    22   19   20 1  
    23   20   21 1  
    24   21   22 2  
    25   21   23 2  
    26   21   24 am 
    27    1   25 1  
    28    1   26 1  
    29    2   27 1  
    30    2   28 1  
    31    3   29 1  
    32    3   30 1  
    33    4   31 1  
    34    4   32 1  
    35    5   33 1  
    36    5   34 1  
    37    6   35 1  
    38    6   36 1  
    39    7   37 1  
    40    8   38 1  
    41    8   39 1  
    42   10   40 1  
    43   15   41 1  
    44   17   42 1  
    45   18   43 1  
    46   24   44 1  
    47   24   45 1  
@<TRIPOS>SUBSTRUCTURE
     1 2C7         1

