### 
### Created by X-TOOL on Mon Sep 10 21:12:57 2018
### 

@<TRIPOS>MOLECULE
3ddf_ligand
   38    39     1     0     0
SMALL
GAST_HUCK


@<TRIPOS>ATOM
      1 C15        27.2850   67.6370   11.5310 C.ar      1 GB6        -0.0549
      2 C14        27.0370   68.9770   11.7610 C.ar      1 GB6        -0.0684
      3 C13        27.9310   69.7900   12.4580 C.ar      1 GB6        -0.0687
      4 C12        29.1240   69.2700   12.9820 C.ar      1 GB6        -0.0684
      5 C11        29.4270   67.9340   12.8050 C.ar      1 GB6        -0.0549
      6 C10        28.5580   67.0940   12.0920 C.ar      1 GB6         0.0066
      7 C8         28.8520   65.5910   11.8840 C.3       1 GB6         0.0347
      8 C9         29.1040   65.0270   13.3270 C.3       1 GB6         0.0966
      9 O9         29.1240   63.6170   13.1430 O.3       1 GB6        -0.3873
     10 N7         30.0900   65.3760   11.0280 N.4       1 GB6         0.2446
     11 C6         29.9950   66.0980    9.7330 C.3       1 GB6        -0.0057
     12 C5         31.0830   65.6930    8.7260 C.3       1 GB6         0.1120
     13 N1         30.7800   66.3990    7.4570 N.am      1 GB6        -0.2738
     14 C2         31.7870   67.0310    6.8950 C.2       1 GB6         0.2081
     15 O2         31.7860   67.6410    5.8060 O.2       1 GB6        -0.3941
     16 C3         33.0180   66.8840    7.7760 C.3       1 GB6         0.1715
     17 O3         33.9280   65.9840    7.0730 O.3       1 GB6        -0.3687
     18 C4         32.4900   66.2520    9.0390 C.3       1 GB6         0.1258
     19 O4         33.3470   65.2080    9.5370 O.3       1 GB6        -0.3843
     20 H1         26.5938   67.0146   10.9743 H         1 GB6         0.0559
     21 H2         26.1167   69.4109   11.3872 H         1 GB6         0.0599
     22 H3         27.7003   70.8400   12.5969 H         1 GB6         0.0559
     23 H4         29.8061   69.9148   13.5242 H         1 GB6         0.0599
     24 H5         30.3437   67.5311   13.2203 H         1 GB6         0.0559
     25 H6         27.9908   65.0931   11.4145 H         1 GB6         0.1039
     26 H7         28.2932   65.3213   14.0096 H         1 GB6         0.0637
     27 H8         30.0656   65.3837   13.7245 H         1 GB6         0.0637
     28 H9         29.2735   63.1917   13.9792 H         1 GB6         0.2099
     29 H10        30.1937   64.3901   10.8454 H         1 GB6         0.2032
     30 H11        30.8969   65.7114   11.5305 H         1 GB6         0.2032
     31 H12        30.0849   67.1768    9.9280 H         1 GB6         0.0838
     32 H13        29.0118   65.8866    9.2874 H         1 GB6         0.0838
     33 H14        31.1047   64.5991    8.6128 H         1 GB6         0.0638
     34 H15        29.8651   66.3946    7.0533 H         1 GB6         0.1858
     35 H16        33.5029   67.8494    7.9828 H         1 GB6         0.0865
     36 H17        34.7152   65.8634    7.5909 H         1 GB6         0.2134
     37 H18        32.4071   67.0274    9.8148 H         1 GB6         0.0670
     38 H19        34.2051   65.5682    9.7276 H         1 GB6         0.2102
@<TRIPOS>BOND
     1    1    2 ar 
     2    1    6 ar 
     3    2    3 ar 
     4    3    4 ar 
     5    4    5 ar 
     6    5    6 ar 
     7    6    7 1  
     8    7    8 1  
     9    7   10 1  
    10    8    9 1  
    11   10   11 1  
    12   11   12 1  
    13   12   13 1  
    14   12   18 1  
    15   13   14 am 
    16   14   15 2  
    17   14   16 1  
    18   16   17 1  
    19   16   18 1  
    20   18   19 1  
    21    1   20 1  
    22    2   21 1  
    23    3   22 1  
    24    4   23 1  
    25    5   24 1  
    26    7   25 1  
    27    8   26 1  
    28    8   27 1  
    29    9   28 1  
    30   10   29 1  
    31   10   30 1  
    32   11   31 1  
    33   11   32 1  
    34   12   33 1  
    35   13   34 1  
    36   16   35 1  
    37   17   36 1  
    38   18   37 1  
    39   19   38 1  
@<TRIPOS>SUBSTRUCTURE
     1 GB6         1

