### 
### Created by X-TOOL on Mon Sep 10 21:12:57 2018
### 

@<TRIPOS>MOLECULE
3ddg_ligand
   41    42     1     0     0
SMALL
GAST_HUCK


@<TRIPOS>ATOM
      1 C11        29.6920   67.7980   12.8080 C.ar      1 GB7        -0.0549
      2 C12        29.4710   69.1240   13.1240 C.ar      1 GB7        -0.0684
      3 C13        28.3520   69.8560   12.7390 C.ar      1 GB7        -0.0687
      4 C14        27.3650   69.1100   12.1150 C.ar      1 GB7        -0.0684
      5 C15        27.5310   67.7610   11.8030 C.ar      1 GB7        -0.0549
      6 C10        28.6780   67.0940   12.1730 C.ar      1 GB7         0.0066
      7 C8         28.9400   65.6190   11.8880 C.3       1 GB7         0.0347
      8 C9         29.1110   65.0090   13.2830 C.3       1 GB7         0.0966
      9 O9         29.3020   63.6050   13.2270 O.3       1 GB7        -0.3873
     10 N7         30.1600   65.4270   11.0820 N.4       1 GB7         0.2446
     11 C6         30.0820   66.1180    9.7690 C.3       1 GB7        -0.0055
     12 C5         31.1780   65.7230    8.7590 C.3       1 GB7         0.1147
     13 N1         30.8750   66.3990    7.4810 N.am      1 GB7        -0.2632
     14 C1         29.5470   66.2590    6.8520 C.3       1 GB7         0.0233
     15 C2         31.9150   66.9950    6.9030 C.2       1 GB7         0.2103
     16 O2         31.9090   67.5850    5.8290 O.2       1 GB7        -0.3939
     17 C3         33.1550   66.7440    7.7530 C.3       1 GB7         0.1717
     18 O3         34.1150   66.0080    7.0120 O.3       1 GB7        -0.3687
     19 C4         32.6050   66.1790    9.0620 C.3       1 GB7         0.1260
     20 O4         33.4320   65.2170    9.6690 O.3       1 GB7        -0.3843
     21 H1         30.6338   67.3188   13.0498 H         1 GB7         0.0559
     22 H2         30.2244   69.6318   13.7153 H         1 GB7         0.0599
     23 H3         28.2600   70.9220   12.9129 H         1 GB7         0.0559
     24 H4         26.4288   69.5931   11.8598 H         1 GB7         0.0599
     25 H5         26.7516   67.2333   11.2653 H         1 GB7         0.0559
     26 H6         28.0846   65.1669   11.3646 H         1 GB7         0.1039
     27 H7         28.2099   65.2217   13.8770 H         1 GB7         0.0637
     28 H8         29.9859   65.4677   13.7668 H         1 GB7         0.0637
     29 H9         29.4037   63.2650   14.1082 H         1 GB7         0.2099
     30 H10        30.2910   64.4405   10.9219 H         1 GB7         0.2032
     31 H11        30.9478   65.7919   11.5941 H         1 GB7         0.2032
     32 H12        30.1572   67.2007    9.9481 H         1 GB7         0.0838
     33 H13        29.1048   65.8877    9.3196 H         1 GB7         0.0838
     34 H14        31.1645   64.6292    8.6436 H         1 GB7         0.0640
     35 H15        29.5228   66.8342    5.9147 H         1 GB7         0.0486
     36 H16        28.7750   66.6406    7.5364 H         1 GB7         0.0486
     37 H17        29.3535   65.1979    6.6361 H         1 GB7         0.0486
     38 H18        33.6296   67.7074    7.9910 H         1 GB7         0.0865
     39 H19        34.3619   66.5008    6.2382 H         1 GB7         0.2134
     40 H20        32.5376   67.0098    9.7797 H         1 GB7         0.0670
     41 H21        34.2762   65.6057    9.8660 H         1 GB7         0.2102
@<TRIPOS>BOND
     1    1    2 ar 
     2    1    6 ar 
     3    2    3 ar 
     4    3    4 ar 
     5    4    5 ar 
     6    5    6 ar 
     7    6    7 1  
     8    7    8 1  
     9    7   10 1  
    10    8    9 1  
    11   10   11 1  
    12   11   12 1  
    13   12   13 1  
    14   12   19 1  
    15   13   14 1  
    16   13   15 am 
    17   15   16 2  
    18   15   17 1  
    19   17   18 1  
    20   17   19 1  
    21   19   20 1  
    22    1   21 1  
    23    2   22 1  
    24    3   23 1  
    25    4   24 1  
    26    5   25 1  
    27    7   26 1  
    28    8   27 1  
    29    8   28 1  
    30    9   29 1  
    31   10   30 1  
    32   10   31 1  
    33   11   32 1  
    34   11   33 1  
    35   12   34 1  
    36   14   35 1  
    37   14   36 1  
    38   14   37 1  
    39   17   38 1  
    40   18   39 1  
    41   19   40 1  
    42   20   41 1  
@<TRIPOS>SUBSTRUCTURE
     1 GB7         1

