### 
### Created by X-TOOL on Mon Sep 10 21:12:58 2018
### 

@<TRIPOS>MOLECULE
3ddp_ligand
   61    64     1     0     0
SMALL
GAST_HUCK


@<TRIPOS>ATOM
      1 C2         32.8220  -14.6680   37.8260 C.ar      1 RC8         0.1544
      2 C4         32.4820  -13.3730   35.9020 C.ar      1 RC8         0.1424
      3 C5         32.2520  -14.5770   35.0940 C.ar      1 RC8         0.0919
      4 C6         32.3460  -15.8790   35.8220 C.ar      1 RC8         0.1222
      5 C8         32.0800  -12.7690   33.8540 C.2       1 RC8         0.1048
      6 C9         32.5600  -10.9610   35.6400 C.3       1 RC8         0.0648
      7 C10        33.5820  -10.2020   34.8150 C.3       1 RC8        -0.0349
      8 C12        33.6690  -13.4830   39.7720 C.3       1 RC8         0.0634
      9 C14        35.7730  -12.4220   38.8480 C.3       1 RC8        -0.0631
     10 O1         32.5230  -14.5970   41.6180 O.3       1 RC8        -0.3927
     11 C15        33.1970  -13.3890   41.2230 C.3       1 RC8         0.0673
     12 C13        35.1980  -13.5070   39.7300 C.3       1 RC8        -0.0304
     13 N2         33.1060  -14.6740   39.1450 N.pl3     1 RC8        -0.2923
     14 N1         32.6250  -15.8340   37.1520 N.ar      1 RC8        -0.2560
     15 N9         32.3660  -12.3290   35.0980 N.pl3     1 RC8        -0.2248
     16 C11        31.2200  -10.2740   35.7970 C.3       1 RC8        -0.0349
     17 N7         32.0070  -14.1300   33.8420 N.2       1 RC8        -0.3043
     18 N3         32.7540  -13.4710   37.2190 N.ar      1 RC8        -0.2645
     19 N6         32.1450  -17.0570   35.1830 N.pl3     1 RC8        -0.2914
     20 CA'        32.6390  -18.3290   35.6740 C.3       1 RC8         0.0645
     21 C1'        31.5390  -18.9790   36.4700 C.ar      1 RC8        -0.0178
     22 C6'        31.6840  -19.1560   37.8490 C.ar      1 RC8        -0.0551
     23 C5'        30.6600  -19.7490   38.5860 C.ar      1 RC8        -0.0567
     24 C4'        29.4990  -20.1740   37.9390 C.ar      1 RC8        -0.0068
     25 C3'        29.3570  -19.9850   36.5630 C.ar      1 RC8        -0.0567
     26 C2'        30.3780  -19.3900   35.8250 C.ar      1 RC8        -0.0551
     27 C1B        28.3890  -20.7810   38.7220 C.ar      1 RC8         0.0481
     28 N1B        28.4590  -20.7870   40.0710 N.ar      1 RC8        -0.2940
     29 C5B        27.4710  -21.3040   40.8310 C.ar      1 RC8         0.0086
     30 C4B        26.3260  -21.8340   40.2290 C.ar      1 RC8        -0.0355
     31 C3B        26.2190  -21.8260   38.8380 C.ar      1 RC8        -0.0433
     32 C2B        27.2580  -21.2880   38.0760 C.ar      1 RC8        -0.0287
     33 H1         31.9294  -12.1291   32.9858 H         1 RC8         0.1309
     34 H2         32.9840  -11.0604   36.6501 H         1 RC8         0.0642
     35 H3         33.7122   -9.1921   35.2312 H         1 RC8         0.0259
     36 H4         33.2315  -10.1276   33.7750 H         1 RC8         0.0259
     37 H5         34.5434  -10.7358   34.8406 H         1 RC8         0.0259
     38 H6         33.3157  -12.5972   39.2237 H         1 RC8         0.0581
     39 H7         36.8711  -12.4869   38.8556 H         1 RC8         0.0231
     40 H8         35.4613  -11.4376   39.2272 H         1 RC8         0.0231
     41 H9         35.4051  -12.5521   37.8195 H         1 RC8         0.0231
     42 H10        32.2381  -14.5186   42.5208 H         1 RC8         0.2095
     43 H11        32.5047  -12.5401   41.3232 H         1 RC8         0.0580
     44 H12        34.0677  -13.2312   41.8764 H         1 RC8         0.0580
     45 H13        35.5245  -14.4841   39.3445 H         1 RC8         0.0286
     46 H14        35.5806  -13.3696   40.7521 H         1 RC8         0.0286
     47 H15        32.9257  -15.5175   39.7080 H         1 RC8         0.1849
     48 H16        30.5551  -10.9024   36.4077 H         1 RC8         0.0259
     49 H17        30.7692  -10.1187   34.8057 H         1 RC8         0.0259
     50 H18        31.3621   -9.3018   36.2917 H         1 RC8         0.0259
     51 H19        31.6128  -17.0485   34.3012 H         1 RC8         0.1884
     52 H20        33.5176  -18.1659   36.3154 H         1 RC8         0.0696
     53 H21        32.9178  -18.9733   34.8272 H         1 RC8         0.0696
     54 H22        32.5920  -18.8324   38.3449 H         1 RC8         0.0566
     55 H23        30.7652  -19.8794   39.6570 H         1 RC8         0.0625
     56 H24        28.4475  -20.3029   36.0662 H         1 RC8         0.0625
     57 H25        30.2680  -19.2486   34.7559 H         1 RC8         0.0566
     58 H26        27.5654  -21.3083   41.9109 H         1 RC8         0.0823
     59 H27        25.5292  -22.2471   40.8369 H         1 RC8         0.0697
     60 H28        25.3386  -22.2331   38.3540 H         1 RC8         0.0732
     61 H29        27.1882  -21.2638   36.9945 H         1 RC8         0.0706
@<TRIPOS>BOND
     1   13    1 1  
     2    1   14 ar 
     3    1   18 ar 
     4    2    3 ar 
     5    2   15 1  
     6   18    2 ar 
     7    4    3 ar 
     8    3   17 1  
     9   14    4 ar 
    10    4   19 1  
    11   15    5 1  
    12    5   17 2  
    13    6    7 1  
    14   15    6 1  
    15    6   16 1  
    16    8   11 1  
    17    8   12 1  
    18    8   13 1  
    19   12    9 1  
    20   11   10 1  
    21   19   20 1  
    22   20   21 1  
    23   21   22 ar 
    24   21   26 ar 
    25   22   23 ar 
    26   23   24 ar 
    27   24   25 ar 
    28   24   27 1  
    29   25   26 ar 
    30   27   28 ar 
    31   27   32 ar 
    32   28   29 ar 
    33   29   30 ar 
    34   30   31 ar 
    35   31   32 ar 
    36    5   33 1  
    37    6   34 1  
    38    7   35 1  
    39    7   36 1  
    40    7   37 1  
    41    8   38 1  
    42    9   39 1  
    43    9   40 1  
    44    9   41 1  
    45   10   42 1  
    46   11   43 1  
    47   11   44 1  
    48   12   45 1  
    49   12   46 1  
    50   13   47 1  
    51   16   48 1  
    52   16   49 1  
    53   16   50 1  
    54   19   51 1  
    55   20   52 1  
    56   20   53 1  
    57   22   54 1  
    58   23   55 1  
    59   25   56 1  
    60   26   57 1  
    61   29   58 1  
    62   30   59 1  
    63   31   60 1  
    64   32   61 1  
@<TRIPOS>SUBSTRUCTURE
     1 RC8         1

